MODEL 1
REMARK VINA RESULT:    -8.254      0.000      0.000
REMARK INTER + INTRA:         -12.070
REMARK INTER:                 -11.632
REMARK INTRA:                  -0.438
REMARK UNBOUND:                -0.438
REMARK  Name = 
REMARK  8 active torsions:
REMARK  status: ('A' for Active; 'I' for Inactive)
REMARK    1  A    between atoms: C_1  and  C_2
REMARK    2  A    between atoms: C_2  and  C_3
REMARK    3  A    between atoms: C_7  and  C_8
REMARK    4  A    between atoms: C_8  and  C_9
REMARK    5  A    between atoms: C_9  and  N_10
REMARK    6  A    between atoms: C_14  and  C_15
REMARK    7  A    between atoms: N_24  and  C_25
REMARK    8  A    between atoms: C_25  and  C_26
REMARK                            x       y       z     vdW  Elec       q    Type
REMARK                         _______ _______ _______ _____ _____    ______ ____
ROOT
ATOM      1  C   UNL     1      46.730   6.662  12.918  0.00  0.00    +0.000 A 
ATOM      2  C   UNL     1      47.540   5.658  13.473  0.00  0.00    +0.000 A 
ATOM      3  C   UNL     1      47.058   4.357  13.649  0.00  0.00    +0.000 A 
ATOM      4  C   UNL     1      45.748   4.033  13.293  0.00  0.00    +0.000 A 
ATOM      5  C   UNL     1      44.910   5.003  12.736  0.00  0.00    +0.000 A 
ATOM      6  C   UNL     1      45.436   6.293  12.530  0.00  0.00    +0.000 A 
ENDROOT
BRANCH   1   8
ATOM      7  C   UNL     1      47.528   8.582  14.279  0.00  0.00    +0.000 C 
ATOM      8  C   UNL     1      47.214   8.127  12.830  0.00  0.00    +0.000 C 
ATOM      9  C   UNL     1      48.470   8.212  11.928  0.00  0.00    +0.000 C 
ATOM     10  C   UNL     1      48.932   9.652  11.709  0.00  0.00    +0.000 C 
ATOM     11  C   UNL     1      47.804  10.548  11.198  0.00  0.00    +0.000 C 
ATOM     12  N   UNL     1      46.644  10.502  12.098  0.00  0.00    +0.000 NA
ATOM     13  C   UNL     1      46.153   9.115  12.232  0.00  0.00    +0.000 C 
BRANCH  12  14
ATOM     14  C   UNL     1      45.544  11.393  11.630  0.00  0.00    +0.000 C 
BRANCH  14  15
ATOM     15  C   UNL     1      44.247  10.764  11.062  0.00  0.00    +0.000 C 
ATOM     16  F   UNL     1      43.655  11.513  10.109  0.00  0.00    +0.000 F 
ATOM     17  F   UNL     1      44.510   9.551  10.517  0.00  0.00    +0.000 F 
ATOM     18  F   UNL     1      43.335  10.573  12.044  0.00  0.00    +0.000 F 
ENDBRANCH  14  15
ENDBRANCH  12  14
ENDBRANCH   1   8
BRANCH   5  19
ATOM     19  C   UNL     1      43.456   4.668  12.428  0.00  0.00    +0.000 C 
BRANCH  19  20
ATOM     20  C   UNL     1      43.237   4.185  10.988  0.00  0.00    +0.000 C 
BRANCH  20  21
ATOM     21  N   UNL     1      43.992   4.935   9.979  0.00  0.00    +0.000 N 
ATOM     22  C   UNL     1      44.824   4.060   9.239  0.00  0.00    +0.000 A 
ATOM     23  C   UNL     1      45.648   4.561   8.221  0.00  0.00    +0.000 A 
ATOM     24  N   UNL     1      46.474   3.797   7.455  0.00  0.00    +0.000 NA
ATOM     25  C   UNL     1      46.436   2.465   7.742  0.00  0.00    +0.000 A 
ATOM     26  C   UNL     1      45.623   1.946   8.734  0.00  0.00    +0.000 A 
ATOM     27  N   UNL     1      44.811   2.729   9.486  0.00  0.00    +0.000 NA
ATOM     28  H   UNL     1      44.572   5.656  10.401  0.00  0.00    +0.000 HD
BRANCH  25  29
ATOM     29  C   UNL     1      47.304   1.545   6.962  0.00  0.00    +0.000 C 
ATOM     30  N   UNL     1      48.417   2.107   6.405  0.00  0.00    +0.000 N 
ATOM     31  O   UNL     1      47.043   0.357   6.824  0.00  0.00    +0.000 OA
ATOM     32  H   UNL     1      48.606   3.095   6.525  0.00  0.00    +0.000 HD
ATOM     33  H   UNL     1      49.042   1.532   5.855  0.00  0.00    +0.000 HD
ENDBRANCH  25  29
ENDBRANCH  20  21
ENDBRANCH  19  20
ENDBRANCH   5  19
TORSDOF 7
ENDMDL
MODEL 2
REMARK VINA RESULT:    -8.235      2.776      3.477
REMARK INTER + INTRA:         -12.044
REMARK INTER:                 -11.172
REMARK INTRA:                  -0.872
REMARK UNBOUND:                -0.438
REMARK  Name = 
REMARK  8 active torsions:
REMARK  status: ('A' for Active; 'I' for Inactive)
REMARK    1  A    between atoms: C_1  and  C_2
REMARK    2  A    between atoms: C_2  and  C_3
REMARK    3  A    between atoms: C_7  and  C_8
REMARK    4  A    between atoms: C_8  and  C_9
REMARK    5  A    between atoms: C_9  and  N_10
REMARK    6  A    between atoms: C_14  and  C_15
REMARK    7  A    between atoms: N_24  and  C_25
REMARK    8  A    between atoms: C_25  and  C_26
REMARK                            x       y       z     vdW  Elec       q    Type
REMARK                         _______ _______ _______ _____ _____    ______ ____
ROOT
ATOM      1  C   UNL     1      46.759   6.654  13.085  0.00  0.00    +0.000 A 
ATOM      2  C   UNL     1      47.418   5.526  13.599  0.00  0.00    +0.000 A 
ATOM      3  C   UNL     1      46.781   4.283  13.660  0.00  0.00    +0.000 A 
ATOM      4  C   UNL     1      45.463   4.140  13.224  0.00  0.00    +0.000 A 
ATOM      5  C   UNL     1      44.771   5.238  12.704  0.00  0.00    +0.000 A 
ATOM      6  C   UNL     1      45.452   6.467  12.615  0.00  0.00    +0.000 A 
ENDROOT
BRANCH   1   8
ATOM      7  C   UNL     1      46.325   9.067  12.682  0.00  0.00    +0.000 C 
ATOM      8  C   UNL     1      47.411   8.054  13.125  0.00  0.00    +0.000 C 
ATOM      9  C   UNL     1      47.916   8.358  14.557  0.00  0.00    +0.000 C 
ATOM     10  C   UNL     1      48.673   9.682  14.638  0.00  0.00    +0.000 C 
ATOM     11  C   UNL     1      49.801   9.765  13.609  0.00  0.00    +0.000 C 
ATOM     12  N   UNL     1      49.294   9.535  12.250  0.00  0.00    +0.000 NA
ATOM     13  C   UNL     1      48.641   8.213  12.164  0.00  0.00    +0.000 C 
BRANCH  12  14
ATOM     14  C   UNL     1      50.377   9.641  11.230  0.00  0.00    +0.000 C 
BRANCH  14  15
ATOM     15  C   UNL     1      51.448   8.525  11.142  0.00  0.00    +0.000 C 
ATOM     16  F   UNL     1      51.943   8.155  12.342  0.00  0.00    +0.000 F 
ATOM     17  F   UNL     1      50.929   7.417  10.559  0.00  0.00    +0.000 F 
ATOM     18  F   UNL     1      52.496   8.923  10.383  0.00  0.00    +0.000 F 
ENDBRANCH  14  15
ENDBRANCH  12  14
ENDBRANCH   1   8
BRANCH   5  19
ATOM     19  C   UNL     1      43.307   5.098  12.310  0.00  0.00    +0.000 C 
BRANCH  19  20
ATOM     20  C   UNL     1      43.107   4.414  10.950  0.00  0.00    +0.000 C 
BRANCH  20  21
ATOM     21  N   UNL     1      43.902   4.992   9.862  0.00  0.00    +0.000 N 
ATOM     22  C   UNL     1      44.700   3.994   9.254  0.00  0.00    +0.000 A 
ATOM     23  C   UNL     1      45.553   4.322   8.190  0.00  0.00    +0.000 A 
ATOM     24  N   UNL     1      46.350   3.429   7.541  0.00  0.00    +0.000 NA
ATOM     25  C   UNL     1      46.251   2.149   7.999  0.00  0.00    +0.000 A 
ATOM     26  C   UNL     1      45.409   1.800   9.039  0.00  0.00    +0.000 A 
ATOM     27  N   UNL     1      44.626   2.708   9.672  0.00  0.00    +0.000 NA
ATOM     28  H   UNL     1      44.510   5.737  10.194  0.00  0.00    +0.000 HD
BRANCH  25  29
ATOM     29  C   UNL     1      47.084   1.099   7.357  0.00  0.00    +0.000 C 
ATOM     30  N   UNL     1      46.758  -0.190   7.669  0.00  0.00    +0.000 N 
ATOM     31  O   UNL     1      48.003   1.366   6.595  0.00  0.00    +0.000 OA
ATOM     32  H   UNL     1      45.999  -0.386   8.310  0.00  0.00    +0.000 HD
ATOM     33  H   UNL     1      47.295  -0.949   7.268  0.00  0.00    +0.000 HD
ENDBRANCH  25  29
ENDBRANCH  20  21
ENDBRANCH  19  20
ENDBRANCH   5  19
TORSDOF 7
ENDMDL
MODEL 3
REMARK VINA RESULT:    -8.211      3.595      4.969
REMARK INTER + INTRA:         -12.010
REMARK INTER:                 -11.361
REMARK INTRA:                  -0.649
REMARK UNBOUND:                -0.438
REMARK  Name = 
REMARK  8 active torsions:
REMARK  status: ('A' for Active; 'I' for Inactive)
REMARK    1  A    between atoms: C_1  and  C_2
REMARK    2  A    between atoms: C_2  and  C_3
REMARK    3  A    between atoms: C_7  and  C_8
REMARK    4  A    between atoms: C_8  and  C_9
REMARK    5  A    between atoms: C_9  and  N_10
REMARK    6  A    between atoms: C_14  and  C_15
REMARK    7  A    between atoms: N_24  and  C_25
REMARK    8  A    between atoms: C_25  and  C_26
REMARK                            x       y       z     vdW  Elec       q    Type
REMARK                         _______ _______ _______ _____ _____    ______ ____
ROOT
ATOM      1  C   UNL     1      46.562   7.185  13.144  0.00  0.00    +0.000 A 
ATOM      2  C   UNL     1      46.363   8.404  12.476  0.00  0.00    +0.000 A 
ATOM      3  C   UNL     1      45.218   8.625  11.704  0.00  0.00    +0.000 A 
ATOM      4  C   UNL     1      44.254   7.627  11.564  0.00  0.00    +0.000 A 
ATOM      5  C   UNL     1      44.414   6.399  12.212  0.00  0.00    +0.000 A 
ATOM      6  C   UNL     1      45.554   6.220  13.018  0.00  0.00    +0.000 A 
ENDROOT
BRANCH   1   8
ATOM      7  C   UNL     1      48.859   6.278  12.868  0.00  0.00    +0.000 C 
ATOM      8  C   UNL     1      47.876   6.889  13.900  0.00  0.00    +0.000 C 
ATOM      9  C   UNL     1      48.439   8.197  14.508  0.00  0.00    +0.000 C 
ATOM     10  C   UNL     1      49.680   7.954  15.365  0.00  0.00    +0.000 C 
ATOM     11  C   UNL     1      49.442   6.888  16.435  0.00  0.00    +0.000 C 
ATOM     12  N   UNL     1      48.966   5.634  15.835  0.00  0.00    +0.000 NA
ATOM     13  C   UNL     1      47.718   5.868  15.080  0.00  0.00    +0.000 C 
BRANCH  12  14
ATOM     14  C   UNL     1      48.756   4.574  16.862  0.00  0.00    +0.000 C 
BRANCH  14  15
ATOM     15  C   UNL     1      47.882   3.343  16.513  0.00  0.00    +0.000 C 
ATOM     16  F   UNL     1      48.426   2.169  16.895  0.00  0.00    +0.000 F 
ATOM     17  F   UNL     1      46.670   3.440  17.110  0.00  0.00    +0.000 F 
ATOM     18  F   UNL     1      47.667   3.268  15.178  0.00  0.00    +0.000 F 
ENDBRANCH  14  15
ENDBRANCH  12  14
ENDBRANCH   1   8
BRANCH   5  19
ATOM     19  C   UNL     1      43.403   5.281  11.988  0.00  0.00    +0.000 C 
BRANCH  19  20
ATOM     20  C   UNL     1      43.435   4.711  10.564  0.00  0.00    +0.000 C 
BRANCH  20  21
ATOM     21  N   UNL     1      43.805   3.294  10.489  0.00  0.00    +0.000 N 
ATOM     22  C   UNL     1      44.727   3.083   9.436  0.00  0.00    +0.000 A 
ATOM     23  C   UNL     1      45.215   1.795   9.172  0.00  0.00    +0.000 A 
ATOM     24  N   UNL     1      46.107   1.498   8.187  0.00  0.00    +0.000 NA
ATOM     25  C   UNL     1      46.520   2.574   7.459  0.00  0.00    +0.000 A 
ATOM     26  C   UNL     1      46.062   3.855   7.709  0.00  0.00    +0.000 A 
ATOM     27  N   UNL     1      45.170   4.125   8.694  0.00  0.00    +0.000 NA
ATOM     28  H   UNL     1      42.993   2.700  10.335  0.00  0.00    +0.000 HD
BRANCH  25  29
ATOM     29  C   UNL     1      47.494   2.355   6.358  0.00  0.00    +0.000 C 
ATOM     30  N   UNL     1      47.363   3.179   5.277  0.00  0.00    +0.000 N 
ATOM     31  O   UNL     1      48.361   1.493   6.412  0.00  0.00    +0.000 OA
ATOM     32  H   UNL     1      46.631   3.878   5.252  0.00  0.00    +0.000 HD
ATOM     33  H   UNL     1      47.993   3.072   4.491  0.00  0.00    +0.000 HD
ENDBRANCH  25  29
ENDBRANCH  20  21
ENDBRANCH  19  20
ENDBRANCH   5  19
TORSDOF 7
ENDMDL
MODEL 4
REMARK VINA RESULT:    -8.057      5.228      7.948
REMARK INTER + INTRA:         -11.792
REMARK INTER:                 -11.119
REMARK INTRA:                  -0.673
REMARK UNBOUND:                -0.438
REMARK  Name = 
REMARK  8 active torsions:
REMARK  status: ('A' for Active; 'I' for Inactive)
REMARK    1  A    between atoms: C_1  and  C_2
REMARK    2  A    between atoms: C_2  and  C_3
REMARK    3  A    between atoms: C_7  and  C_8
REMARK    4  A    between atoms: C_8  and  C_9
REMARK    5  A    between atoms: C_9  and  N_10
REMARK    6  A    between atoms: C_14  and  C_15
REMARK    7  A    between atoms: N_24  and  C_25
REMARK    8  A    between atoms: C_25  and  C_26
REMARK                            x       y       z     vdW  Elec       q    Type
REMARK                         _______ _______ _______ _____ _____    ______ ____
ROOT
ATOM      1  C   UNL     1      46.379   6.547  12.893  0.00  0.00    +0.000 A 
ATOM      2  C   UNL     1      46.004   7.874  12.625  0.00  0.00    +0.000 A 
ATOM      3  C   UNL     1      46.714   8.948  13.170  0.00  0.00    +0.000 A 
ATOM      4  C   UNL     1      47.804   8.723  14.011  0.00  0.00    +0.000 A 
ATOM      5  C   UNL     1      48.211   7.418  14.302  0.00  0.00    +0.000 A 
ATOM      6  C   UNL     1      47.504   6.356  13.705  0.00  0.00    +0.000 A 
ENDROOT
BRANCH   1   8
ATOM      7  C   UNL     1      46.283   4.066  12.806  0.00  0.00    +0.000 C 
ATOM      8  C   UNL     1      45.530   5.356  12.393  0.00  0.00    +0.000 C 
ATOM      9  C   UNL     1      44.119   5.414  13.028  0.00  0.00    +0.000 C 
ATOM     10  C   UNL     1      43.193   4.326  12.487  0.00  0.00    +0.000 C 
ATOM     11  C   UNL     1      43.129   4.331  10.959  0.00  0.00    +0.000 C 
ATOM     12  N   UNL     1      44.471   4.215  10.373  0.00  0.00    +0.000 NA
ATOM     13  C   UNL     1      45.331   5.323  10.838  0.00  0.00    +0.000 C 
BRANCH  12  14
ATOM     14  C   UNL     1      44.425   4.190   8.883  0.00  0.00    +0.000 C 
BRANCH  14  15
ATOM     15  C   UNL     1      45.636   3.630   8.096  0.00  0.00    +0.000 C 
ATOM     16  F   UNL     1      45.336   3.262   6.832  0.00  0.00    +0.000 F 
ATOM     17  F   UNL     1      46.622   4.556   8.023  0.00  0.00    +0.000 F 
ATOM     18  F   UNL     1      46.152   2.543   8.717  0.00  0.00    +0.000 F 
ENDBRANCH  14  15
ENDBRANCH  12  14
ENDBRANCH   1   8
BRANCH   5  19
ATOM     19  C   UNL     1      49.347   7.175  15.288  0.00  0.00    +0.000 C 
BRANCH  19  20
ATOM     20  C   UNL     1      48.859   6.808  16.697  0.00  0.00    +0.000 C 
BRANCH  20  21
ATOM     21  N   UNL     1      48.245   5.480  16.795  0.00  0.00    +0.000 N 
ATOM     22  C   UNL     1      49.238   4.497  17.023  0.00  0.00    +0.000 A 
ATOM     23  C   UNL     1      48.881   3.146  17.144  0.00  0.00    +0.000 A 
ATOM     24  N   UNL     1      49.764   2.135  17.369  0.00  0.00    +0.000 NA
ATOM     25  C   UNL     1      51.061   2.536  17.490  0.00  0.00    +0.000 A 
ATOM     26  C   UNL     1      51.436   3.863  17.387  0.00  0.00    +0.000 A 
ATOM     27  N   UNL     1      50.537   4.853  17.158  0.00  0.00    +0.000 NA
ATOM     28  H   UNL     1      47.735   5.236  15.950  0.00  0.00    +0.000 HD
BRANCH  25  29
ATOM     29  C   UNL     1      52.103   1.506  17.737  0.00  0.00    +0.000 C 
ATOM     30  N   UNL     1      51.645   0.273  18.105  0.00  0.00    +0.000 N 
ATOM     31  O   UNL     1      53.298   1.741  17.617  0.00  0.00    +0.000 OA
ATOM     32  H   UNL     1      50.651   0.105  18.206  0.00  0.00    +0.000 HD
ATOM     33  H   UNL     1      52.309  -0.467  18.294  0.00  0.00    +0.000 HD
ENDBRANCH  25  29
ENDBRANCH  20  21
ENDBRANCH  19  20
ENDBRANCH   5  19
TORSDOF 7
ENDMDL
MODEL 5
REMARK VINA RESULT:    -8.048      4.437      7.766
REMARK INTER + INTRA:         -11.779
REMARK INTER:                 -10.706
REMARK INTRA:                  -1.073
REMARK UNBOUND:                -0.438
REMARK  Name = 
REMARK  8 active torsions:
REMARK  status: ('A' for Active; 'I' for Inactive)
REMARK    1  A    between atoms: C_1  and  C_2
REMARK    2  A    between atoms: C_2  and  C_3
REMARK    3  A    between atoms: C_7  and  C_8
REMARK    4  A    between atoms: C_8  and  C_9
REMARK    5  A    between atoms: C_9  and  N_10
REMARK    6  A    between atoms: C_14  and  C_15
REMARK    7  A    between atoms: N_24  and  C_25
REMARK    8  A    between atoms: C_25  and  C_26
REMARK                            x       y       z     vdW  Elec       q    Type
REMARK                         _______ _______ _______ _____ _____    ______ ____
ROOT
ATOM      1  C   UNL     1      45.883   7.360  12.127  0.00  0.00    +0.000 A 
ATOM      2  C   UNL     1      45.065   8.456  11.809  0.00  0.00    +0.000 A 
ATOM      3  C   UNL     1      45.517   9.768  11.983  0.00  0.00    +0.000 A 
ATOM      4  C   UNL     1      46.791  10.016  12.495  0.00  0.00    +0.000 A 
ATOM      5  C   UNL     1      47.637   8.952  12.823  0.00  0.00    +0.000 A 
ATOM      6  C   UNL     1      47.172   7.643  12.597  0.00  0.00    +0.000 A 
ENDROOT
BRANCH   1   8
ATOM      7  C   UNL     1      46.464   4.994  12.619  0.00  0.00    +0.000 C 
ATOM      8  C   UNL     1      45.350   5.911  12.052  0.00  0.00    +0.000 C 
ATOM      9  C   UNL     1      44.044   5.788  12.875  0.00  0.00    +0.000 C 
ATOM     10  C   UNL     1      43.404   4.407  12.750  0.00  0.00    +0.000 C 
ATOM     11  C   UNL     1      43.195   3.999  11.291  0.00  0.00    +0.000 C 
ATOM     12  N   UNL     1      44.456   4.063  10.538  0.00  0.00    +0.000 NA
ATOM     13  C   UNL     1      45.019   5.427  10.597  0.00  0.00    +0.000 C 
BRANCH  12  14
ATOM     14  C   UNL     1      44.276   3.641   9.120  0.00  0.00    +0.000 C 
BRANCH  14  15
ATOM     15  C   UNL     1      45.524   3.373   8.243  0.00  0.00    +0.000 C 
ATOM     16  F   UNL     1      46.435   4.368   8.281  0.00  0.00    +0.000 F 
ATOM     17  F   UNL     1      46.148   2.239   8.643  0.00  0.00    +0.000 F 
ATOM     18  F   UNL     1      45.174   3.201   6.946  0.00  0.00    +0.000 F 
ENDBRANCH  14  15
ENDBRANCH  12  14
ENDBRANCH   1   8
BRANCH   5  19
ATOM     19  C   UNL     1      48.993   9.226  13.461  0.00  0.00    +0.000 C 
BRANCH  19  20
ATOM     20  C   UNL     1      49.711   7.953  13.929  0.00  0.00    +0.000 C 
BRANCH  20  21
ATOM     21  N   UNL     1      50.010   7.921  15.364  0.00  0.00    +0.000 N 
ATOM     22  C   UNL     1      49.382   6.808  15.972  0.00  0.00    +0.000 A 
ATOM     23  C   UNL     1      49.523   6.582  17.348  0.00  0.00    +0.000 A 
ATOM     24  N   UNL     1      48.961   5.536  18.017  0.00  0.00    +0.000 NA
ATOM     25  C   UNL     1      48.242   4.687  17.230  0.00  0.00    +0.000 A 
ATOM     26  C   UNL     1      48.098   4.883  15.869  0.00  0.00    +0.000 A 
ATOM     27  N   UNL     1      48.664   5.935  15.226  0.00  0.00    +0.000 NA
ATOM     28  H   UNL     1      49.697   8.768  15.833  0.00  0.00    +0.000 HD
BRANCH  25  29
ATOM     29  C   UNL     1      47.587   3.514  17.866  0.00  0.00    +0.000 C 
ATOM     30  N   UNL     1      48.188   3.038  18.997  0.00  0.00    +0.000 N 
ATOM     31  O   UNL     1      46.573   3.003  17.410  0.00  0.00    +0.000 OA
ATOM     32  H   UNL     1      49.032   3.472  19.349  0.00  0.00    +0.000 HD
ATOM     33  H   UNL     1      47.792   2.235  19.469  0.00  0.00    +0.000 HD
ENDBRANCH  25  29
ENDBRANCH  20  21
ENDBRANCH  19  20
ENDBRANCH   5  19
TORSDOF 7
ENDMDL
MODEL 6
REMARK VINA RESULT:    -8.024      3.275      3.979
REMARK INTER + INTRA:         -11.746
REMARK INTER:                 -10.592
REMARK INTRA:                  -1.154
REMARK UNBOUND:                -0.438
REMARK  Name = 
REMARK  8 active torsions:
REMARK  status: ('A' for Active; 'I' for Inactive)
REMARK    1  A    between atoms: C_1  and  C_2
REMARK    2  A    between atoms: C_2  and  C_3
REMARK    3  A    between atoms: C_7  and  C_8
REMARK    4  A    between atoms: C_8  and  C_9
REMARK    5  A    between atoms: C_9  and  N_10
REMARK    6  A    between atoms: C_14  and  C_15
REMARK    7  A    between atoms: N_24  and  C_25
REMARK    8  A    between atoms: C_25  and  C_26
REMARK                            x       y       z     vdW  Elec       q    Type
REMARK                         _______ _______ _______ _____ _____    ______ ____
ROOT
ATOM      1  C   UNL     1      47.155   6.707  12.793  0.00  0.00    +0.000 A 
ATOM      2  C   UNL     1      47.557   5.684  13.667  0.00  0.00    +0.000 A 
ATOM      3  C   UNL     1      46.703   4.620  13.973  0.00  0.00    +0.000 A 
ATOM      4  C   UNL     1      45.420   4.562  13.428  0.00  0.00    +0.000 A 
ATOM      5  C   UNL     1      44.981   5.560  12.552  0.00  0.00    +0.000 A 
ATOM      6  C   UNL     1      45.878   6.596  12.229  0.00  0.00    +0.000 A 
ENDROOT
BRANCH   1   8
ATOM      7  C   UNL     1      49.024   7.570  11.401  0.00  0.00    +0.000 C 
ATOM      8  C   UNL     1      48.045   7.945  12.543  0.00  0.00    +0.000 C 
ATOM      9  C   UNL     1      47.163   9.157  12.155  0.00  0.00    +0.000 C 
ATOM     10  C   UNL     1      47.974  10.443  12.004  0.00  0.00    +0.000 C 
ATOM     11  C   UNL     1      48.826  10.735  13.239  0.00  0.00    +0.000 C 
ATOM     12  N   UNL     1      49.701   9.599  13.558  0.00  0.00    +0.000 NA
ATOM     13  C   UNL     1      48.897   8.381  13.787  0.00  0.00    +0.000 C 
BRANCH  12  14
ATOM     14  C   UNL     1      50.560   9.878  14.744  0.00  0.00    +0.000 C 
BRANCH  14  15
ATOM     15  C   UNL     1      51.839   9.033  14.971  0.00  0.00    +0.000 C 
ATOM     16  F   UNL     1      52.291   8.427  13.853  0.00  0.00    +0.000 F 
ATOM     17  F   UNL     1      52.842   9.812  15.444  0.00  0.00    +0.000 F 
ATOM     18  F   UNL     1      51.618   8.063  15.890  0.00  0.00    +0.000 F 
ENDBRANCH  14  15
ENDBRANCH  12  14
ENDBRANCH   1   8
BRANCH   5  19
ATOM     19  C   UNL     1      43.552   5.539  12.027  0.00  0.00    +0.000 C 
BRANCH  19  20
ATOM     20  C   UNL     1      43.432   4.945  10.617  0.00  0.00    +0.000 C 
BRANCH  20  21
ATOM     21  N   UNL     1      43.714   3.508  10.542  0.00  0.00    +0.000 N 
ATOM     22  C   UNL     1      44.650   3.245   9.512  0.00  0.00    +0.000 A 
ATOM     23  C   UNL     1      45.063   1.930   9.252  0.00  0.00    +0.000 A 
ATOM     24  N   UNL     1      45.961   1.584   8.289  0.00  0.00    +0.000 NA
ATOM     25  C   UNL     1      46.461   2.635   7.581  0.00  0.00    +0.000 A 
ATOM     26  C   UNL     1      46.078   3.941   7.828  0.00  0.00    +0.000 A 
ATOM     27  N   UNL     1      45.178   4.261   8.790  0.00  0.00    +0.000 NA
ATOM     28  H   UNL     1      42.871   2.968  10.361  0.00  0.00    +0.000 HD
BRANCH  25  29
ATOM     29  C   UNL     1      47.449   2.361   6.505  0.00  0.00    +0.000 C 
ATOM     30  N   UNL     1      47.381   3.180   5.414  0.00  0.00    +0.000 N 
ATOM     31  O   UNL     1      48.274   1.461   6.587  0.00  0.00    +0.000 OA
ATOM     32  H   UNL     1      46.683   3.912   5.366  0.00  0.00    +0.000 HD
ATOM     33  H   UNL     1      48.023   3.036   4.645  0.00  0.00    +0.000 HD
ENDBRANCH  25  29
ENDBRANCH  20  21
ENDBRANCH  19  20
ENDBRANCH   5  19
TORSDOF 7
ENDMDL
MODEL 7
REMARK VINA RESULT:    -7.187      4.865      6.952
REMARK INTER + INTRA:         -10.567
REMARK INTER:                  -9.861
REMARK INTRA:                  -0.706
REMARK UNBOUND:                -0.438
REMARK  Name = 
REMARK  8 active torsions:
REMARK  status: ('A' for Active; 'I' for Inactive)
REMARK    1  A    between atoms: C_1  and  C_2
REMARK    2  A    between atoms: C_2  and  C_3
REMARK    3  A    between atoms: C_7  and  C_8
REMARK    4  A    between atoms: C_8  and  C_9
REMARK    5  A    between atoms: C_9  and  N_10
REMARK    6  A    between atoms: C_14  and  C_15
REMARK    7  A    between atoms: N_24  and  C_25
REMARK    8  A    between atoms: C_25  and  C_26
REMARK                            x       y       z     vdW  Elec       q    Type
REMARK                         _______ _______ _______ _____ _____    ______ ____
ROOT
ATOM      1  C   UNL     1      50.638   7.380  15.460  0.00  0.00    +0.000 A 
ATOM      2  C   UNL     1      51.867   7.983  15.147  0.00  0.00    +0.000 A 
ATOM      3  C   UNL     1      52.103   8.523  13.879  0.00  0.00    +0.000 A 
ATOM      4  C   UNL     1      51.123   8.458  12.888  0.00  0.00    +0.000 A 
ATOM      5  C   UNL     1      49.886   7.868  13.159  0.00  0.00    +0.000 A 
ATOM      6  C   UNL     1      49.660   7.371  14.457  0.00  0.00    +0.000 A 
ENDROOT
BRANCH   1   8
ATOM      7  C   UNL     1      51.574   5.666  16.997  0.00  0.00    +0.000 C 
ATOM      8  C   UNL     1      50.411   6.676  16.817  0.00  0.00    +0.000 C 
ATOM      9  C   UNL     1      50.393   7.724  17.957  0.00  0.00    +0.000 C 
ATOM     10  C   UNL     1      50.060   7.103  19.312  0.00  0.00    +0.000 C 
ATOM     11  C   UNL     1      48.768   6.287  19.271  0.00  0.00    +0.000 C 
ATOM     12  N   UNL     1      48.826   5.257  18.225  0.00  0.00    +0.000 NA
ATOM     13  C   UNL     1      49.062   5.880  16.906  0.00  0.00    +0.000 C 
BRANCH  12  14
ATOM     14  C   UNL     1      47.584   4.433  18.189  0.00  0.00    +0.000 C 
BRANCH  14  15
ATOM     15  C   UNL     1      47.559   3.136  17.343  0.00  0.00    +0.000 C 
ATOM     16  F   UNL     1      48.751   2.506  17.283  0.00  0.00    +0.000 F 
ATOM     17  F   UNL     1      46.662   2.257  17.852  0.00  0.00    +0.000 F 
ATOM     18  F   UNL     1      47.182   3.399  16.069  0.00  0.00    +0.000 F 
ENDBRANCH  14  15
ENDBRANCH  12  14
ENDBRANCH   1   8
BRANCH   5  19
ATOM     19  C   UNL     1      48.851   7.722  12.050  0.00  0.00    +0.000 C 
BRANCH  19  20
ATOM     20  C   UNL     1      47.412   7.959  12.528  0.00  0.00    +0.000 C 
BRANCH  20  21
ATOM     21  N   UNL     1      46.938   6.987  13.518  0.00  0.00    +0.000 N 
ATOM     22  C   UNL     1      46.181   5.972  12.885  0.00  0.00    +0.000 A 
ATOM     23  C   UNL     1      45.618   4.935  13.642  0.00  0.00    +0.000 A 
ATOM     24  N   UNL     1      44.882   3.914  13.120  0.00  0.00    +0.000 NA
ATOM     25  C   UNL     1      44.738   3.961  11.766  0.00  0.00    +0.000 A 
ATOM     26  C   UNL     1      45.294   4.967  10.997  0.00  0.00    +0.000 A 
ATOM     27  N   UNL     1      46.020   5.975  11.541  0.00  0.00    +0.000 NA
ATOM     28  H   UNL     1      46.360   7.426  14.231  0.00  0.00    +0.000 HD
BRANCH  25  29
ATOM     29  C   UNL     1      43.949   2.891  11.098  0.00  0.00    +0.000 C 
ATOM     30  N   UNL     1      44.490   2.383   9.952  0.00  0.00    +0.000 N 
ATOM     31  O   UNL     1      42.884   2.488  11.544  0.00  0.00    +0.000 OA
ATOM     32  H   UNL     1      45.369   2.740   9.597  0.00  0.00    +0.000 HD
ATOM     33  H   UNL     1      43.995   1.658   9.448  0.00  0.00    +0.000 HD
ENDBRANCH  25  29
ENDBRANCH  20  21
ENDBRANCH  19  20
ENDBRANCH   5  19
TORSDOF 7
ENDMDL
MODEL 8
REMARK VINA RESULT:    -7.171      2.412      3.719
REMARK INTER + INTRA:         -10.544
REMARK INTER:                  -9.565
REMARK INTRA:                  -0.979
REMARK UNBOUND:                -0.438
REMARK  Name = 
REMARK  8 active torsions:
REMARK  status: ('A' for Active; 'I' for Inactive)
REMARK    1  A    between atoms: C_1  and  C_2
REMARK    2  A    between atoms: C_2  and  C_3
REMARK    3  A    between atoms: C_7  and  C_8
REMARK    4  A    between atoms: C_8  and  C_9
REMARK    5  A    between atoms: C_9  and  N_10
REMARK    6  A    between atoms: C_14  and  C_15
REMARK    7  A    between atoms: N_24  and  C_25
REMARK    8  A    between atoms: C_25  and  C_26
REMARK                            x       y       z     vdW  Elec       q    Type
REMARK                         _______ _______ _______ _____ _____    ______ ____
ROOT
ATOM      1  C   UNL     1      44.773   8.996  11.326  0.00  0.00    +0.000 A 
ATOM      2  C   UNL     1      46.032   9.119  11.936  0.00  0.00    +0.000 A 
ATOM      3  C   UNL     1      46.615   8.042  12.611  0.00  0.00    +0.000 A 
ATOM      4  C   UNL     1      45.947   6.822  12.708  0.00  0.00    +0.000 A 
ATOM      5  C   UNL     1      44.692   6.657  12.114  0.00  0.00    +0.000 A 
ATOM      6  C   UNL     1      44.149   7.745  11.405  0.00  0.00    +0.000 A 
ENDROOT
BRANCH   1   8
ATOM      7  C   UNL     1      44.419  11.445  11.557  0.00  0.00    +0.000 C 
ATOM      8  C   UNL     1      44.070  10.213  10.683  0.00  0.00    +0.000 C 
ATOM      9  C   UNL     1      44.563  10.396   9.227  0.00  0.00    +0.000 C 
ATOM     10  C   UNL     1      43.823  11.516   8.498  0.00  0.00    +0.000 C 
ATOM     11  C   UNL     1      42.305  11.341   8.566  0.00  0.00    +0.000 C 
ATOM     12  N   UNL     1      41.847  11.230   9.957  0.00  0.00    +0.000 NA
ATOM     13  C   UNL     1      42.508  10.090  10.624  0.00  0.00    +0.000 C 
BRANCH  12  14
ATOM     14  C   UNL     1      40.365  11.088  10.042  0.00  0.00    +0.000 C 
BRANCH  14  15
ATOM     15  C   UNL     1      39.699  10.904  11.429  0.00  0.00    +0.000 C 
ATOM     16  F   UNL     1      39.527   9.612  11.779  0.00  0.00    +0.000 F 
ATOM     17  F   UNL     1      40.449  11.488  12.394  0.00  0.00    +0.000 F 
ATOM     18  F   UNL     1      38.480  11.492  11.458  0.00  0.00    +0.000 F 
ENDBRANCH  14  15
ENDBRANCH  12  14
ENDBRANCH   1   8
BRANCH   5  19
ATOM     19  C   UNL     1      43.928   5.352  12.296  0.00  0.00    +0.000 C 
BRANCH  19  20
ATOM     20  C   UNL     1      43.348   4.801  10.986  0.00  0.00    +0.000 C 
BRANCH  20  21
ATOM     21  N   UNL     1      43.611   3.375  10.763  0.00  0.00    +0.000 N 
ATOM     22  C   UNL     1      44.505   3.206   9.678  0.00  0.00    +0.000 A 
ATOM     23  C   UNL     1      44.894   1.920   9.277  0.00  0.00    +0.000 A 
ATOM     24  N   UNL     1      45.752   1.661   8.252  0.00  0.00    +0.000 NA
ATOM     25  C   UNL     1      46.236   2.772   7.629  0.00  0.00    +0.000 A 
ATOM     26  C   UNL     1      45.876   4.051   8.014  0.00  0.00    +0.000 A 
ATOM     27  N   UNL     1      45.017   4.283   9.037  0.00  0.00    +0.000 NA
ATOM     28  H   UNL     1      42.757   2.861  10.563  0.00  0.00    +0.000 HD
BRANCH  25  29
ATOM     29  C   UNL     1      47.180   2.595   6.494  0.00  0.00    +0.000 C 
ATOM     30  N   UNL     1      48.249   1.779   6.732  0.00  0.00    +0.000 N 
ATOM     31  O   UNL     1      47.014   3.144   5.413  0.00  0.00    +0.000 OA
ATOM     32  H   UNL     1      48.369   1.344   7.639  0.00  0.00    +0.000 HD
ATOM     33  H   UNL     1      48.931   1.627   5.999  0.00  0.00    +0.000 HD
ENDBRANCH  25  29
ENDBRANCH  20  21
ENDBRANCH  19  20
ENDBRANCH   5  19
TORSDOF 7
ENDMDL
MODEL 9
REMARK VINA RESULT:    -6.642      4.905      7.813
REMARK INTER + INTRA:          -9.799
REMARK INTER:                  -8.457
REMARK INTRA:                  -1.342
REMARK UNBOUND:                -0.438
REMARK  Name = 
REMARK  8 active torsions:
REMARK  status: ('A' for Active; 'I' for Inactive)
REMARK    1  A    between atoms: C_1  and  C_2
REMARK    2  A    between atoms: C_2  and  C_3
REMARK    3  A    between atoms: C_7  and  C_8
REMARK    4  A    between atoms: C_8  and  C_9
REMARK    5  A    between atoms: C_9  and  N_10
REMARK    6  A    between atoms: C_14  and  C_15
REMARK    7  A    between atoms: N_24  and  C_25
REMARK    8  A    between atoms: C_25  and  C_26
REMARK                            x       y       z     vdW  Elec       q    Type
REMARK                         _______ _______ _______ _____ _____    ______ ____
ROOT
ATOM      1  C   UNL     1      48.338   8.141  14.475  0.00  0.00    +0.000 A 
ATOM      2  C   UNL     1      48.589   9.323  13.760  0.00  0.00    +0.000 A 
ATOM      3  C   UNL     1      48.982  10.493  14.417  0.00  0.00    +0.000 A 
ATOM      4  C   UNL     1      49.116  10.516  15.805  0.00  0.00    +0.000 A 
ATOM      5  C   UNL     1      48.877   9.360  16.554  0.00  0.00    +0.000 A 
ATOM      6  C   UNL     1      48.525   8.185  15.863  0.00  0.00    +0.000 A 
ENDROOT
BRANCH   1   8
ATOM      7  C   UNL     1      48.697   6.621  12.542  0.00  0.00    +0.000 C 
ATOM      8  C   UNL     1      47.789   6.878  13.773  0.00  0.00    +0.000 C 
ATOM      9  C   UNL     1      47.813   5.679  14.753  0.00  0.00    +0.000 C 
ATOM     10  C   UNL     1      47.178   4.426  14.154  0.00  0.00    +0.000 C 
ATOM     11  C   UNL     1      45.771   4.693  13.618  0.00  0.00    +0.000 C 
ATOM     12  N   UNL     1      45.776   5.793  12.644  0.00  0.00    +0.000 NA
ATOM     13  C   UNL     1      46.313   7.022  13.263  0.00  0.00    +0.000 C 
BRANCH  12  14
ATOM     14  C   UNL     1      44.415   6.048  12.091  0.00  0.00    +0.000 C 
BRANCH  14  15
ATOM     15  C   UNL     1      43.723   4.951  11.244  0.00  0.00    +0.000 C 
ATOM     16  F   UNL     1      44.587   4.113  10.635  0.00  0.00    +0.000 F 
ATOM     17  F   UNL     1      42.908   4.198  12.022  0.00  0.00    +0.000 F 
ATOM     18  F   UNL     1      42.953   5.505  10.277  0.00  0.00    +0.000 F 
ENDBRANCH  14  15
ENDBRANCH  12  14
ENDBRANCH   1   8
BRANCH   5  19
ATOM     19  C   UNL     1      48.941   9.411  18.076  0.00  0.00    +0.000 C 
BRANCH  19  20
ATOM     20  C   UNL     1      49.639   8.192  18.694  0.00  0.00    +0.000 C 
BRANCH  20  21
ATOM     21  N   UNL     1      48.724   7.154  19.180  0.00  0.00    +0.000 N 
ATOM     22  C   UNL     1      49.052   5.903  18.605  0.00  0.00    +0.000 A 
ATOM     23  C   UNL     1      48.300   4.762  18.921  0.00  0.00    +0.000 A 
ATOM     24  N   UNL     1      48.545   3.519  18.423  0.00  0.00    +0.000 NA
ATOM     25  C   UNL     1      49.614   3.451  17.580  0.00  0.00    +0.000 A 
ATOM     26  C   UNL     1      50.377   4.560  17.263  0.00  0.00    +0.000 A 
ATOM     27  N   UNL     1      50.111   5.789  17.769  0.00  0.00    +0.000 NA
ATOM     28  H   UNL     1      47.755   7.372  18.957  0.00  0.00    +0.000 HD
BRANCH  25  29
ATOM     29  C   UNL     1      49.964   2.136  16.981  0.00  0.00    +0.000 C 
ATOM     30  N   UNL     1      50.856   1.380  17.687  0.00  0.00    +0.000 N 
ATOM     31  O   UNL     1      49.485   1.750  15.923  0.00  0.00    +0.000 OA
ATOM     32  H   UNL     1      51.246   1.726  18.555  0.00  0.00    +0.000 HD
ATOM     33  H   UNL     1      51.139   0.478  17.324  0.00  0.00    +0.000 HD
ENDBRANCH  25  29
ENDBRANCH  20  21
ENDBRANCH  19  20
ENDBRANCH   5  19
TORSDOF 7
ENDMDL
