MODEL 1
REMARK VINA RESULT:    -7.850      0.000      0.000
REMARK INTER + INTRA:         -11.739
REMARK INTER:                 -10.603
REMARK INTRA:                  -1.136
REMARK UNBOUND:                -1.136
REMARK  Name = 
REMARK  7 active torsions:
REMARK  status: ('A' for Active; 'I' for Inactive)
REMARK    1  A    between atoms: C_1  and  C_2
REMARK    2  A    between atoms: C_2  and  N_3
REMARK    3  A    between atoms: C_2  and  C_16
REMARK    4  A    between atoms: C_4  and  C_6
REMARK    5  A    between atoms: C_19  and  C_20
REMARK    6  A    between atoms: C_20  and  N_21
REMARK    7  A    between atoms: C_22  and  C_24
REMARK                            x       y       z     vdW  Elec       q    Type
REMARK                         _______ _______ _______ _____ _____    ______ ____
ROOT
ATOM      1  C   UNL     1      47.511   3.726  15.952  0.00  0.00    +0.000 C 
ATOM      2  C   UNL     1      47.674   4.839  14.911  0.00  0.00    +0.000 C 
ENDROOT
BRANCH   2   3
ATOM      3  C   UNL     1      46.640   4.786  13.804  0.00  0.00    +0.000 A 
ATOM      4  C   UNL     1      46.109   5.969  13.279  0.00  0.00    +0.000 A 
ATOM      5  C   UNL     1      45.218   5.923  12.205  0.00  0.00    +0.000 A 
ATOM      6  C   UNL     1      44.868   4.687  11.670  0.00  0.00    +0.000 A 
ATOM      7  N   UNL     1      45.315   3.521  12.201  0.00  0.00    +0.000 NA
ATOM      8  C   UNL     1      46.175   3.599  13.247  0.00  0.00    +0.000 A 
BRANCH   6   9
ATOM      9  C   UNL     1      44.003   4.608  10.433  0.00  0.00    +0.000 C 
BRANCH   9  10
ATOM     10  N   UNL     1      44.564   3.792   9.385  0.00  0.00    +0.000 N 
ATOM     11  C   UNL     1      45.566   4.221   8.547  0.00  0.00    +0.000 C 
ATOM     12  O   UNL     1      46.074   5.335   8.612  0.00  0.00    +0.000 OA
ATOM     13  H   UNL     1      44.088   2.940   9.102  0.00  0.00    +0.000 HD
BRANCH  11  14
ATOM     14  C   UNL     1      46.029   3.158   7.537  0.00  0.00    +0.000 C 
ATOM     15  C   UNL     1      46.227   1.797   8.171  0.00  0.00    +0.000 C 
ATOM     16  C   UNL     1      47.132   1.093   7.180  0.00  0.00    +0.000 C 
ATOM     17  C   UNL     1      47.962   2.203   6.552  0.00  0.00    +0.000 C 
ATOM     18  N   UNL     1      47.370   3.475   6.976  0.00  0.00    +0.000 NA
ATOM     19  H   UNL     1      47.259   4.098   6.176  0.00  0.00    +0.000 HD
ENDBRANCH  11  14
ENDBRANCH   9  10
ENDBRANCH   6   9
ENDBRANCH   2   3
BRANCH   2  20
ATOM     20  N   UNL     1      47.695   6.150  15.537  0.00  0.00    +0.000 N 
ATOM     21  C   UNL     1      48.875   6.791  15.835  0.00  0.00    +0.000 C 
ATOM     22  O   UNL     1      49.970   6.287  15.592  0.00  0.00    +0.000 OA
ATOM     23  H   UNL     1      46.825   6.506  15.923  0.00  0.00    +0.000 HD
BRANCH  21  24
ATOM     24  C   UNL     1      48.776   8.145  16.397  0.00  0.00    +0.000 A 
ATOM     25  C   UNL     1      49.246   9.227  15.664  0.00  0.00    +0.000 A 
ATOM     26  S   UNL     1      49.049  10.727  16.449  0.00  0.00    +0.000 S 
ATOM     27  C   UNL     1      48.374   9.979  17.820  0.00  0.00    +0.000 A 
ATOM     28  N   UNL     1      48.018  10.712  18.910  0.00  0.00    +0.000 NA
ATOM     29  C   UNL     1      47.560  10.012  19.893  0.00  0.00    +0.000 A 
ATOM     30  N   UNL     1      47.410   8.648  19.879  0.00  0.00    +0.000 N 
ATOM     31  C   UNL     1      47.706   7.875  18.780  0.00  0.00    +0.000 A 
ATOM     32  O   UNL     1      47.479   6.668  18.762  0.00  0.00    +0.000 OA
ATOM     33  C   UNL     1      48.266   8.609  17.664  0.00  0.00    +0.000 A 
ATOM     34  H   UNL     1      47.025   8.164  20.676  0.00  0.00    +0.000 HD
ENDBRANCH  21  24
ENDBRANCH   2  20
TORSDOF 6
ENDMDL
MODEL 2
REMARK VINA RESULT:    -7.770      1.725      2.599
REMARK INTER + INTRA:         -11.632
REMARK INTER:                 -10.638
REMARK INTRA:                  -0.993
REMARK UNBOUND:                -1.136
REMARK  Name = 
REMARK  7 active torsions:
REMARK  status: ('A' for Active; 'I' for Inactive)
REMARK    1  A    between atoms: C_1  and  C_2
REMARK    2  A    between atoms: C_2  and  N_3
REMARK    3  A    between atoms: C_2  and  C_16
REMARK    4  A    between atoms: C_4  and  C_6
REMARK    5  A    between atoms: C_19  and  C_20
REMARK    6  A    between atoms: C_20  and  N_21
REMARK    7  A    between atoms: C_22  and  C_24
REMARK                            x       y       z     vdW  Elec       q    Type
REMARK                         _______ _______ _______ _____ _____    ______ ____
ROOT
ATOM      1  C   UNL     1      47.091   4.015  16.055  0.00  0.00    +0.000 C 
ATOM      2  C   UNL     1      47.471   4.789  14.788  0.00  0.00    +0.000 C 
ENDROOT
BRANCH   2   3
ATOM      3  C   UNL     1      46.436   4.685  13.685  0.00  0.00    +0.000 A 
ATOM      4  C   UNL     1      45.790   5.834  13.214  0.00  0.00    +0.000 A 
ATOM      5  C   UNL     1      44.897   5.749  12.145  0.00  0.00    +0.000 A 
ATOM      6  C   UNL     1      44.661   4.510  11.559  0.00  0.00    +0.000 A 
ATOM      7  N   UNL     1      45.222   3.370  12.035  0.00  0.00    +0.000 NA
ATOM      8  C   UNL     1      46.080   3.484  13.080  0.00  0.00    +0.000 A 
BRANCH   6   9
ATOM      9  C   UNL     1      43.796   4.402  10.324  0.00  0.00    +0.000 C 
BRANCH   9  10
ATOM     10  N   UNL     1      44.402   3.646   9.256  0.00  0.00    +0.000 N 
ATOM     11  C   UNL     1      45.462   4.106   8.511  0.00  0.00    +0.000 C 
ATOM     12  O   UNL     1      45.987   5.199   8.683  0.00  0.00    +0.000 OA
ATOM     13  H   UNL     1      43.926   2.827   8.886  0.00  0.00    +0.000 HD
BRANCH  11  14
ATOM     14  C   UNL     1      45.962   3.103   7.457  0.00  0.00    +0.000 C 
ATOM     15  C   UNL     1      46.253   1.738   8.043  0.00  0.00    +0.000 C 
ATOM     16  C   UNL     1      47.175   1.119   7.011  0.00  0.00    +0.000 C 
ATOM     17  C   UNL     1      47.925   2.295   6.402  0.00  0.00    +0.000 C 
ATOM     18  N   UNL     1      47.269   3.516   6.878  0.00  0.00    +0.000 NA
ATOM     19  H   UNL     1      47.104   4.156   6.101  0.00  0.00    +0.000 HD
ENDBRANCH  11  14
ENDBRANCH   9  10
ENDBRANCH   6   9
ENDBRANCH   2   3
BRANCH   2  20
ATOM     20  N   UNL     1      47.770   6.180  15.087  0.00  0.00    +0.000 N 
ATOM     21  C   UNL     1      48.921   6.546  15.745  0.00  0.00    +0.000 C 
ATOM     22  O   UNL     1      49.751   5.719  16.117  0.00  0.00    +0.000 OA
ATOM     23  H   UNL     1      47.027   6.862  14.969  0.00  0.00    +0.000 HD
BRANCH  21  24
ATOM     24  C   UNL     1      49.157   7.985  15.926  0.00  0.00    +0.000 A 
ATOM     25  C   UNL     1      49.438   8.479  17.193  0.00  0.00    +0.000 A 
ATOM     26  S   UNL     1      49.696  10.164  17.232  0.00  0.00    +0.000 S 
ATOM     27  C   UNL     1      49.391  10.301  15.564  0.00  0.00    +0.000 A 
ATOM     28  N   UNL     1      49.405  11.516  14.950  0.00  0.00    +0.000 NA
ATOM     29  C   UNL     1      49.114  11.478  13.693  0.00  0.00    +0.000 A 
ATOM     30  N   UNL     1      48.828  10.334  12.990  0.00  0.00    +0.000 N 
ATOM     31  C   UNL     1      48.857   9.081  13.558  0.00  0.00    +0.000 A 
ATOM     32  O   UNL     1      48.684   8.067  12.888  0.00  0.00    +0.000 OA
ATOM     33  C   UNL     1      49.134   9.074  14.980  0.00  0.00    +0.000 A 
ATOM     34  H   UNL     1      48.629  10.373  12.002  0.00  0.00    +0.000 HD
ENDBRANCH  21  24
ENDBRANCH   2  20
TORSDOF 6
ENDMDL
MODEL 3
REMARK VINA RESULT:    -7.674      2.730      3.761
REMARK INTER + INTRA:         -11.502
REMARK INTER:                 -10.374
REMARK INTRA:                  -1.128
REMARK UNBOUND:                -1.136
REMARK  Name = 
REMARK  7 active torsions:
REMARK  status: ('A' for Active; 'I' for Inactive)
REMARK    1  A    between atoms: C_1  and  C_2
REMARK    2  A    between atoms: C_2  and  N_3
REMARK    3  A    between atoms: C_2  and  C_16
REMARK    4  A    between atoms: C_4  and  C_6
REMARK    5  A    between atoms: C_19  and  C_20
REMARK    6  A    between atoms: C_20  and  N_21
REMARK    7  A    between atoms: C_22  and  C_24
REMARK                            x       y       z     vdW  Elec       q    Type
REMARK                         _______ _______ _______ _____ _____    ______ ____
ROOT
ATOM      1  C   UNL     1      48.447   9.221  12.826  0.00  0.00    +0.000 C 
ATOM      2  C   UNL     1      47.671   8.300  13.773  0.00  0.00    +0.000 C 
ENDROOT
BRANCH   2   3
ATOM      3  C   UNL     1      46.541   7.551  13.095  0.00  0.00    +0.000 A 
ATOM      4  C   UNL     1      45.613   8.239  12.306  0.00  0.00    +0.000 A 
ATOM      5  C   UNL     1      44.620   7.540  11.617  0.00  0.00    +0.000 A 
ATOM      6  C   UNL     1      44.569   6.154  11.730  0.00  0.00    +0.000 A 
ATOM      7  N   UNL     1      45.413   5.466  12.539  0.00  0.00    +0.000 NA
ATOM      8  C   UNL     1      46.363   6.175  13.200  0.00  0.00    +0.000 A 
BRANCH   6   9
ATOM      9  C   UNL     1      43.586   5.357  10.903  0.00  0.00    +0.000 C 
BRANCH   9  10
ATOM     10  N   UNL     1      44.177   4.726   9.750  0.00  0.00    +0.000 N 
ATOM     11  C   UNL     1      44.280   3.362   9.603  0.00  0.00    +0.000 C 
ATOM     12  O   UNL     1      43.881   2.560  10.439  0.00  0.00    +0.000 OA
ATOM     13  H   UNL     1      44.724   5.281   9.097  0.00  0.00    +0.000 HD
BRANCH  11  14
ATOM     14  C   UNL     1      44.909   2.926   8.270  0.00  0.00    +0.000 C 
ATOM     15  C   UNL     1      45.897   1.790   8.434  0.00  0.00    +0.000 C 
ATOM     16  C   UNL     1      46.728   1.883   7.170  0.00  0.00    +0.000 C 
ATOM     17  C   UNL     1      46.721   3.360   6.805  0.00  0.00    +0.000 C 
ATOM     18  N   UNL     1      45.727   4.010   7.663  0.00  0.00    +0.000 NA
ATOM     19  H   UNL     1      45.122   4.617   7.109  0.00  0.00    +0.000 HD
ENDBRANCH  11  14
ENDBRANCH   9  10
ENDBRANCH   6   9
ENDBRANCH   2   3
BRANCH   2  20
ATOM     20  N   UNL     1      48.560   7.380  14.464  0.00  0.00    +0.000 N 
ATOM     21  C   UNL     1      48.869   7.536  15.795  0.00  0.00    +0.000 C 
ATOM     22  O   UNL     1      48.415   8.461  16.466  0.00  0.00    +0.000 OA
ATOM     23  H   UNL     1      49.098   6.728  13.902  0.00  0.00    +0.000 HD
BRANCH  21  24
ATOM     24  C   UNL     1      49.716   6.505  16.408  0.00  0.00    +0.000 A 
ATOM     25  C   UNL     1      51.042   6.794  16.707  0.00  0.00    +0.000 A 
ATOM     26  S   UNL     1      51.884   5.497  17.422  0.00  0.00    +0.000 S 
ATOM     27  C   UNL     1      50.522   4.484  17.313  0.00  0.00    +0.000 A 
ATOM     28  N   UNL     1      50.583   3.186  17.719  0.00  0.00    +0.000 NA
ATOM     29  C   UNL     1      49.491   2.522  17.539  0.00  0.00    +0.000 A 
ATOM     30  N   UNL     1      48.338   3.042  17.004  0.00  0.00    +0.000 N 
ATOM     31  C   UNL     1      48.216   4.361  16.632  0.00  0.00    +0.000 A 
ATOM     32  O   UNL     1      47.148   4.822  16.240  0.00  0.00    +0.000 OA
ATOM     33  C   UNL     1      49.430   5.139  16.773  0.00  0.00    +0.000 A 
ATOM     34  H   UNL     1      47.512   2.472  16.910  0.00  0.00    +0.000 HD
ENDBRANCH  21  24
ENDBRANCH   2  20
TORSDOF 6
ENDMDL
MODEL 4
REMARK VINA RESULT:    -7.516      1.653      2.028
REMARK INTER + INTRA:         -11.289
REMARK INTER:                 -10.070
REMARK INTRA:                  -1.219
REMARK UNBOUND:                -1.136
REMARK  Name = 
REMARK  7 active torsions:
REMARK  status: ('A' for Active; 'I' for Inactive)
REMARK    1  A    between atoms: C_1  and  C_2
REMARK    2  A    between atoms: C_2  and  N_3
REMARK    3  A    between atoms: C_2  and  C_16
REMARK    4  A    between atoms: C_4  and  C_6
REMARK    5  A    between atoms: C_19  and  C_20
REMARK    6  A    between atoms: C_20  and  N_21
REMARK    7  A    between atoms: C_22  and  C_24
REMARK                            x       y       z     vdW  Elec       q    Type
REMARK                         _______ _______ _______ _____ _____    ______ ____
ROOT
ATOM      1  C   UNL     1      47.513   3.290  16.003  0.00  0.00    +0.000 C 
ATOM      2  C   UNL     1      47.922   4.650  15.428  0.00  0.00    +0.000 C 
ENDROOT
BRANCH   2   3
ATOM      3  C   UNL     1      47.099   5.070  14.226  0.00  0.00    +0.000 A 
ATOM      4  C   UNL     1      47.563   6.075  13.371  0.00  0.00    +0.000 A 
ATOM      5  C   UNL     1      46.845   6.406  12.221  0.00  0.00    +0.000 A 
ATOM      6  C   UNL     1      45.665   5.723  11.942  0.00  0.00    +0.000 A 
ATOM      7  N   UNL     1      45.156   4.792  12.787  0.00  0.00    +0.000 NA
ATOM      8  C   UNL     1      45.874   4.496  13.899  0.00  0.00    +0.000 A 
BRANCH   6   9
ATOM      9  C   UNL     1      44.928   5.971  10.646  0.00  0.00    +0.000 C 
BRANCH   9  10
ATOM     10  N   UNL     1      45.354   5.117   9.565  0.00  0.00    +0.000 N 
ATOM     11  C   UNL     1      44.739   3.928   9.253  0.00  0.00    +0.000 C 
ATOM     12  O   UNL     1      43.774   3.483   9.865  0.00  0.00    +0.000 OA
ATOM     13  H   UNL     1      46.258   5.273   9.127  0.00  0.00    +0.000 HD
BRANCH  11  14
ATOM     14  C   UNL     1      45.346   3.215   8.033  0.00  0.00    +0.000 C 
ATOM     15  C   UNL     1      45.980   1.887   8.389  0.00  0.00    +0.000 C 
ATOM     16  C   UNL     1      46.916   1.638   7.222  0.00  0.00    +0.000 C 
ATOM     17  C   UNL     1      47.331   3.024   6.752  0.00  0.00    +0.000 C 
ATOM     18  N   UNL     1      46.473   3.989   7.445  0.00  0.00    +0.000 NA
ATOM     19  H   UNL     1      46.101   4.672   6.784  0.00  0.00    +0.000 HD
ENDBRANCH  11  14
ENDBRANCH   9  10
ENDBRANCH   6   9
ENDBRANCH   2   3
BRANCH   2  20
ATOM     20  N   UNL     1      47.909   5.683  16.451  0.00  0.00    +0.000 N 
ATOM     21  C   UNL     1      49.055   6.064  17.109  0.00  0.00    +0.000 C 
ATOM     22  O   UNL     1      50.146   5.550  16.869  0.00  0.00    +0.000 OA
ATOM     23  H   UNL     1      47.008   5.988  16.806  0.00  0.00    +0.000 HD
BRANCH  21  24
ATOM     24  C   UNL     1      48.937   7.170  18.068  0.00  0.00    +0.000 A 
ATOM     25  C   UNL     1      49.171   6.935  19.417  0.00  0.00    +0.000 A 
ATOM     26  S   UNL     1      49.004   8.321  20.395  0.00  0.00    +0.000 S 
ATOM     27  C   UNL     1      48.563   9.276  19.057  0.00  0.00    +0.000 A 
ATOM     28  N   UNL     1      48.233  10.587  19.214  0.00  0.00    +0.000 NA
ATOM     29  C   UNL     1      47.877  11.178  18.123  0.00  0.00    +0.000 A 
ATOM     30  N   UNL     1      47.838  10.582  16.887  0.00  0.00    +0.000 N 
ATOM     31  C   UNL     1      48.215   9.276  16.675  0.00  0.00    +0.000 A 
ATOM     32  O   UNL     1      48.256   8.793  15.547  0.00  0.00    +0.000 OA
ATOM     33  C   UNL     1      48.581   8.555  17.877  0.00  0.00    +0.000 A 
ATOM     34  H   UNL     1      47.570  11.109  16.070  0.00  0.00    +0.000 HD
ENDBRANCH  21  24
ENDBRANCH   2  20
TORSDOF 6
ENDMDL
MODEL 5
REMARK VINA RESULT:    -7.400      2.191      2.952
REMARK INTER + INTRA:         -11.131
REMARK INTER:                 -10.106
REMARK INTRA:                  -1.025
REMARK UNBOUND:                -1.136
REMARK  Name = 
REMARK  7 active torsions:
REMARK  status: ('A' for Active; 'I' for Inactive)
REMARK    1  A    between atoms: C_1  and  C_2
REMARK    2  A    between atoms: C_2  and  N_3
REMARK    3  A    between atoms: C_2  and  C_16
REMARK    4  A    between atoms: C_4  and  C_6
REMARK    5  A    between atoms: C_19  and  C_20
REMARK    6  A    between atoms: C_20  and  N_21
REMARK    7  A    between atoms: C_22  and  C_24
REMARK                            x       y       z     vdW  Elec       q    Type
REMARK                         _______ _______ _______ _____ _____    ______ ____
ROOT
ATOM      1  C   UNL     1      49.454   7.627  13.245  0.00  0.00    +0.000 C 
ATOM      2  C   UNL     1      48.103   7.950  13.893  0.00  0.00    +0.000 C 
ENDROOT
BRANCH   2   3
ATOM      3  C   UNL     1      46.923   7.331  13.170  0.00  0.00    +0.000 A 
ATOM      4  C   UNL     1      46.085   8.125  12.381  0.00  0.00    +0.000 A 
ATOM      5  C   UNL     1      45.047   7.543  11.652  0.00  0.00    +0.000 A 
ATOM      6  C   UNL     1      44.861   6.166  11.724  0.00  0.00    +0.000 A 
ATOM      7  N   UNL     1      45.615   5.380  12.533  0.00  0.00    +0.000 NA
ATOM      8  C   UNL     1      46.612   5.977  13.233  0.00  0.00    +0.000 A 
BRANCH   6   9
ATOM      9  C   UNL     1      43.826   5.489  10.855  0.00  0.00    +0.000 C 
BRANCH   9  10
ATOM     10  N   UNL     1      44.381   4.834   9.697  0.00  0.00    +0.000 N 
ATOM     11  C   UNL     1      44.465   3.467   9.569  0.00  0.00    +0.000 C 
ATOM     12  O   UNL     1      44.078   2.681  10.426  0.00  0.00    +0.000 OA
ATOM     13  H   UNL     1      44.919   5.373   9.024  0.00  0.00    +0.000 HD
BRANCH  11  14
ATOM     14  C   UNL     1      45.056   3.004   8.227  0.00  0.00    +0.000 C 
ATOM     15  C   UNL     1      46.013   1.840   8.381  0.00  0.00    +0.000 C 
ATOM     16  C   UNL     1      46.823   1.901   7.101  0.00  0.00    +0.000 C 
ATOM     17  C   UNL     1      46.853   3.375   6.726  0.00  0.00    +0.000 C 
ATOM     18  N   UNL     1      45.895   4.060   7.599  0.00  0.00    +0.000 NA
ATOM     19  H   UNL     1      45.299   4.681   7.052  0.00  0.00    +0.000 HD
ENDBRANCH  11  14
ENDBRANCH   9  10
ENDBRANCH   6   9
ENDBRANCH   2   3
BRANCH   2  20
ATOM     20  N   UNL     1      48.093   7.592  15.301  0.00  0.00    +0.000 N 
ATOM     21  C   UNL     1      48.566   8.449  16.269  0.00  0.00    +0.000 C 
ATOM     22  O   UNL     1      49.025   9.555  15.992  0.00  0.00    +0.000 OA
ATOM     23  H   UNL     1      47.904   6.625  15.544  0.00  0.00    +0.000 HD
BRANCH  21  24
ATOM     24  C   UNL     1      48.437   8.014  17.666  0.00  0.00    +0.000 A 
ATOM     25  C   UNL     1      47.991   8.914  18.625  0.00  0.00    +0.000 A 
ATOM     26  S   UNL     1      47.886   8.252  20.192  0.00  0.00    +0.000 S 
ATOM     27  C   UNL     1      48.482   6.752  19.655  0.00  0.00    +0.000 A 
ATOM     28  N   UNL     1      48.685   5.728  20.529  0.00  0.00    +0.000 NA
ATOM     29  C   UNL     1      49.180   4.664  19.993  0.00  0.00    +0.000 A 
ATOM     30  N   UNL     1      49.475   4.524  18.659  0.00  0.00    +0.000 N 
ATOM     31  C   UNL     1      49.235   5.512  17.733  0.00  0.00    +0.000 A 
ATOM     32  O   UNL     1      49.425   5.331  16.534  0.00  0.00    +0.000 OA
ATOM     33  C   UNL     1      48.720   6.746  18.292  0.00  0.00    +0.000 A 
ATOM     34  H   UNL     1      49.842   3.655  18.302  0.00  0.00    +0.000 HD
ENDBRANCH  21  24
ENDBRANCH   2  20
TORSDOF 6
ENDMDL
MODEL 6
REMARK VINA RESULT:    -6.971      4.390      8.839
REMARK INTER + INTRA:         -10.552
REMARK INTER:                  -9.458
REMARK INTRA:                  -1.094
REMARK UNBOUND:                -1.136
REMARK  Name = 
REMARK  7 active torsions:
REMARK  status: ('A' for Active; 'I' for Inactive)
REMARK    1  A    between atoms: C_1  and  C_2
REMARK    2  A    between atoms: C_2  and  N_3
REMARK    3  A    between atoms: C_2  and  C_16
REMARK    4  A    between atoms: C_4  and  C_6
REMARK    5  A    between atoms: C_19  and  C_20
REMARK    6  A    between atoms: C_20  and  N_21
REMARK    7  A    between atoms: C_22  and  C_24
REMARK                            x       y       z     vdW  Elec       q    Type
REMARK                         _______ _______ _______ _____ _____    ______ ____
ROOT
ATOM      1  C   UNL     1      48.265   8.895  15.105  0.00  0.00    +0.000 C 
ATOM      2  C   UNL     1      48.359   7.487  14.509  0.00  0.00    +0.000 C 
ENDROOT
BRANCH   2   3
ATOM      3  C   UNL     1      48.883   6.452  15.485  0.00  0.00    +0.000 A 
ATOM      4  C   UNL     1      50.122   6.635  16.108  0.00  0.00    +0.000 A 
ATOM      5  C   UNL     1      50.568   5.723  17.066  0.00  0.00    +0.000 A 
ATOM      6  C   UNL     1      49.764   4.635  17.388  0.00  0.00    +0.000 A 
ATOM      7  N   UNL     1      48.589   4.395  16.753  0.00  0.00    +0.000 NA
ATOM      8  C   UNL     1      48.186   5.296  15.822  0.00  0.00    +0.000 A 
BRANCH   6   9
ATOM      9  C   UNL     1      50.160   3.697  18.506  0.00  0.00    +0.000 C 
BRANCH   9  10
ATOM     10  N   UNL     1      51.510   3.203  18.396  0.00  0.00    +0.000 N 
ATOM     11  C   UNL     1      51.842   2.050  17.725  0.00  0.00    +0.000 C 
ATOM     12  O   UNL     1      51.022   1.336  17.159  0.00  0.00    +0.000 OA
ATOM     13  H   UNL     1      52.237   3.590  18.993  0.00  0.00    +0.000 HD
BRANCH  11  14
ATOM     14  C   UNL     1      53.350   1.752  17.709  0.00  0.00    +0.000 C 
ATOM     15  C   UNL     1      53.674   0.415  17.077  0.00  0.00    +0.000 C 
ATOM     16  C   UNL     1      55.058   0.114  17.618  0.00  0.00    +0.000 C 
ATOM     17  C   UNL     1      55.097   0.781  18.985  0.00  0.00    +0.000 C 
ATOM     18  N   UNL     1      53.903   1.626  19.085  0.00  0.00    +0.000 NA
ATOM     19  H   UNL     1      54.152   2.552  19.432  0.00  0.00    +0.000 HD
ENDBRANCH  11  14
ENDBRANCH   9  10
ENDBRANCH   6   9
ENDBRANCH   2   3
BRANCH   2  20
ATOM     20  N   UNL     1      47.090   7.066  13.941  0.00  0.00    +0.000 N 
ATOM     21  C   UNL     1      46.905   6.959  12.582  0.00  0.00    +0.000 C 
ATOM     22  O   UNL     1      47.800   7.217  11.780  0.00  0.00    +0.000 OA
ATOM     23  H   UNL     1      46.282   7.033  14.555  0.00  0.00    +0.000 HD
BRANCH  21  24
ATOM     24  C   UNL     1      45.605   6.452  12.123  0.00  0.00    +0.000 A 
ATOM     25  C   UNL     1      44.683   7.331  11.568  0.00  0.00    +0.000 A 
ATOM     26  S   UNL     1      43.232   6.584  11.077  0.00  0.00    +0.000 S 
ATOM     27  C   UNL     1      43.762   5.067  11.635  0.00  0.00    +0.000 A 
ATOM     28  N   UNL     1      42.955   3.974  11.558  0.00  0.00    +0.000 NA
ATOM     29  C   UNL     1      43.467   2.900  12.057  0.00  0.00    +0.000 A 
ATOM     30  N   UNL     1      44.720   2.816  12.612  0.00  0.00    +0.000 N 
ATOM     31  C   UNL     1      45.589   3.881  12.662  0.00  0.00    +0.000 A 
ATOM     32  O   UNL     1      46.735   3.758  13.082  0.00  0.00    +0.000 OA
ATOM     33  C   UNL     1      45.044   5.124  12.153  0.00  0.00    +0.000 A 
ATOM     34  H   UNL     1      45.068   1.938  12.966  0.00  0.00    +0.000 HD
ENDBRANCH  21  24
ENDBRANCH   2  20
TORSDOF 6
ENDMDL
MODEL 7
REMARK VINA RESULT:    -6.956      2.937      4.124
REMARK INTER + INTRA:         -10.532
REMARK INTER:                  -9.417
REMARK INTRA:                  -1.114
REMARK UNBOUND:                -1.136
REMARK  Name = 
REMARK  7 active torsions:
REMARK  status: ('A' for Active; 'I' for Inactive)
REMARK    1  A    between atoms: C_1  and  C_2
REMARK    2  A    between atoms: C_2  and  N_3
REMARK    3  A    between atoms: C_2  and  C_16
REMARK    4  A    between atoms: C_4  and  C_6
REMARK    5  A    between atoms: C_19  and  C_20
REMARK    6  A    between atoms: C_20  and  N_21
REMARK    7  A    between atoms: C_22  and  C_24
REMARK                            x       y       z     vdW  Elec       q    Type
REMARK                         _______ _______ _______ _____ _____    ______ ____
ROOT
ATOM      1  C   UNL     1      49.334   9.323  14.043  0.00  0.00    +0.000 C 
ATOM      2  C   UNL     1      48.236   8.506  14.733  0.00  0.00    +0.000 C 
ENDROOT
BRANCH   2   3
ATOM      3  C   UNL     1      47.243   7.891  13.767  0.00  0.00    +0.000 A 
ATOM      4  C   UNL     1      47.306   6.527  13.465  0.00  0.00    +0.000 A 
ATOM      5  C   UNL     1      46.344   5.945  12.639  0.00  0.00    +0.000 A 
ATOM      6  C   UNL     1      45.327   6.741  12.122  0.00  0.00    +0.000 A 
ATOM      7  N   UNL     1      45.278   8.079  12.342  0.00  0.00    +0.000 NA
ATOM      8  C   UNL     1      46.231   8.616  13.145  0.00  0.00    +0.000 A 
BRANCH   6   9
ATOM      9  C   UNL     1      44.202   6.121  11.324  0.00  0.00    +0.000 C 
BRANCH   9  10
ATOM     10  N   UNL     1      44.649   5.391  10.164  0.00  0.00    +0.000 N 
ATOM     11  C   UNL     1      44.239   4.112   9.871  0.00  0.00    +0.000 C 
ATOM     12  O   UNL     1      43.457   3.475  10.567  0.00  0.00    +0.000 OA
ATOM     13  H   UNL     1      45.448   5.730   9.633  0.00  0.00    +0.000 HD
BRANCH  11  14
ATOM     14  C   UNL     1      44.819   3.559   8.558  0.00  0.00    +0.000 C 
ATOM     15  C   UNL     1      45.549   2.246   8.751  0.00  0.00    +0.000 C 
ATOM     16  C   UNL     1      46.431   2.170   7.520  0.00  0.00    +0.000 C 
ATOM     17  C   UNL     1      46.738   3.618   7.169  0.00  0.00    +0.000 C 
ATOM     18  N   UNL     1      45.864   4.455   7.994  0.00  0.00    +0.000 NA
ATOM     19  H   UNL     1      45.417   5.173   7.423  0.00  0.00    +0.000 HD
ENDBRANCH  11  14
ENDBRANCH   9  10
ENDBRANCH   6   9
ENDBRANCH   2   3
BRANCH   2  20
ATOM     20  N   UNL     1      48.801   7.493  15.609  0.00  0.00    +0.000 N 
ATOM     21  C   UNL     1      48.858   7.665  16.972  0.00  0.00    +0.000 C 
ATOM     22  O   UNL     1      48.440   8.683  17.519  0.00  0.00    +0.000 OA
ATOM     23  H   UNL     1      49.325   6.735  15.182  0.00  0.00    +0.000 HD
BRANCH  21  24
ATOM     24  C   UNL     1      49.380   6.544  17.765  0.00  0.00    +0.000 A 
ATOM     25  C   UNL     1      48.604   6.005  18.784  0.00  0.00    +0.000 A 
ATOM     26  S   UNL     1      49.348   4.706  19.600  0.00  0.00    +0.000 S 
ATOM     27  C   UNL     1      50.755   4.850  18.655  0.00  0.00    +0.000 A 
ATOM     28  N   UNL     1      51.830   4.045  18.878  0.00  0.00    +0.000 NA
ATOM     29  C   UNL     1      52.843   4.292  18.118  0.00  0.00    +0.000 A 
ATOM     30  N   UNL     1      52.874   5.260  17.144  0.00  0.00    +0.000 N 
ATOM     31  C   UNL     1      51.793   6.057  16.849  0.00  0.00    +0.000 A 
ATOM     32  O   UNL     1      51.817   6.854  15.915  0.00  0.00    +0.000 OA
ATOM     33  C   UNL     1      50.643   5.850  17.706  0.00  0.00    +0.000 A 
ATOM     34  H   UNL     1      53.694   5.386  16.571  0.00  0.00    +0.000 HD
ENDBRANCH  21  24
ENDBRANCH   2  20
TORSDOF 6
ENDMDL
MODEL 8
REMARK VINA RESULT:    -6.596      2.455      3.055
REMARK INTER + INTRA:         -10.046
REMARK INTER:                  -9.989
REMARK INTRA:                  -0.057
REMARK UNBOUND:                -1.136
REMARK  Name = 
REMARK  7 active torsions:
REMARK  status: ('A' for Active; 'I' for Inactive)
REMARK    1  A    between atoms: C_1  and  C_2
REMARK    2  A    between atoms: C_2  and  N_3
REMARK    3  A    between atoms: C_2  and  C_16
REMARK    4  A    between atoms: C_4  and  C_6
REMARK    5  A    between atoms: C_19  and  C_20
REMARK    6  A    between atoms: C_20  and  N_21
REMARK    7  A    between atoms: C_22  and  C_24
REMARK                            x       y       z     vdW  Elec       q    Type
REMARK                         _______ _______ _______ _____ _____    ______ ____
ROOT
ATOM      1  C   UNL     1      48.577   8.756  12.714  0.00  0.00    +0.000 C 
ATOM      2  C   UNL     1      47.347   8.570  13.610  0.00  0.00    +0.000 C 
ENDROOT
BRANCH   2   3
ATOM      3  C   UNL     1      46.236   7.777  12.952  0.00  0.00    +0.000 A 
ATOM      4  C   UNL     1      45.400   8.384  12.009  0.00  0.00    +0.000 A 
ATOM      5  C   UNL     1      44.428   7.634  11.344  0.00  0.00    +0.000 A 
ATOM      6  C   UNL     1      44.305   6.279  11.636  0.00  0.00    +0.000 A 
ATOM      7  N   UNL     1      45.056   5.678  12.593  0.00  0.00    +0.000 NA
ATOM      8  C   UNL     1      45.987   6.435  13.225  0.00  0.00    +0.000 A 
BRANCH   6   9
ATOM      9  C   UNL     1      43.348   5.412  10.850  0.00  0.00    +0.000 C 
BRANCH   9  10
ATOM     10  N   UNL     1      43.943   4.800   9.688  0.00  0.00    +0.000 N 
ATOM     11  C   UNL     1      44.499   3.542   9.696  0.00  0.00    +0.000 C 
ATOM     12  O   UNL     1      44.541   2.827  10.691  0.00  0.00    +0.000 OA
ATOM     13  H   UNL     1      44.153   5.368   8.871  0.00  0.00    +0.000 HD
BRANCH  11  14
ATOM     14  C   UNL     1      45.032   3.089   8.327  0.00  0.00    +0.000 C 
ATOM     15  C   UNL     1      45.971   1.905   8.429  0.00  0.00    +0.000 C 
ATOM     16  C   UNL     1      46.735   1.970   7.121  0.00  0.00    +0.000 C 
ATOM     17  C   UNL     1      46.781   3.449   6.768  0.00  0.00    +0.000 C 
ATOM     18  N   UNL     1      45.868   4.138   7.684  0.00  0.00    +0.000 NA
ATOM     19  H   UNL     1      45.265   4.779   7.169  0.00  0.00    +0.000 HD
ENDBRANCH  11  14
ENDBRANCH   9  10
ENDBRANCH   6   9
ENDBRANCH   2   3
BRANCH   2  20
ATOM     20  N   UNL     1      47.710   7.989  14.891  0.00  0.00    +0.000 N 
ATOM     21  C   UNL     1      48.681   7.020  14.997  0.00  0.00    +0.000 C 
ATOM     22  O   UNL     1      49.287   6.595  14.017  0.00  0.00    +0.000 OA
ATOM     23  H   UNL     1      47.104   8.174  15.685  0.00  0.00    +0.000 HD
BRANCH  21  24
ATOM     24  C   UNL     1      49.019   6.560  16.351  0.00  0.00    +0.000 A 
ATOM     25  C   UNL     1      48.627   5.292  16.761  0.00  0.00    +0.000 A 
ATOM     26  S   UNL     1      49.104   4.907  18.352  0.00  0.00    +0.000 S 
ATOM     27  C   UNL     1      49.808   6.440  18.568  0.00  0.00    +0.000 A 
ATOM     28  N   UNL     1      50.368   6.789  19.758  0.00  0.00    +0.000 NA
ATOM     29  C   UNL     1      50.825   7.996  19.796  0.00  0.00    +0.000 A 
ATOM     30  N   UNL     1      50.786   8.880  18.746  0.00  0.00    +0.000 N 
ATOM     31  C   UNL     1      50.279   8.551  17.511  0.00  0.00    +0.000 A 
ATOM     32  O   UNL     1      50.338   9.330  16.563  0.00  0.00    +0.000 OA
ATOM     33  C   UNL     1      49.713   7.220  17.429  0.00  0.00    +0.000 A 
ATOM     34  H   UNL     1      51.181   9.803  18.837  0.00  0.00    +0.000 HD
ENDBRANCH  21  24
ENDBRANCH   2  20
TORSDOF 6
ENDMDL
MODEL 9
REMARK VINA RESULT:    -6.579      5.009      7.643
REMARK INTER + INTRA:         -10.023
REMARK INTER:                  -9.122
REMARK INTRA:                  -0.901
REMARK UNBOUND:                -1.136
REMARK  Name = 
REMARK  7 active torsions:
REMARK  status: ('A' for Active; 'I' for Inactive)
REMARK    1  A    between atoms: C_1  and  C_2
REMARK    2  A    between atoms: C_2  and  N_3
REMARK    3  A    between atoms: C_2  and  C_16
REMARK    4  A    between atoms: C_4  and  C_6
REMARK    5  A    between atoms: C_19  and  C_20
REMARK    6  A    between atoms: C_20  and  N_21
REMARK    7  A    between atoms: C_22  and  C_24
REMARK                            x       y       z     vdW  Elec       q    Type
REMARK                         _______ _______ _______ _____ _____    ______ ____
ROOT
ATOM      1  C   UNL     1      50.893   9.720  13.217  0.00  0.00    +0.000 C 
ATOM      2  C   UNL     1      50.814   8.310  12.621  0.00  0.00    +0.000 C 
ENDROOT
BRANCH   2   3
ATOM      3  C   UNL     1      49.454   7.661  12.784  0.00  0.00    +0.000 A 
ATOM      4  C   UNL     1      48.532   7.683  11.733  0.00  0.00    +0.000 A 
ATOM      5  C   UNL     1      47.311   7.017  11.854  0.00  0.00    +0.000 A 
ATOM      6  C   UNL     1      47.029   6.335  13.034  0.00  0.00    +0.000 A 
ATOM      7  N   UNL     1      47.875   6.351  14.095  0.00  0.00    +0.000 NA
ATOM      8  C   UNL     1      49.050   7.013  13.947  0.00  0.00    +0.000 A 
BRANCH   6   9
ATOM      9  C   UNL     1      45.772   5.503  13.153  0.00  0.00    +0.000 C 
BRANCH   9  10
ATOM     10  N   UNL     1      45.412   4.821  11.935  0.00  0.00    +0.000 N 
ATOM     11  C   UNL     1      44.338   5.182  11.155  0.00  0.00    +0.000 C 
ATOM     12  O   UNL     1      43.588   6.113  11.424  0.00  0.00    +0.000 OA
ATOM     13  H   UNL     1      45.825   3.917  11.723  0.00  0.00    +0.000 HD
BRANCH  11  14
ATOM     14  C   UNL     1      44.180   4.333   9.883  0.00  0.00    +0.000 C 
ATOM     15  C   UNL     1      44.590   2.889  10.090  0.00  0.00    +0.000 C 
ATOM     16  C   UNL     1      44.846   2.407   8.676  0.00  0.00    +0.000 C 
ATOM     17  C   UNL     1      45.317   3.641   7.921  0.00  0.00    +0.000 C 
ATOM     18  N   UNL     1      45.083   4.795   8.795  0.00  0.00    +0.000 NA
ATOM     19  H   UNL     1      44.626   5.546   8.276  0.00  0.00    +0.000 HD
ENDBRANCH  11  14
ENDBRANCH   9  10
ENDBRANCH   6   9
ENDBRANCH   2   3
BRANCH   2  20
ATOM     20  N   UNL     1      51.227   8.301  11.227  0.00  0.00    +0.000 N 
ATOM     21  C   UNL     1      52.549   8.176  10.866  0.00  0.00    +0.000 C 
ATOM     22  O   UNL     1      53.446   8.070  11.699  0.00  0.00    +0.000 OA
ATOM     23  H   UNL     1      50.545   8.577  10.528  0.00  0.00    +0.000 HD
BRANCH  21  24
ATOM     24  C   UNL     1      52.843   8.102   9.428  0.00  0.00    +0.000 A 
ATOM     25  C   UNL     1      52.672   9.229   8.635  0.00  0.00    +0.000 A 
ATOM     26  S   UNL     1      53.065   8.981   6.995  0.00  0.00    +0.000 S 
ATOM     27  C   UNL     1      53.430   7.344   7.276  0.00  0.00    +0.000 A 
ATOM     28  N   UNL     1      53.797   6.525   6.253  0.00  0.00    +0.000 NA
ATOM     29  C   UNL     1      54.001   5.299   6.602  0.00  0.00    +0.000 A 
ATOM     30  N   UNL     1      53.888   4.822   7.883  0.00  0.00    +0.000 N 
ATOM     31  C   UNL     1      53.573   5.624   8.955  0.00  0.00    +0.000 A 
ATOM     32  O   UNL     1      53.565   5.190  10.104  0.00  0.00    +0.000 OA
ATOM     33  C   UNL     1      53.290   7.002   8.609  0.00  0.00    +0.000 A 
ATOM     34  H   UNL     1      54.083   3.854   8.091  0.00  0.00    +0.000 HD
ENDBRANCH  21  24
ENDBRANCH   2  20
TORSDOF 6
ENDMDL
