MODEL 1
REMARK VINA RESULT:    -8.802      0.000      0.000
REMARK INTER + INTRA:         -13.065
REMARK INTER:                 -11.890
REMARK INTRA:                  -1.175
REMARK UNBOUND:                -1.175
REMARK  Name = 
REMARK  7 active torsions:
REMARK  status: ('A' for Active; 'I' for Inactive)
REMARK    1  A    between atoms: C_1  and  C_2
REMARK    2  A    between atoms: C_5  and  O_6
REMARK    3  A    between atoms: O_6  and  C_7
REMARK    4  A    between atoms: C_7  and  C_8
REMARK    5  A    between atoms: C_8  and  C_11
REMARK    6  A    between atoms: C_16  and  O_17
REMARK    7  A    between atoms: O_17  and  C_18
REMARK                            x       y       z     vdW  Elec       q    Type
REMARK                         _______ _______ _______ _____ _____    ______ ____
ROOT
ATOM      1  C   UNL     1      44.037   4.264  12.183  0.00  0.00    +0.000 C 
ATOM      2  F   UNL     1      44.107   2.938  12.503  0.00  0.00    +0.000 F 
ATOM      3  F   UNL     1      43.028   4.776  12.945  0.00  0.00    +0.000 F 
ENDROOT
BRANCH   1   4
ATOM      4  C   UNL     1      45.358   4.977  12.443  0.00  0.00    +0.000 A 
ATOM      5  C   UNL     1      45.840   5.940  11.543  0.00  0.00    +0.000 A 
ATOM      6  C   UNL     1      47.011   6.643  11.827  0.00  0.00    +0.000 A 
ATOM      7  C   UNL     1      47.716   6.385  13.002  0.00  0.00    +0.000 A 
ATOM      8  F   UNL     1      48.816   7.111  13.245  0.00  0.00    +0.000 F 
ATOM      9  C   UNL     1      47.270   5.418  13.901  0.00  0.00    +0.000 A 
ATOM     10  C   UNL     1      46.086   4.722  13.618  0.00  0.00    +0.000 A 
BRANCH   9  11
ATOM     11  O   UNL     1      47.863   5.092  15.095  0.00  0.00    +0.000 OA
BRANCH  11  12
ATOM     12  C   UNL     1      47.226   4.119  15.952  0.00  0.00    +0.000 C 
ATOM     13  C   UNL     1      47.177   4.440  17.468  0.00  0.00    +0.000 C 
ATOM     14  C   UNL     1      47.591   2.988  17.753  0.00  0.00    +0.000 C 
ATOM     15  C   UNL     1      48.121   2.906  16.313  0.00  0.00    +0.000 C 
ENDBRANCH  11  12
ENDBRANCH   9  11
ENDBRANCH   1   4
BRANCH   1  16
ATOM     16  C   UNL     1      43.670   4.403  10.695  0.00  0.00    +0.000 C 
BRANCH  16  17
ATOM     17  O   UNL     1      43.712   3.144  10.009  0.00  0.00    +0.000 OA
BRANCH  17  22
ATOM     18  C   UNL     1      47.915   2.155   6.308  0.00  0.00    +0.000 C 
ATOM     19  C   UNL     1      46.807   2.449   7.275  0.00  0.00    +0.000 A 
ATOM     20  C   UNL     1      46.295   3.742   7.401  0.00  0.00    +0.000 A 
ATOM     21  C   UNL     1      45.261   4.014   8.304  0.00  0.00    +0.000 A 
ATOM     22  C   UNL     1      44.721   2.995   9.091  0.00  0.00    +0.000 A 
ATOM     23  C   UNL     1      45.230   1.702   8.964  0.00  0.00    +0.000 A 
ATOM     24  C   UNL     1      46.265   1.428   8.063  0.00  0.00    +0.000 A 
ENDBRANCH  17  22
ENDBRANCH  16  17
ENDBRANCH   1  16
TORSDOF 6
ENDMDL
MODEL 2
REMARK VINA RESULT:    -7.682      2.095      3.967
REMARK INTER + INTRA:         -11.552
REMARK INTER:                 -10.476
REMARK INTRA:                  -1.076
REMARK UNBOUND:                -1.175
REMARK  Name = 
REMARK  7 active torsions:
REMARK  status: ('A' for Active; 'I' for Inactive)
REMARK    1  A    between atoms: C_1  and  C_2
REMARK    2  A    between atoms: C_5  and  O_6
REMARK    3  A    between atoms: O_6  and  C_7
REMARK    4  A    between atoms: C_7  and  C_8
REMARK    5  A    between atoms: C_8  and  C_11
REMARK    6  A    between atoms: C_16  and  O_17
REMARK    7  A    between atoms: O_17  and  C_18
REMARK                            x       y       z     vdW  Elec       q    Type
REMARK                         _______ _______ _______ _____ _____    ______ ____
ROOT
ATOM      1  C   UNL     1      43.382   5.495  12.106  0.00  0.00    +0.000 C 
ATOM      2  F   UNL     1      42.517   5.294  13.143  0.00  0.00    +0.000 F 
ATOM      3  F   UNL     1      42.864   6.530  11.385  0.00  0.00    +0.000 F 
ENDROOT
BRANCH   1   4
ATOM      4  C   UNL     1      44.791   5.800  12.600  0.00  0.00    +0.000 A 
ATOM      5  C   UNL     1      45.665   4.761  12.955  0.00  0.00    +0.000 A 
ATOM      6  C   UNL     1      46.978   5.045  13.331  0.00  0.00    +0.000 A 
ATOM      7  C   UNL     1      47.427   6.364  13.367  0.00  0.00    +0.000 A 
ATOM      8  F   UNL     1      48.706   6.581  13.702  0.00  0.00    +0.000 F 
ATOM      9  C   UNL     1      46.573   7.415  13.040  0.00  0.00    +0.000 A 
ATOM     10  C   UNL     1      45.257   7.125  12.650  0.00  0.00    +0.000 A 
BRANCH   9  11
ATOM     11  O   UNL     1      46.904   8.747  13.017  0.00  0.00    +0.000 OA
BRANCH  11  12
ATOM     12  C   UNL     1      47.515   9.296  11.828  0.00  0.00    +0.000 C 
ATOM     13  C   UNL     1      49.064   9.343  11.790  0.00  0.00    +0.000 C 
ATOM     14  C   UNL     1      48.972  10.770  11.230  0.00  0.00    +0.000 C 
ATOM     15  C   UNL     1      47.541  10.845  11.783  0.00  0.00    +0.000 C 
ENDBRANCH  11  12
ENDBRANCH   9  11
ENDBRANCH   1   4
BRANCH   1  16
ATOM     16  C   UNL     1      43.415   4.231  11.229  0.00  0.00    +0.000 C 
BRANCH  16  17
ATOM     17  O   UNL     1      43.636   4.539   9.846  0.00  0.00    +0.000 OA
BRANCH  17  22
ATOM     18  C   UNL     1      47.549   1.579   6.970  0.00  0.00    +0.000 C 
ATOM     19  C   UNL     1      46.506   2.331   7.743  0.00  0.00    +0.000 A 
ATOM     20  C   UNL     1      45.632   1.658   8.598  0.00  0.00    +0.000 A 
ATOM     21  C   UNL     1      44.658   2.361   9.319  0.00  0.00    +0.000 A 
ATOM     22  C   UNL     1      44.550   3.748   9.195  0.00  0.00    +0.000 A 
ATOM     23  C   UNL     1      45.426   4.421   8.342  0.00  0.00    +0.000 A 
ATOM     24  C   UNL     1      46.398   3.720   7.620  0.00  0.00    +0.000 A 
ENDBRANCH  17  22
ENDBRANCH  16  17
ENDBRANCH   1  16
TORSDOF 6
ENDMDL
MODEL 3
REMARK VINA RESULT:    -7.336      2.468      3.192
REMARK INTER + INTRA:         -11.084
REMARK INTER:                 -10.063
REMARK INTRA:                  -1.020
REMARK UNBOUND:                -1.175
REMARK  Name = 
REMARK  7 active torsions:
REMARK  status: ('A' for Active; 'I' for Inactive)
REMARK    1  A    between atoms: C_1  and  C_2
REMARK    2  A    between atoms: C_5  and  O_6
REMARK    3  A    between atoms: O_6  and  C_7
REMARK    4  A    between atoms: C_7  and  C_8
REMARK    5  A    between atoms: C_8  and  C_11
REMARK    6  A    between atoms: C_16  and  O_17
REMARK    7  A    between atoms: O_17  and  C_18
REMARK                            x       y       z     vdW  Elec       q    Type
REMARK                         _______ _______ _______ _____ _____    ______ ____
ROOT
ATOM      1  C   UNL     1      44.263   4.788  12.015  0.00  0.00    +0.000 C 
ATOM      2  F   UNL     1      45.167   3.794  12.255  0.00  0.00    +0.000 F 
ATOM      3  F   UNL     1      43.275   4.622  12.940  0.00  0.00    +0.000 F 
ENDROOT
BRANCH   1   4
ATOM      4  C   UNL     1      44.903   6.167  12.113  0.00  0.00    +0.000 A 
ATOM      5  C   UNL     1      44.325   7.272  11.469  0.00  0.00    +0.000 A 
ATOM      6  C   UNL     1      44.874   8.545  11.627  0.00  0.00    +0.000 A 
ATOM      7  C   UNL     1      46.007   8.725  12.419  0.00  0.00    +0.000 A 
ATOM      8  F   UNL     1      46.475   9.972  12.567  0.00  0.00    +0.000 F 
ATOM      9  C   UNL     1      46.613   7.641  13.051  0.00  0.00    +0.000 A 
ATOM     10  C   UNL     1      46.051   6.366  12.900  0.00  0.00    +0.000 A 
BRANCH   9  11
ATOM     11  O   UNL     1      47.713   7.697  13.870  0.00  0.00    +0.000 OA
BRANCH  11  12
ATOM     12  C   UNL     1      49.030   7.689  13.274  0.00  0.00    +0.000 C 
ATOM     13  C   UNL     1      49.641   9.063  12.898  0.00  0.00    +0.000 C 
ATOM     14  C   UNL     1      50.091   8.456  11.560  0.00  0.00    +0.000 C 
ATOM     15  C   UNL     1      49.043   7.352  11.762  0.00  0.00    +0.000 C 
ENDBRANCH  11  12
ENDBRANCH   9  11
ENDBRANCH   1   4
BRANCH   1  16
ATOM     16  C   UNL     1      43.676   4.602  10.604  0.00  0.00    +0.000 C 
BRANCH  16  17
ATOM     17  O   UNL     1      43.875   3.271  10.108  0.00  0.00    +0.000 OA
BRANCH  17  22
ATOM     18  C   UNL     1      47.900   2.305   6.208  0.00  0.00    +0.000 C 
ATOM     19  C   UNL     1      46.840   2.593   7.230  0.00  0.00    +0.000 A 
ATOM     20  C   UNL     1      46.417   3.902   7.467  0.00  0.00    +0.000 A 
ATOM     21  C   UNL     1      45.428   4.170   8.421  0.00  0.00    +0.000 A 
ATOM     22  C   UNL     1      44.847   3.129   9.149  0.00  0.00    +0.000 A 
ATOM     23  C   UNL     1      45.267   1.821   8.911  0.00  0.00    +0.000 A 
ATOM     24  C   UNL     1      46.257   1.552   7.958  0.00  0.00    +0.000 A 
ENDBRANCH  17  22
ENDBRANCH  16  17
ENDBRANCH   1  16
TORSDOF 6
ENDMDL
MODEL 4
REMARK VINA RESULT:    -7.082      1.650      7.200
REMARK INTER + INTRA:         -10.741
REMARK INTER:                  -9.673
REMARK INTRA:                  -1.069
REMARK UNBOUND:                -1.175
REMARK  Name = 
REMARK  7 active torsions:
REMARK  status: ('A' for Active; 'I' for Inactive)
REMARK    1  A    between atoms: C_1  and  C_2
REMARK    2  A    between atoms: C_5  and  O_6
REMARK    3  A    between atoms: O_6  and  C_7
REMARK    4  A    between atoms: C_7  and  C_8
REMARK    5  A    between atoms: C_8  and  C_11
REMARK    6  A    between atoms: C_16  and  O_17
REMARK    7  A    between atoms: O_17  and  C_18
REMARK                            x       y       z     vdW  Elec       q    Type
REMARK                         _______ _______ _______ _____ _____    ______ ____
ROOT
ATOM      1  C   UNL     1      45.697   6.680  11.582  0.00  0.00    +0.000 C 
ATOM      2  F   UNL     1      46.728   6.704  10.687  0.00  0.00    +0.000 F 
ATOM      3  F   UNL     1      44.853   7.682  11.203  0.00  0.00    +0.000 F 
ENDROOT
BRANCH   1   4
ATOM      4  C   UNL     1      44.997   5.327  11.599  0.00  0.00    +0.000 A 
ATOM      5  C   UNL     1      44.173   4.961  12.674  0.00  0.00    +0.000 A 
ATOM      6  C   UNL     1      43.475   3.753  12.645  0.00  0.00    +0.000 A 
ATOM      7  C   UNL     1      43.600   2.897  11.552  0.00  0.00    +0.000 A 
ATOM      8  F   UNL     1      42.881   1.766  11.557  0.00  0.00    +0.000 F 
ATOM      9  C   UNL     1      44.428   3.228  10.481  0.00  0.00    +0.000 A 
ATOM     10  C   UNL     1      45.119   4.448  10.508  0.00  0.00    +0.000 A 
BRANCH   9  11
ATOM     11  O   UNL     1      44.614   2.481   9.345  0.00  0.00    +0.000 OA
BRANCH  11  12
ATOM     12  C   UNL     1      45.890   2.539   8.669  0.00  0.00    +0.000 C 
ATOM     13  C   UNL     1      45.906   3.159   7.248  0.00  0.00    +0.000 C 
ATOM     14  C   UNL     1      46.810   2.003   6.793  0.00  0.00    +0.000 C 
ATOM     15  C   UNL     1      46.324   1.204   8.012  0.00  0.00    +0.000 C 
ENDBRANCH  11  12
ENDBRANCH   9  11
ENDBRANCH   1   4
BRANCH   1  16
ATOM     16  C   UNL     1      46.246   6.983  12.988  0.00  0.00    +0.000 C 
BRANCH  16  17
ATOM     17  O   UNL     1      47.547   6.417  13.193  0.00  0.00    +0.000 OA
BRANCH  17  22
ATOM     18  C   UNL     1      48.252   3.895  18.242  0.00  0.00    +0.000 C 
ATOM     19  C   UNL     1      48.087   4.585  16.920  0.00  0.00    +0.000 A 
ATOM     20  C   UNL     1      48.741   5.791  16.660  0.00  0.00    +0.000 A 
ATOM     21  C   UNL     1      48.586   6.434  15.426  0.00  0.00    +0.000 A 
ATOM     22  C   UNL     1      47.776   5.877  14.434  0.00  0.00    +0.000 A 
ATOM     23  C   UNL     1      47.124   4.671  14.693  0.00  0.00    +0.000 A 
ATOM     24  C   UNL     1      47.277   4.027  15.926  0.00  0.00    +0.000 A 
ENDBRANCH  17  22
ENDBRANCH  16  17
ENDBRANCH   1  16
TORSDOF 6
ENDMDL
MODEL 5
REMARK VINA RESULT:    -6.941      2.897      7.265
REMARK INTER + INTRA:         -10.551
REMARK INTER:                  -9.785
REMARK INTRA:                  -0.766
REMARK UNBOUND:                -1.175
REMARK  Name = 
REMARK  7 active torsions:
REMARK  status: ('A' for Active; 'I' for Inactive)
REMARK    1  A    between atoms: C_1  and  C_2
REMARK    2  A    between atoms: C_5  and  O_6
REMARK    3  A    between atoms: O_6  and  C_7
REMARK    4  A    between atoms: C_7  and  C_8
REMARK    5  A    between atoms: C_8  and  C_11
REMARK    6  A    between atoms: C_16  and  O_17
REMARK    7  A    between atoms: O_17  and  C_18
REMARK                            x       y       z     vdW  Elec       q    Type
REMARK                         _______ _______ _______ _____ _____    ______ ____
ROOT
ATOM      1  C   UNL     1      45.091   6.133  11.856  0.00  0.00    +0.000 C 
ATOM      2  F   UNL     1      44.690   7.237  11.159  0.00  0.00    +0.000 F 
ATOM      3  F   UNL     1      44.337   6.118  12.993  0.00  0.00    +0.000 F 
ENDROOT
BRANCH   1   4
ATOM      4  C   UNL     1      44.912   4.857  11.043  0.00  0.00    +0.000 A 
ATOM      5  C   UNL     1      44.379   3.701  11.633  0.00  0.00    +0.000 A 
ATOM      6  C   UNL     1      44.146   2.562  10.862  0.00  0.00    +0.000 A 
ATOM      7  C   UNL     1      44.453   2.561   9.501  0.00  0.00    +0.000 A 
ATOM      8  F   UNL     1      44.179   1.454   8.798  0.00  0.00    +0.000 F 
ATOM      9  C   UNL     1      45.004   3.690   8.897  0.00  0.00    +0.000 A 
ATOM     10  C   UNL     1      45.224   4.837   9.672  0.00  0.00    +0.000 A 
BRANCH   9  11
ATOM     11  O   UNL     1      45.325   3.817   7.568  0.00  0.00    +0.000 OA
BRANCH  11  12
ATOM     12  C   UNL     1      46.676   3.531   7.144  0.00  0.00    +0.000 C 
ATOM     13  C   UNL     1      46.899   3.273   5.631  0.00  0.00    +0.000 C 
ATOM     14  C   UNL     1      47.795   2.082   6.003  0.00  0.00    +0.000 C 
ATOM     15  C   UNL     1      47.123   2.066   7.384  0.00  0.00    +0.000 C 
ENDBRANCH  11  12
ENDBRANCH   9  11
ENDBRANCH   1   4
BRANCH   1  16
ATOM     16  C   UNL     1      46.575   6.290  12.233  0.00  0.00    +0.000 C 
BRANCH  16  17
ATOM     17  O   UNL     1      46.889   7.627  12.643  0.00  0.00    +0.000 OA
BRANCH  17  22
ATOM     18  C   UNL     1      51.659  10.050  10.714  0.00  0.00    +0.000 C 
ATOM     19  C   UNL     1      50.417   9.381  11.225  0.00  0.00    +0.000 A 
ATOM     20  C   UNL     1      50.412   8.015  11.515  0.00  0.00    +0.000 A 
ATOM     21  C   UNL     1      49.252   7.392  11.990  0.00  0.00    +0.000 A 
ATOM     22  C   UNL     1      48.082   8.129  12.186  0.00  0.00    +0.000 A 
ATOM     23  C   UNL     1      48.088   9.494  11.900  0.00  0.00    +0.000 A 
ATOM     24  C   UNL     1      49.246  10.119  11.422  0.00  0.00    +0.000 A 
ENDBRANCH  17  22
ENDBRANCH  16  17
ENDBRANCH   1  16
TORSDOF 6
ENDMDL
MODEL 6
REMARK VINA RESULT:    -6.776      1.715      2.244
REMARK INTER + INTRA:         -10.328
REMARK INTER:                  -9.733
REMARK INTRA:                  -0.596
REMARK UNBOUND:                -1.175
REMARK  Name = 
REMARK  7 active torsions:
REMARK  status: ('A' for Active; 'I' for Inactive)
REMARK    1  A    between atoms: C_1  and  C_2
REMARK    2  A    between atoms: C_5  and  O_6
REMARK    3  A    between atoms: O_6  and  C_7
REMARK    4  A    between atoms: C_7  and  C_8
REMARK    5  A    between atoms: C_8  and  C_11
REMARK    6  A    between atoms: C_16  and  O_17
REMARK    7  A    between atoms: O_17  and  C_18
REMARK                            x       y       z     vdW  Elec       q    Type
REMARK                         _______ _______ _______ _____ _____    ______ ____
ROOT
ATOM      1  C   UNL     1      45.060   4.897  12.368  0.00  0.00    +0.000 C 
ATOM      2  F   UNL     1      45.765   3.732  12.482  0.00  0.00    +0.000 F 
ATOM      3  F   UNL     1      43.975   4.755  13.183  0.00  0.00    +0.000 F 
ENDROOT
BRANCH   1   4
ATOM      4  C   UNL     1      45.903   6.105  12.755  0.00  0.00    +0.000 A 
ATOM      5  C   UNL     1      45.354   7.397  12.734  0.00  0.00    +0.000 A 
ATOM      6  C   UNL     1      46.109   8.488  13.163  0.00  0.00    +0.000 A 
ATOM      7  C   UNL     1      47.419   8.304  13.607  0.00  0.00    +0.000 A 
ATOM      8  F   UNL     1      48.089   9.379  14.041  0.00  0.00    +0.000 F 
ATOM      9  C   UNL     1      47.994   7.035  13.616  0.00  0.00    +0.000 A 
ATOM     10  C   UNL     1      47.228   5.938  13.196  0.00  0.00    +0.000 A 
BRANCH   9  11
ATOM     11  O   UNL     1      49.259   6.726  14.049  0.00  0.00    +0.000 OA
BRANCH  11  12
ATOM     12  C   UNL     1      49.486   6.517  15.461  0.00  0.00    +0.000 C 
ATOM     13  C   UNL     1      48.408   5.714  16.235  0.00  0.00    +0.000 C 
ATOM     14  C   UNL     1      48.495   6.754  17.363  0.00  0.00    +0.000 C 
ATOM     15  C   UNL     1      49.116   7.730  16.352  0.00  0.00    +0.000 C 
ENDBRANCH  11  12
ENDBRANCH   9  11
ENDBRANCH   1   4
BRANCH   1  16
ATOM     16  C   UNL     1      44.585   5.055  10.913  0.00  0.00    +0.000 C 
BRANCH  16  17
ATOM     17  O   UNL     1      44.197   3.803  10.332  0.00  0.00    +0.000 OA
BRANCH  17  22
ATOM     18  C   UNL     1      47.576   2.218   6.041  0.00  0.00    +0.000 C 
ATOM     19  C   UNL     1      46.682   2.604   7.182  0.00  0.00    +0.000 A 
ATOM     20  C   UNL     1      46.163   1.632   8.040  0.00  0.00    +0.000 A 
ATOM     21  C   UNL     1      45.329   1.993   9.104  0.00  0.00    +0.000 A 
ATOM     22  C   UNL     1      45.005   3.333   9.327  0.00  0.00    +0.000 A 
ATOM     23  C   UNL     1      45.525   4.305   8.472  0.00  0.00    +0.000 A 
ATOM     24  C   UNL     1      46.359   3.945   7.406  0.00  0.00    +0.000 A 
ENDBRANCH  17  22
ENDBRANCH  16  17
ENDBRANCH   1  16
TORSDOF 6
ENDMDL
MODEL 7
REMARK VINA RESULT:    -6.681      2.361      3.432
REMARK INTER + INTRA:         -10.199
REMARK INTER:                  -9.358
REMARK INTRA:                  -0.841
REMARK UNBOUND:                -1.175
REMARK  Name = 
REMARK  7 active torsions:
REMARK  status: ('A' for Active; 'I' for Inactive)
REMARK    1  A    between atoms: C_1  and  C_2
REMARK    2  A    between atoms: C_5  and  O_6
REMARK    3  A    between atoms: O_6  and  C_7
REMARK    4  A    between atoms: C_7  and  C_8
REMARK    5  A    between atoms: C_8  and  C_11
REMARK    6  A    between atoms: C_16  and  O_17
REMARK    7  A    between atoms: O_17  and  C_18
REMARK                            x       y       z     vdW  Elec       q    Type
REMARK                         _______ _______ _______ _____ _____    ______ ____
ROOT
ATOM      1  C   UNL     1      45.131   5.964  11.607  0.00  0.00    +0.000 C 
ATOM      2  F   UNL     1      44.144   6.885  11.815  0.00  0.00    +0.000 F 
ATOM      3  F   UNL     1      45.816   6.395  10.510  0.00  0.00    +0.000 F 
ENDROOT
BRANCH   1   4
ATOM      4  C   UNL     1      46.039   5.826  12.823  0.00  0.00    +0.000 A 
ATOM      5  C   UNL     1      45.981   4.682  13.633  0.00  0.00    +0.000 A 
ATOM      6  C   UNL     1      46.869   4.529  14.698  0.00  0.00    +0.000 A 
ATOM      7  C   UNL     1      47.813   5.519  14.971  0.00  0.00    +0.000 A 
ATOM      8  F   UNL     1      48.665   5.309  15.983  0.00  0.00    +0.000 F 
ATOM      9  C   UNL     1      47.876   6.675  14.195  0.00  0.00    +0.000 A 
ATOM     10  C   UNL     1      46.990   6.819  13.118  0.00  0.00    +0.000 A 
BRANCH   9  11
ATOM     11  O   UNL     1      48.771   7.703  14.351  0.00  0.00    +0.000 OA
BRANCH  11  12
ATOM     12  C   UNL     1      48.305   8.963  14.885  0.00  0.00    +0.000 C 
ATOM     13  C   UNL     1      49.306  10.147  14.867  0.00  0.00    +0.000 C 
ATOM     14  C   UNL     1      48.874  10.486  16.302  0.00  0.00    +0.000 C 
ATOM     15  C   UNL     1      48.342   9.051  16.432  0.00  0.00    +0.000 C 
ENDBRANCH  11  12
ENDBRANCH   9  11
ENDBRANCH   1   4
BRANCH   1  16
ATOM     16  C   UNL     1      44.487   4.600  11.299  0.00  0.00    +0.000 C 
BRANCH  16  17
ATOM     17  O   UNL     1      44.119   4.476   9.919  0.00  0.00    +0.000 OA
BRANCH  17  22
ATOM     18  C   UNL     1      47.567   1.461   6.548  0.00  0.00    +0.000 C 
ATOM     19  C   UNL     1      46.649   2.227   7.453  0.00  0.00    +0.000 A 
ATOM     20  C   UNL     1      45.911   1.571   8.440  0.00  0.00    +0.000 A 
ATOM     21  C   UNL     1      45.054   2.288   9.284  0.00  0.00    +0.000 A 
ATOM     22  C   UNL     1      44.928   3.672   9.154  0.00  0.00    +0.000 A 
ATOM     23  C   UNL     1      45.667   4.329   8.170  0.00  0.00    +0.000 A 
ATOM     24  C   UNL     1      46.523   3.614   7.324  0.00  0.00    +0.000 A 
ENDBRANCH  17  22
ENDBRANCH  16  17
ENDBRANCH   1  16
TORSDOF 6
ENDMDL
MODEL 8
REMARK VINA RESULT:    -6.285      2.397      7.065
REMARK INTER + INTRA:          -9.665
REMARK INTER:                  -8.959
REMARK INTRA:                  -0.706
REMARK UNBOUND:                -1.175
REMARK  Name = 
REMARK  7 active torsions:
REMARK  status: ('A' for Active; 'I' for Inactive)
REMARK    1  A    between atoms: C_1  and  C_2
REMARK    2  A    between atoms: C_5  and  O_6
REMARK    3  A    between atoms: O_6  and  C_7
REMARK    4  A    between atoms: C_7  and  C_8
REMARK    5  A    between atoms: C_8  and  C_11
REMARK    6  A    between atoms: C_16  and  O_17
REMARK    7  A    between atoms: O_17  and  C_18
REMARK                            x       y       z     vdW  Elec       q    Type
REMARK                         _______ _______ _______ _____ _____    ______ ____
ROOT
ATOM      1  C   UNL     1      45.302   6.907  11.500  0.00  0.00    +0.000 C 
ATOM      2  F   UNL     1      46.330   7.004  10.606  0.00  0.00    +0.000 F 
ATOM      3  F   UNL     1      44.371   7.817  11.095  0.00  0.00    +0.000 F 
ENDROOT
BRANCH   1   4
ATOM      4  C   UNL     1      44.730   5.496  11.549  0.00  0.00    +0.000 A 
ATOM      5  C   UNL     1      43.958   5.074  12.643  0.00  0.00    +0.000 A 
ATOM      6  C   UNL     1      43.374   3.807  12.644  0.00  0.00    +0.000 A 
ATOM      7  C   UNL     1      43.561   2.948  11.562  0.00  0.00    +0.000 A 
ATOM      8  F   UNL     1      42.950   1.756  11.596  0.00  0.00    +0.000 F 
ATOM      9  C   UNL     1      44.341   3.335  10.474  0.00  0.00    +0.000 A 
ATOM     10  C   UNL     1      44.917   4.613  10.471  0.00  0.00    +0.000 A 
BRANCH   9  11
ATOM     11  O   UNL     1      44.579   2.589   9.346  0.00  0.00    +0.000 OA
BRANCH  11  12
ATOM     12  C   UNL     1      45.867   2.689   8.699  0.00  0.00    +0.000 C 
ATOM     13  C   UNL     1      45.899   3.347   7.295  0.00  0.00    +0.000 C 
ATOM     14  C   UNL     1      46.834   2.221   6.828  0.00  0.00    +0.000 C 
ATOM     15  C   UNL     1      46.339   1.380   8.015  0.00  0.00    +0.000 C 
ENDBRANCH  11  12
ENDBRANCH   9  11
ENDBRANCH   1   4
BRANCH   1  16
ATOM     16  C   UNL     1      45.816   7.294  12.899  0.00  0.00    +0.000 C 
BRANCH  16  17
ATOM     17  O   UNL     1      46.910   6.468  13.320  0.00  0.00    +0.000 OA
BRANCH  17  22
ATOM     18  C   UNL     1      52.017   8.902  13.901  0.00  0.00    +0.000 C 
ATOM     19  C   UNL     1      50.669   8.271  13.715  0.00  0.00    +0.000 A 
ATOM     20  C   UNL     1      50.001   8.363  12.492  0.00  0.00    +0.000 A 
ATOM     21  C   UNL     1      48.743   7.774  12.321  0.00  0.00    +0.000 A 
ATOM     22  C   UNL     1      48.137   7.081  13.371  0.00  0.00    +0.000 A 
ATOM     23  C   UNL     1      48.805   6.986  14.592  0.00  0.00    +0.000 A 
ATOM     24  C   UNL     1      50.062   7.575  14.766  0.00  0.00    +0.000 A 
ENDBRANCH  17  22
ENDBRANCH  16  17
ENDBRANCH   1  16
TORSDOF 6
ENDMDL
MODEL 9
REMARK VINA RESULT:    -6.056      3.081      7.209
REMARK INTER + INTRA:          -9.356
REMARK INTER:                  -7.315
REMARK INTRA:                  -2.041
REMARK UNBOUND:                -1.175
REMARK  Name = 
REMARK  7 active torsions:
REMARK  status: ('A' for Active; 'I' for Inactive)
REMARK    1  A    between atoms: C_1  and  C_2
REMARK    2  A    between atoms: C_5  and  O_6
REMARK    3  A    between atoms: O_6  and  C_7
REMARK    4  A    between atoms: C_7  and  C_8
REMARK    5  A    between atoms: C_8  and  C_11
REMARK    6  A    between atoms: C_16  and  O_17
REMARK    7  A    between atoms: O_17  and  C_18
REMARK                            x       y       z     vdW  Elec       q    Type
REMARK                         _______ _______ _______ _____ _____    ______ ____
ROOT
ATOM      1  C   UNL     1      48.618   7.525  12.515  0.00  0.00    +0.000 C 
ATOM      2  F   UNL     1      49.802   6.899  12.250  0.00  0.00    +0.000 F 
ATOM      3  F   UNL     1      48.426   8.404  11.490  0.00  0.00    +0.000 F 
ENDROOT
BRANCH   1   4
ATOM      4  C   UNL     1      47.469   6.531  12.630  0.00  0.00    +0.000 A 
ATOM      5  C   UNL     1      46.517   6.416  11.605  0.00  0.00    +0.000 A 
ATOM      6  C   UNL     1      45.513   5.450  11.684  0.00  0.00    +0.000 A 
ATOM      7  C   UNL     1      45.444   4.600  12.787  0.00  0.00    +0.000 A 
ATOM      8  F   UNL     1      44.482   3.667  12.799  0.00  0.00    +0.000 F 
ATOM      9  C   UNL     1      46.364   4.709  13.828  0.00  0.00    +0.000 A 
ATOM     10  C   UNL     1      47.378   5.673  13.740  0.00  0.00    +0.000 A 
BRANCH   9  11
ATOM     11  O   UNL     1      46.410   3.919  14.949  0.00  0.00    +0.000 OA
BRANCH  11  12
ATOM     12  C   UNL     1      47.507   4.082  15.877  0.00  0.00    +0.000 C 
ATOM     13  C   UNL     1      48.300   2.806  16.259  0.00  0.00    +0.000 C 
ATOM     14  C   UNL     1      48.264   3.266  17.725  0.00  0.00    +0.000 C 
ATOM     15  C   UNL     1      47.075   4.170  17.363  0.00  0.00    +0.000 C 
ENDBRANCH  11  12
ENDBRANCH   9  11
ENDBRANCH   1   4
BRANCH   1  16
ATOM     16  C   UNL     1      48.748   8.305  13.835  0.00  0.00    +0.000 C 
BRANCH  16  17
ATOM     17  O   UNL     1      50.005   8.067  14.482  0.00  0.00    +0.000 OA
BRANCH  17  22
ATOM     18  C   UNL     1      49.416   6.123  19.794  0.00  0.00    +0.000 C 
ATOM     19  C   UNL     1      49.599   6.616  18.389  0.00  0.00    +0.000 A 
ATOM     20  C   UNL     1      50.665   6.164  17.609  0.00  0.00    +0.000 A 
ATOM     21  C   UNL     1      50.835   6.626  16.298  0.00  0.00    +0.000 A 
ATOM     22  C   UNL     1      49.937   7.544  15.749  0.00  0.00    +0.000 A 
ATOM     23  C   UNL     1      48.870   7.994  16.527  0.00  0.00    +0.000 A 
ATOM     24  C   UNL     1      48.700   7.534  17.838  0.00  0.00    +0.000 A 
ENDBRANCH  17  22
ENDBRANCH  16  17
ENDBRANCH   1  16
TORSDOF 6
ENDMDL
