MODEL 1
REMARK VINA RESULT:    -8.217      0.000      0.000
REMARK INTER + INTRA:         -11.534
REMARK INTER:                 -10.618
REMARK INTRA:                  -0.916
REMARK UNBOUND:                -0.916
REMARK  Name = 
REMARK  6 active torsions:
REMARK  status: ('A' for Active; 'I' for Inactive)
REMARK    1  A    between atoms: C_1  and  C_2
REMARK    2  A    between atoms: C_2  and  N_3
REMARK    3  A    between atoms: C_2  and  C_14
REMARK    4  A    between atoms: C_4  and  C_6
REMARK    5  A    between atoms: C_17  and  C_18
REMARK    6  A    between atoms: C_18  and  C_19
REMARK                            x       y       z     vdW  Elec       q    Type
REMARK                         _______ _______ _______ _____ _____    ______ ____
ROOT
ATOM      1  C   UNL     1      45.913   8.269  13.221  0.00  0.00    +0.000 C 
ATOM      2  C   UNL     1      46.816   7.051  13.005  0.00  0.00    +0.000 C 
ENDROOT
BRANCH   2   3
ATOM      3  C   UNL     1      46.161   6.069  12.044  0.00  0.00    +0.000 A 
ATOM      4  C   UNL     1      45.813   4.797  12.528  0.00  0.00    +0.000 A 
ATOM      5  C   UNL     1      45.304   3.810  11.679  0.00  0.00    +0.000 A 
ATOM      6  C   UNL     1      45.107   4.072  10.318  0.00  0.00    +0.000 A 
ATOM      7  C   UNL     1      45.420   5.348   9.833  0.00  0.00    +0.000 A 
ATOM      8  C   UNL     1      45.955   6.331  10.681  0.00  0.00    +0.000 A 
BRANCH   6   9
ATOM      9  C   UNL     1      44.617   2.983   9.386  0.00  0.00    +0.000 C 
BRANCH   9  10
ATOM     10  C   UNL     1      45.606   2.473   8.361  0.00  0.00    +0.000 A 
ATOM     11  C   UNL     1      45.929   3.229   7.234  0.00  0.00    +0.000 A 
ATOM     12  C   UNL     1      46.735   2.669   6.246  0.00  0.00    +0.000 A 
ATOM     13  C   UNL     1      47.203   1.370   6.404  0.00  0.00    +0.000 A 
ATOM     14  C   UNL     1      46.853   0.689   7.554  0.00  0.00    +0.000 A 
ATOM     15  N   UNL     1      46.067   1.206   8.528  0.00  0.00    +0.000 NA
ENDBRANCH   9  10
ENDBRANCH   6   9
ENDBRANCH   2   3
BRANCH   2  16
ATOM     16  N   UNL     1      47.198   6.458  14.279  0.00  0.00    +0.000 N 
ATOM     17  C   UNL     1      48.503   6.454  14.706  0.00  0.00    +0.000 C 
ATOM     18  O   UNL     1      49.440   6.880  14.038  0.00  0.00    +0.000 OA
ATOM     19  H   UNL     1      46.464   6.183  14.924  0.00  0.00    +0.000 HD
BRANCH  17  20
ATOM     20  C   UNL     1      48.733   5.897  16.052  0.00  0.00    +0.000 A 
ATOM     21  C   UNL     1      49.609   6.460  16.911  0.00  0.00    +0.000 A 
ATOM     22  S   UNL     1      49.710   5.612  18.463  0.00  0.00    +0.000 S 
ATOM     23  C   UNL     1      48.521   4.497  17.880  0.00  0.00    +0.000 A 
ATOM     24  N   UNL     1      47.908   3.456  18.363  0.00  0.00    +0.000 NA
ATOM     25  C   UNL     1      47.099   3.117  17.306  0.00  0.00    +0.000 A 
ATOM     26  N   UNL     1      47.187   3.894  16.212  0.00  0.00    +0.000 NA
ATOM     27  N   UNL     1      48.124   4.791  16.607  0.00  0.00    +0.000 N 
ENDBRANCH  17  20
ENDBRANCH   2  16
TORSDOF 5
ENDMDL
MODEL 2
REMARK VINA RESULT:    -7.751      1.158      1.522
REMARK INTER + INTRA:         -10.932
REMARK INTER:                  -9.883
REMARK INTRA:                  -1.049
REMARK UNBOUND:                -0.916
REMARK  Name = 
REMARK  6 active torsions:
REMARK  status: ('A' for Active; 'I' for Inactive)
REMARK    1  A    between atoms: C_1  and  C_2
REMARK    2  A    between atoms: C_2  and  N_3
REMARK    3  A    between atoms: C_2  and  C_14
REMARK    4  A    between atoms: C_4  and  C_6
REMARK    5  A    between atoms: C_17  and  C_18
REMARK    6  A    between atoms: C_18  and  C_19
REMARK                            x       y       z     vdW  Elec       q    Type
REMARK                         _______ _______ _______ _____ _____    ______ ____
ROOT
ATOM      1  C   UNL     1      47.425   8.661  14.029  0.00  0.00    +0.000 C 
ATOM      2  C   UNL     1      47.858   7.217  13.761  0.00  0.00    +0.000 C 
ENDROOT
BRANCH   2   3
ATOM      3  C   UNL     1      46.864   6.530  12.834  0.00  0.00    +0.000 A 
ATOM      4  C   UNL     1      46.596   5.166  13.040  0.00  0.00    +0.000 A 
ATOM      5  C   UNL     1      45.777   4.446  12.166  0.00  0.00    +0.000 A 
ATOM      6  C   UNL     1      45.180   5.074  11.067  0.00  0.00    +0.000 A 
ATOM      7  C   UNL     1      45.414   6.441  10.873  0.00  0.00    +0.000 A 
ATOM      8  C   UNL     1      46.259   7.158  11.736  0.00  0.00    +0.000 A 
BRANCH   6   9
ATOM      9  C   UNL     1      44.345   4.280  10.085  0.00  0.00    +0.000 C 
BRANCH   9  10
ATOM     10  C   UNL     1      45.099   3.507   9.024  0.00  0.00    +0.000 A 
ATOM     11  C   UNL     1      45.297   2.131   9.140  0.00  0.00    +0.000 A 
ATOM     12  C   UNL     1      46.112   1.481   8.217  0.00  0.00    +0.000 A 
ATOM     13  C   UNL     1      46.708   2.213   7.198  0.00  0.00    +0.000 A 
ATOM     14  C   UNL     1      46.452   3.571   7.139  0.00  0.00    +0.000 A 
ATOM     15  N   UNL     1      45.670   4.230   8.026  0.00  0.00    +0.000 NA
ENDBRANCH   9  10
ENDBRANCH   6   9
ENDBRANCH   2   3
BRANCH   2  16
ATOM     16  N   UNL     1      48.083   6.504  15.010  0.00  0.00    +0.000 N 
ATOM     17  C   UNL     1      49.315   6.493  15.617  0.00  0.00    +0.000 C 
ATOM     18  O   UNL     1      50.317   7.012  15.136  0.00  0.00    +0.000 OA
ATOM     19  H   UNL     1      47.279   6.142  15.513  0.00  0.00    +0.000 HD
BRANCH  17  20
ATOM     20  C   UNL     1      49.379   5.804  16.920  0.00  0.00    +0.000 A 
ATOM     21  C   UNL     1      50.101   6.298  17.947  0.00  0.00    +0.000 A 
ATOM     22  S   UNL     1      50.021   5.295  19.405  0.00  0.00    +0.000 S 
ATOM     23  C   UNL     1      48.974   4.213  18.549  0.00  0.00    +0.000 A 
ATOM     24  N   UNL     1      48.346   3.110  18.833  0.00  0.00    +0.000 NA
ATOM     25  C   UNL     1      47.707   2.861  17.642  0.00  0.00    +0.000 A 
ATOM     26  N   UNL     1      47.914   3.752  16.656  0.00  0.00    +0.000 NA
ATOM     27  N   UNL     1      48.747   4.629  17.268  0.00  0.00    +0.000 N 
ENDBRANCH  17  20
ENDBRANCH   2  16
TORSDOF 5
ENDMDL
MODEL 3
REMARK VINA RESULT:    -7.687      1.415      1.894
REMARK INTER + INTRA:         -10.849
REMARK INTER:                 -10.133
REMARK INTRA:                  -0.716
REMARK UNBOUND:                -0.916
REMARK  Name = 
REMARK  6 active torsions:
REMARK  status: ('A' for Active; 'I' for Inactive)
REMARK    1  A    between atoms: C_1  and  C_2
REMARK    2  A    between atoms: C_2  and  N_3
REMARK    3  A    between atoms: C_2  and  C_14
REMARK    4  A    between atoms: C_4  and  C_6
REMARK    5  A    between atoms: C_17  and  C_18
REMARK    6  A    between atoms: C_18  and  C_19
REMARK                            x       y       z     vdW  Elec       q    Type
REMARK                         _______ _______ _______ _____ _____    ______ ____
ROOT
ATOM      1  C   UNL     1      46.499   8.048  13.522  0.00  0.00    +0.000 C 
ATOM      2  C   UNL     1      47.128   6.669  13.304  0.00  0.00    +0.000 C 
ENDROOT
BRANCH   2   3
ATOM      3  C   UNL     1      46.364   5.902  12.233  0.00  0.00    +0.000 A 
ATOM      4  C   UNL     1      45.812   4.656  12.574  0.00  0.00    +0.000 A 
ATOM      5  C   UNL     1      45.188   3.850  11.617  0.00  0.00    +0.000 A 
ATOM      6  C   UNL     1      45.079   4.277  10.288  0.00  0.00    +0.000 A 
ATOM      7  C   UNL     1      45.596   5.532   9.946  0.00  0.00    +0.000 A 
ATOM      8  C   UNL     1      46.245   6.330  10.903  0.00  0.00    +0.000 A 
BRANCH   6   9
ATOM      9  C   UNL     1      44.461   3.376   9.239  0.00  0.00    +0.000 C 
BRANCH   9  10
ATOM     10  C   UNL     1      45.401   2.799   8.203  0.00  0.00    +0.000 A 
ATOM     11  C   UNL     1      45.981   1.542   8.378  0.00  0.00    +0.000 A 
ATOM     12  C   UNL     1      46.945   1.106   7.473  0.00  0.00    +0.000 A 
ATOM     13  C   UNL     1      47.308   1.928   6.414  0.00  0.00    +0.000 A 
ATOM     14  C   UNL     1      46.679   3.153   6.298  0.00  0.00    +0.000 A 
ATOM     15  N   UNL     1      45.743   3.606   7.165  0.00  0.00    +0.000 NA
ENDBRANCH   9  10
ENDBRANCH   6   9
ENDBRANCH   2   3
BRANCH   2  16
ATOM     16  N   UNL     1      47.250   5.951  14.564  0.00  0.00    +0.000 N 
ATOM     17  C   UNL     1      48.398   6.009  15.315  0.00  0.00    +0.000 C 
ATOM     18  O   UNL     1      49.413   6.602  14.964  0.00  0.00    +0.000 OA
ATOM     19  H   UNL     1      46.418   5.527  14.964  0.00  0.00    +0.000 HD
BRANCH  17  20
ATOM     20  C   UNL     1      48.352   5.303  16.609  0.00  0.00    +0.000 A 
ATOM     21  C   UNL     1      48.304   3.956  16.680  0.00  0.00    +0.000 A 
ATOM     22  S   UNL     1      48.255   3.343  18.341  0.00  0.00    +0.000 S 
ATOM     23  C   UNL     1      48.312   4.981  18.899  0.00  0.00    +0.000 A 
ATOM     24  N   UNL     1      48.332   5.566  20.060  0.00  0.00    +0.000 NA
ATOM     25  C   UNL     1      48.393   6.886  19.686  0.00  0.00    +0.000 A 
ATOM     26  N   UNL     1      48.411   7.132  18.364  0.00  0.00    +0.000 NA
ATOM     27  N   UNL     1      48.356   5.872  17.865  0.00  0.00    +0.000 N 
ENDBRANCH  17  20
ENDBRANCH   2  16
TORSDOF 5
ENDMDL
MODEL 4
REMARK VINA RESULT:    -7.427      2.403      3.200
REMARK INTER + INTRA:         -10.513
REMARK INTER:                  -9.471
REMARK INTRA:                  -1.042
REMARK UNBOUND:                -0.916
REMARK  Name = 
REMARK  6 active torsions:
REMARK  status: ('A' for Active; 'I' for Inactive)
REMARK    1  A    between atoms: C_1  and  C_2
REMARK    2  A    between atoms: C_2  and  N_3
REMARK    3  A    between atoms: C_2  and  C_14
REMARK    4  A    between atoms: C_4  and  C_6
REMARK    5  A    between atoms: C_17  and  C_18
REMARK    6  A    between atoms: C_18  and  C_19
REMARK                            x       y       z     vdW  Elec       q    Type
REMARK                         _______ _______ _______ _____ _____    ______ ____
ROOT
ATOM      1  C   UNL     1      49.512   7.829  13.930  0.00  0.00    +0.000 C 
ATOM      2  C   UNL     1      48.729   6.605  14.413  0.00  0.00    +0.000 C 
ENDROOT
BRANCH   2   3
ATOM      3  C   UNL     1      47.596   6.286  13.446  0.00  0.00    +0.000 A 
ATOM      4  C   UNL     1      46.796   5.161  13.709  0.00  0.00    +0.000 A 
ATOM      5  C   UNL     1      45.806   4.748  12.812  0.00  0.00    +0.000 A 
ATOM      6  C   UNL     1      45.572   5.462  11.630  0.00  0.00    +0.000 A 
ATOM      7  C   UNL     1      46.342   6.603  11.377  0.00  0.00    +0.000 A 
ATOM      8  C   UNL     1      47.353   7.003  12.266  0.00  0.00    +0.000 A 
BRANCH   6   9
ATOM      9  C   UNL     1      44.544   4.977  10.629  0.00  0.00    +0.000 C 
BRANCH   9  10
ATOM     10  C   UNL     1      45.040   4.041   9.549  0.00  0.00    +0.000 A 
ATOM     11  C   UNL     1      44.949   2.657   9.697  0.00  0.00    +0.000 A 
ATOM     12  C   UNL     1      45.541   1.830   8.746  0.00  0.00    +0.000 A 
ATOM     13  C   UNL     1      46.206   2.398   7.667  0.00  0.00    +0.000 A 
ATOM     14  C   UNL     1      46.242   3.778   7.580  0.00  0.00    +0.000 A 
ATOM     15  N   UNL     1      45.681   4.606   8.492  0.00  0.00    +0.000 NA
ENDBRANCH   9  10
ENDBRANCH   6   9
ENDBRANCH   2   3
BRANCH   2  16
ATOM     16  N   UNL     1      48.292   6.782  15.790  0.00  0.00    +0.000 N 
ATOM     17  C   UNL     1      48.753   5.971  16.799  0.00  0.00    +0.000 C 
ATOM     18  O   UNL     1      49.500   5.016  16.617  0.00  0.00    +0.000 OA
ATOM     19  H   UNL     1      47.758   7.612  16.027  0.00  0.00    +0.000 HD
BRANCH  17  20
ATOM     20  C   UNL     1      48.293   6.317  18.157  0.00  0.00    +0.000 A 
ATOM     21  C   UNL     1      48.163   5.381  19.120  0.00  0.00    +0.000 A 
ATOM     22  S   UNL     1      47.597   6.038  20.664  0.00  0.00    +0.000 S 
ATOM     23  C   UNL     1      47.563   7.607  19.932  0.00  0.00    +0.000 A 
ATOM     24  N   UNL     1      47.267   8.810  20.327  0.00  0.00    +0.000 NA
ATOM     25  C   UNL     1      47.498   9.526  19.178  0.00  0.00    +0.000 A 
ATOM     26  N   UNL     1      47.917   8.823  18.111  0.00  0.00    +0.000 NA
ATOM     27  N   UNL     1      47.953   7.569  18.623  0.00  0.00    +0.000 N 
ENDBRANCH  17  20
ENDBRANCH   2  16
TORSDOF 5
ENDMDL
MODEL 5
REMARK VINA RESULT:    -7.425      2.806      4.071
REMARK INTER + INTRA:         -10.511
REMARK INTER:                  -9.503
REMARK INTRA:                  -1.008
REMARK UNBOUND:                -0.916
REMARK  Name = 
REMARK  6 active torsions:
REMARK  status: ('A' for Active; 'I' for Inactive)
REMARK    1  A    between atoms: C_1  and  C_2
REMARK    2  A    between atoms: C_2  and  N_3
REMARK    3  A    between atoms: C_2  and  C_14
REMARK    4  A    between atoms: C_4  and  C_6
REMARK    5  A    between atoms: C_17  and  C_18
REMARK    6  A    between atoms: C_18  and  C_19
REMARK                            x       y       z     vdW  Elec       q    Type
REMARK                         _______ _______ _______ _____ _____    ______ ____
ROOT
ATOM      1  C   UNL     1      47.000   4.507  14.782  0.00  0.00    +0.000 C 
ATOM      2  C   UNL     1      46.814   5.730  13.878  0.00  0.00    +0.000 C 
ENDROOT
BRANCH   2   3
ATOM      3  C   UNL     1      46.144   5.326  12.572  0.00  0.00    +0.000 A 
ATOM      4  C   UNL     1      45.469   4.094  12.525  0.00  0.00    +0.000 A 
ATOM      5  C   UNL     1      44.921   3.610  11.334  0.00  0.00    +0.000 A 
ATOM      6  C   UNL     1      45.012   4.356  10.152  0.00  0.00    +0.000 A 
ATOM      7  C   UNL     1      45.653   5.600  10.197  0.00  0.00    +0.000 A 
ATOM      8  C   UNL     1      46.227   6.073  11.389  0.00  0.00    +0.000 A 
BRANCH   6   9
ATOM      9  C   UNL     1      44.475   3.803   8.849  0.00  0.00    +0.000 C 
BRANCH   9  10
ATOM     10  C   UNL     1      45.448   3.023   7.991  0.00  0.00    +0.000 A 
ATOM     11  C   UNL     1      45.864   1.743   8.357  0.00  0.00    +0.000 A 
ATOM     12  C   UNL     1      46.863   1.115   7.618  0.00  0.00    +0.000 A 
ATOM     13  C   UNL     1      47.422   1.773   6.530  0.00  0.00    +0.000 A 
ATOM     14  C   UNL     1      46.947   3.034   6.219  0.00  0.00    +0.000 A 
ATOM     15  N   UNL     1      45.982   3.671   6.923  0.00  0.00    +0.000 NA
ENDBRANCH   9  10
ENDBRANCH   6   9
ENDBRANCH   2   3
BRANCH   2  16
ATOM     16  N   UNL     1      48.075   6.434  13.696  0.00  0.00    +0.000 N 
ATOM     17  C   UNL     1      48.158   7.800  13.823  0.00  0.00    +0.000 C 
ATOM     18  O   UNL     1      47.191   8.525  14.028  0.00  0.00    +0.000 OA
ATOM     19  H   UNL     1      48.929   5.890  13.627  0.00  0.00    +0.000 HD
BRANCH  17  20
ATOM     20  C   UNL     1      49.512   8.371  13.697  0.00  0.00    +0.000 A 
ATOM     21  C   UNL     1      50.062   9.113  14.681  0.00  0.00    +0.000 A 
ATOM     22  S   UNL     1      51.693   9.687  14.298  0.00  0.00    +0.000 S 
ATOM     23  C   UNL     1      51.574   8.871  12.776  0.00  0.00    +0.000 A 
ATOM     24  N   UNL     1      52.353   8.705  11.747  0.00  0.00    +0.000 NA
ATOM     25  C   UNL     1      51.558   7.926  10.942  0.00  0.00    +0.000 A 
ATOM     26  N   UNL     1      50.344   7.611  11.426  0.00  0.00    +0.000 NA
ATOM     27  N   UNL     1      50.372   8.240  12.627  0.00  0.00    +0.000 N 
ENDBRANCH  17  20
ENDBRANCH   2  16
TORSDOF 5
ENDMDL
MODEL 6
REMARK VINA RESULT:    -6.903      2.681      4.314
REMARK INTER + INTRA:          -9.836
REMARK INTER:                  -9.667
REMARK INTRA:                  -0.169
REMARK UNBOUND:                -0.916
REMARK  Name = 
REMARK  6 active torsions:
REMARK  status: ('A' for Active; 'I' for Inactive)
REMARK    1  A    between atoms: C_1  and  C_2
REMARK    2  A    between atoms: C_2  and  N_3
REMARK    3  A    between atoms: C_2  and  C_14
REMARK    4  A    between atoms: C_4  and  C_6
REMARK    5  A    between atoms: C_17  and  C_18
REMARK    6  A    between atoms: C_18  and  C_19
REMARK                            x       y       z     vdW  Elec       q    Type
REMARK                         _______ _______ _______ _____ _____    ______ ____
ROOT
ATOM      1  C   UNL     1      46.558   4.483  14.496  0.00  0.00    +0.000 C 
ATOM      2  C   UNL     1      45.882   5.532  13.608  0.00  0.00    +0.000 C 
ENDROOT
BRANCH   2   3
ATOM      3  C   UNL     1      45.656   4.975  12.209  0.00  0.00    +0.000 A 
ATOM      4  C   UNL     1      45.928   5.808  11.110  0.00  0.00    +0.000 A 
ATOM      5  C   UNL     1      45.646   5.402   9.803  0.00  0.00    +0.000 A 
ATOM      6  C   UNL     1      45.101   4.137   9.551  0.00  0.00    +0.000 A 
ATOM      7  C   UNL     1      44.858   3.288  10.637  0.00  0.00    +0.000 A 
ATOM      8  C   UNL     1      45.118   3.706  11.953  0.00  0.00    +0.000 A 
BRANCH   6   9
ATOM      9  C   UNL     1      44.736   3.723   8.141  0.00  0.00    +0.000 C 
BRANCH   9  10
ATOM     10  C   UNL     1      45.797   2.979   7.358  0.00  0.00    +0.000 A 
ATOM     11  C   UNL     1      46.361   1.801   7.847  0.00  0.00    +0.000 A 
ATOM     12  C   UNL     1      47.428   1.224   7.166  0.00  0.00    +0.000 A 
ATOM     13  C   UNL     1      47.908   1.829   6.011  0.00  0.00    +0.000 A 
ATOM     14  C   UNL     1      47.288   2.986   5.579  0.00  0.00    +0.000 A 
ATOM     15  N   UNL     1      46.253   3.573   6.224  0.00  0.00    +0.000 NA
ENDBRANCH   9  10
ENDBRANCH   6   9
ENDBRANCH   2   3
BRANCH   2  16
ATOM     16  N   UNL     1      46.627   6.783  13.627  0.00  0.00    +0.000 N 
ATOM     17  C   UNL     1      47.980   6.816  13.396  0.00  0.00    +0.000 C 
ATOM     18  O   UNL     1      48.667   5.814  13.223  0.00  0.00    +0.000 OA
ATOM     19  H   UNL     1      46.109   7.655  13.661  0.00  0.00    +0.000 HD
BRANCH  17  20
ATOM     20  C   UNL     1      48.590   8.159  13.362  0.00  0.00    +0.000 A 
ATOM     21  C   UNL     1      49.804   8.398  13.900  0.00  0.00    +0.000 A 
ATOM     22  S   UNL     1      50.323  10.084  13.735  0.00  0.00    +0.000 S 
ATOM     23  C   UNL     1      48.836  10.413  12.911  0.00  0.00    +0.000 A 
ATOM     24  N   UNL     1      48.291  11.458  12.360  0.00  0.00    +0.000 NA
ATOM     25  C   UNL     1      47.111  10.925  11.901  0.00  0.00    +0.000 A 
ATOM     26  N   UNL     1      46.913   9.617  12.144  0.00  0.00    +0.000 NA
ATOM     27  N   UNL     1      48.052   9.300  12.807  0.00  0.00    +0.000 N 
ENDBRANCH  17  20
ENDBRANCH   2  16
TORSDOF 5
ENDMDL
MODEL 7
REMARK VINA RESULT:    -6.698      3.596      8.135
REMARK INTER + INTRA:          -9.572
REMARK INTER:                  -8.722
REMARK INTRA:                  -0.849
REMARK UNBOUND:                -0.916
REMARK  Name = 
REMARK  6 active torsions:
REMARK  status: ('A' for Active; 'I' for Inactive)
REMARK    1  A    between atoms: C_1  and  C_2
REMARK    2  A    between atoms: C_2  and  N_3
REMARK    3  A    between atoms: C_2  and  C_14
REMARK    4  A    between atoms: C_4  and  C_6
REMARK    5  A    between atoms: C_17  and  C_18
REMARK    6  A    between atoms: C_18  and  C_19
REMARK                            x       y       z     vdW  Elec       q    Type
REMARK                         _______ _______ _______ _____ _____    ______ ____
ROOT
ATOM      1  C   UNL     1      49.272   7.874  12.550  0.00  0.00    +0.000 C 
ATOM      2  C   UNL     1      48.089   7.277  13.318  0.00  0.00    +0.000 C 
ENDROOT
BRANCH   2   3
ATOM      3  C   UNL     1      48.557   6.703  14.649  0.00  0.00    +0.000 A 
ATOM      4  C   UNL     1      49.803   7.118  15.149  0.00  0.00    +0.000 A 
ATOM      5  C   UNL     1      50.343   6.557  16.310  0.00  0.00    +0.000 A 
ATOM      6  C   UNL     1      49.642   5.575  17.021  0.00  0.00    +0.000 A 
ATOM      7  C   UNL     1      48.384   5.181  16.548  0.00  0.00    +0.000 A 
ATOM      8  C   UNL     1      47.854   5.726  15.368  0.00  0.00    +0.000 A 
BRANCH   6   9
ATOM      9  C   UNL     1      50.256   4.922  18.241  0.00  0.00    +0.000 C 
BRANCH   9  10
ATOM     10  C   UNL     1      51.115   3.701  17.996  0.00  0.00    +0.000 A 
ATOM     11  C   UNL     1      50.582   2.550  17.417  0.00  0.00    +0.000 A 
ATOM     12  C   UNL     1      51.368   1.403  17.335  0.00  0.00    +0.000 A 
ATOM     13  C   UNL     1      52.666   1.429  17.828  0.00  0.00    +0.000 A 
ATOM     14  C   UNL     1      53.129   2.611  18.375  0.00  0.00    +0.000 A 
ATOM     15  N   UNL     1      52.387   3.738  18.473  0.00  0.00    +0.000 NA
ENDBRANCH   9  10
ENDBRANCH   6   9
ENDBRANCH   2   3
BRANCH   2  16
ATOM     16  N   UNL     1      47.365   6.322  12.491  0.00  0.00    +0.000 N 
ATOM     17  C   UNL     1      46.017   6.449  12.262  0.00  0.00    +0.000 C 
ATOM     18  O   UNL     1      45.317   7.316  12.776  0.00  0.00    +0.000 OA
ATOM     19  H   UNL     1      47.897   5.645  11.954  0.00  0.00    +0.000 HD
BRANCH  17  20
ATOM     20  C   UNL     1      45.430   5.461  11.337  0.00  0.00    +0.000 A 
ATOM     21  C   UNL     1      45.641   5.526  10.006  0.00  0.00    +0.000 A 
ATOM     22  S   UNL     1      44.834   4.231   9.106  0.00  0.00    +0.000 S 
ATOM     23  C   UNL     1      44.228   3.625  10.609  0.00  0.00    +0.000 A 
ATOM     24  N   UNL     1      43.491   2.617  10.975  0.00  0.00    +0.000 NA
ATOM     25  C   UNL     1      43.461   2.797  12.337  0.00  0.00    +0.000 A 
ATOM     26  N   UNL     1      44.138   3.856  12.814  0.00  0.00    +0.000 NA
ATOM     27  N   UNL     1      44.633   4.387  11.668  0.00  0.00    +0.000 N 
ENDBRANCH  17  20
ENDBRANCH   2  16
TORSDOF 5
ENDMDL
MODEL 8
REMARK VINA RESULT:    -6.415      3.983      5.299
REMARK INTER + INTRA:          -9.205
REMARK INTER:                  -8.030
REMARK INTRA:                  -1.176
REMARK UNBOUND:                -0.916
REMARK  Name = 
REMARK  6 active torsions:
REMARK  status: ('A' for Active; 'I' for Inactive)
REMARK    1  A    between atoms: C_1  and  C_2
REMARK    2  A    between atoms: C_2  and  N_3
REMARK    3  A    between atoms: C_2  and  C_14
REMARK    4  A    between atoms: C_4  and  C_6
REMARK    5  A    between atoms: C_17  and  C_18
REMARK    6  A    between atoms: C_18  and  C_19
REMARK                            x       y       z     vdW  Elec       q    Type
REMARK                         _______ _______ _______ _____ _____    ______ ____
ROOT
ATOM      1  C   UNL     1      48.533   6.850  15.099  0.00  0.00    +0.000 C 
ATOM      2  C   UNL     1      48.133   7.715  13.899  0.00  0.00    +0.000 C 
ENDROOT
BRANCH   2   3
ATOM      3  C   UNL     1      47.036   7.030  13.095  0.00  0.00    +0.000 A 
ATOM      4  C   UNL     1      46.999   5.625  13.085  0.00  0.00    +0.000 A 
ATOM      5  C   UNL     1      46.086   4.928  12.288  0.00  0.00    +0.000 A 
ATOM      6  C   UNL     1      45.166   5.617  11.489  0.00  0.00    +0.000 A 
ATOM      7  C   UNL     1      45.173   7.017  11.519  0.00  0.00    +0.000 A 
ATOM      8  C   UNL     1      46.107   7.717  12.300  0.00  0.00    +0.000 A 
BRANCH   6   9
ATOM      9  C   UNL     1      44.221   4.863  10.577  0.00  0.00    +0.000 C 
BRANCH   9  10
ATOM     10  C   UNL     1      44.856   3.990   9.515  0.00  0.00    +0.000 A 
ATOM     11  C   UNL     1      44.817   2.599   9.608  0.00  0.00    +0.000 A 
ATOM     12  C   UNL     1      45.530   1.836   8.687  0.00  0.00    +0.000 A 
ATOM     13  C   UNL     1      46.263   2.473   7.695  0.00  0.00    +0.000 A 
ATOM     14  C   UNL     1      46.242   3.855   7.658  0.00  0.00    +0.000 A 
ATOM     15  N   UNL     1      45.563   4.623   8.542  0.00  0.00    +0.000 NA
ENDBRANCH   9  10
ENDBRANCH   6   9
ENDBRANCH   2   3
BRANCH   2  16
ATOM     16  N   UNL     1      49.301   8.075  13.109  0.00  0.00    +0.000 N 
ATOM     17  C   UNL     1      49.439   9.327  12.562  0.00  0.00    +0.000 C 
ATOM     18  O   UNL     1      48.582  10.202  12.637  0.00  0.00    +0.000 OA
ATOM     19  H   UNL     1      50.091   7.438  13.094  0.00  0.00    +0.000 HD
BRANCH  17  20
ATOM     20  C   UNL     1      50.711   9.580  11.858  0.00  0.00    +0.000 A 
ATOM     21  C   UNL     1      51.340  10.771  11.940  0.00  0.00    +0.000 A 
ATOM     22  S   UNL     1      52.846  10.832  11.010  0.00  0.00    +0.000 S 
ATOM     23  C   UNL     1      52.567   9.191  10.536  0.00  0.00    +0.000 A 
ATOM     24  N   UNL     1      53.195   8.314   9.808  0.00  0.00    +0.000 NA
ATOM     25  C   UNL     1      52.354   7.234   9.917  0.00  0.00    +0.000 A 
ATOM     26  N   UNL     1      51.253   7.408  10.669  0.00  0.00    +0.000 NA
ATOM     27  N   UNL     1      51.409   8.695  11.065  0.00  0.00    +0.000 N 
ENDBRANCH  17  20
ENDBRANCH   2  16
TORSDOF 5
ENDMDL
MODEL 9
REMARK VINA RESULT:    -6.268      4.893      7.082
REMARK INTER + INTRA:          -9.016
REMARK INTER:                  -8.025
REMARK INTRA:                  -0.991
REMARK UNBOUND:                -0.916
REMARK  Name = 
REMARK  6 active torsions:
REMARK  status: ('A' for Active; 'I' for Inactive)
REMARK    1  A    between atoms: C_1  and  C_2
REMARK    2  A    between atoms: C_2  and  N_3
REMARK    3  A    between atoms: C_2  and  C_14
REMARK    4  A    between atoms: C_4  and  C_6
REMARK    5  A    between atoms: C_17  and  C_18
REMARK    6  A    between atoms: C_18  and  C_19
REMARK                            x       y       z     vdW  Elec       q    Type
REMARK                         _______ _______ _______ _____ _____    ______ ____
ROOT
ATOM      1  C   UNL     1      46.018   9.824  12.027  0.00  0.00    +0.000 C 
ATOM      2  C   UNL     1      46.800   8.539  12.315  0.00  0.00    +0.000 C 
ENDROOT
BRANCH   2   3
ATOM      3  C   UNL     1      48.232   8.667  11.816  0.00  0.00    +0.000 A 
ATOM      4  C   UNL     1      48.998   7.496  11.685  0.00  0.00    +0.000 A 
ATOM      5  C   UNL     1      50.349   7.546  11.333  0.00  0.00    +0.000 A 
ATOM      6  C   UNL     1      50.975   8.773  11.080  0.00  0.00    +0.000 A 
ATOM      7  C   UNL     1      50.212   9.943  11.176  0.00  0.00    +0.000 A 
ATOM      8  C   UNL     1      48.860   9.893  11.555  0.00  0.00    +0.000 A 
BRANCH   6   9
ATOM      9  C   UNL     1      52.455   8.832  10.762  0.00  0.00    +0.000 C 
BRANCH   9  10
ATOM     10  C   UNL     1      53.008   7.715   9.904  0.00  0.00    +0.000 A 
ATOM     11  C   UNL     1      52.681   7.617   8.551  0.00  0.00    +0.000 A 
ATOM     12  C   UNL     1      53.097   6.501   7.830  0.00  0.00    +0.000 A 
ATOM     13  C   UNL     1      53.831   5.511   8.469  0.00  0.00    +0.000 A 
ATOM     14  C   UNL     1      54.129   5.685   9.808  0.00  0.00    +0.000 A 
ATOM     15  N   UNL     1      53.733   6.756  10.535  0.00  0.00    +0.000 NA
ENDBRANCH   9  10
ENDBRANCH   6   9
ENDBRANCH   2   3
BRANCH   2  16
ATOM     16  N   UNL     1      46.097   7.378  11.788  0.00  0.00    +0.000 N 
ATOM     17  C   UNL     1      45.939   6.235  12.534  0.00  0.00    +0.000 C 
ATOM     18  O   UNL     1      46.420   6.079  13.651  0.00  0.00    +0.000 OA
ATOM     19  H   UNL     1      45.587   7.474  10.915  0.00  0.00    +0.000 HD
BRANCH  17  20
ATOM     20  C   UNL     1      45.134   5.170  11.907  0.00  0.00    +0.000 A 
ATOM     21  C   UNL     1      44.254   4.435  12.620  0.00  0.00    +0.000 A 
ATOM     22  S   UNL     1      43.408   3.220  11.649  0.00  0.00    +0.000 S 
ATOM     23  C   UNL     1      44.296   3.770  10.268  0.00  0.00    +0.000 A 
ATOM     24  N   UNL     1      44.339   3.457   9.007  0.00  0.00    +0.000 NA
ATOM     25  C   UNL     1      45.278   4.349   8.549  0.00  0.00    +0.000 A 
ATOM     26  N   UNL     1      45.806   5.183   9.463  0.00  0.00    +0.000 NA
ATOM     27  N   UNL     1      45.151   4.788  10.583  0.00  0.00    +0.000 N 
ENDBRANCH  17  20
ENDBRANCH   2  16
TORSDOF 5
ENDMDL
