MODEL 1
REMARK VINA RESULT:    -8.156      0.000      0.000
REMARK INTER + INTRA:         -12.755
REMARK INTER:                 -11.494
REMARK INTRA:                  -1.261
REMARK UNBOUND:                -1.261
REMARK  Name = 
REMARK  9 active torsions:
REMARK  status: ('A' for Active; 'I' for Inactive)
REMARK    1  A    between atoms: C_1  and  C_2
REMARK    2  A    between atoms: C_5  and  C_6
REMARK    3  A    between atoms: C_6  and  O_7
REMARK    4  A    between atoms: O_7  and  C_8
REMARK    5  A    between atoms: C_8  and  C_9
REMARK    6  A    between atoms: C_12  and  C_13
REMARK    7  A    between atoms: C_13  and  N_14
REMARK    8  A    between atoms: C_15  and  C_17
REMARK    9  A    between atoms: N_23  and  C_24
REMARK                            x       y       z     vdW  Elec       q    Type
REMARK                         _______ _______ _______ _____ _____    ______ ____
ROOT
ATOM      1  C   UNL     1      44.246   5.646  11.887  0.00  0.00    +0.000 A 
ATOM      2  C   UNL     1      45.132   5.150  12.846  0.00  0.00    +0.000 A 
ATOM      3  C   UNL     1      46.207   5.924  13.285  0.00  0.00    +0.000 A 
ATOM      4  C   UNL     1      46.407   7.226  12.801  0.00  0.00    +0.000 A 
ATOM      5  C   UNL     1      45.500   7.719  11.852  0.00  0.00    +0.000 A 
ATOM      6  C   UNL     1      44.421   6.948  11.410  0.00  0.00    +0.000 A 
ENDROOT
BRANCH   1   7
ATOM      7  C   UNL     1      43.089   4.804  11.414  0.00  0.00    +0.000 C 
BRANCH   7   8
ATOM      8  O   UNL     1      43.366   4.225  10.136  0.00  0.00    +0.000 OA
BRANCH   8   9
ATOM      9  C   UNL     1      44.086   2.996  10.243  0.00  0.00    +0.000 C 
BRANCH   9  14
ATOM     10  C   UNL     1      47.861   2.251   5.967  0.00  0.00    +0.000 C 
ATOM     11  C   UNL     1      46.871   2.503   7.063  0.00  0.00    +0.000 A 
ATOM     12  C   UNL     1      46.402   3.785   7.319  0.00  0.00    +0.000 A 
ATOM     13  C   UNL     1      45.485   3.971   8.353  0.00  0.00    +0.000 A 
ATOM     14  C   UNL     1      45.068   2.880   9.117  0.00  0.00    +0.000 A 
ATOM     15  C   UNL     1      45.581   1.635   8.772  0.00  0.00    +0.000 A 
ATOM     16  N   UNL     1      46.468   1.425   7.775  0.00  0.00    +0.000 NA
ENDBRANCH   9  14
ENDBRANCH   8   9
ENDBRANCH   7   8
ENDBRANCH   1   7
BRANCH   4  17
ATOM     17  C   UNL     1      47.526   8.112  13.307  0.00  0.00    +0.000 C 
BRANCH  17  18
ATOM     18  N   UNL     1      47.932   7.856  14.662  0.00  0.00    +0.000 N 
ATOM     19  C   UNL     1      49.223   7.617  15.025  0.00  0.00    +0.000 C 
ATOM     20  O   UNL     1      50.154   7.555  14.210  0.00  0.00    +0.000 OA
ATOM     21  H   UNL     1      47.294   8.153  15.393  0.00  0.00    +0.000 HD
BRANCH  19  22
ATOM     22  C   UNL     1      49.434   7.400  16.457  0.00  0.00    +0.000 A 
ATOM     23  C   UNL     1      50.071   8.330  17.265  0.00  0.00    +0.000 A 
ATOM     24  S   UNL     1      50.158   7.849  18.904  0.00  0.00    +0.000 S 
ATOM     25  C   UNL     1      49.350   6.389  18.577  0.00  0.00    +0.000 A 
ATOM     26  N   UNL     1      49.081   5.500  19.563  0.00  0.00    +0.000 NA
ATOM     27  C   UNL     1      48.471   4.428  19.169  0.00  0.00    +0.000 A 
ATOM     28  N   UNL     1      48.104   4.145  17.871  0.00  0.00    +0.000 N 
ATOM     29  C   UNL     1      47.464   2.890  17.543  0.00  0.00    +0.000 C 
ATOM     30  C   UNL     1      48.396   5.019  16.818  0.00  0.00    +0.000 A 
ATOM     31  O   UNL     1      48.166   4.725  15.656  0.00  0.00    +0.000 OA
ATOM     32  C   UNL     1      49.045   6.249  17.238  0.00  0.00    +0.000 A 
ENDBRANCH  19  22
ENDBRANCH  17  18
ENDBRANCH   4  17
TORSDOF 7
ENDMDL
MODEL 2
REMARK VINA RESULT:    -7.738      1.382      1.780
REMARK INTER + INTRA:         -12.165
REMARK INTER:                 -11.004
REMARK INTRA:                  -1.161
REMARK UNBOUND:                -1.261
REMARK  Name = 
REMARK  9 active torsions:
REMARK  status: ('A' for Active; 'I' for Inactive)
REMARK    1  A    between atoms: C_1  and  C_2
REMARK    2  A    between atoms: C_5  and  C_6
REMARK    3  A    between atoms: C_6  and  O_7
REMARK    4  A    between atoms: O_7  and  C_8
REMARK    5  A    between atoms: C_8  and  C_9
REMARK    6  A    between atoms: C_12  and  C_13
REMARK    7  A    between atoms: C_13  and  N_14
REMARK    8  A    between atoms: C_15  and  C_17
REMARK    9  A    between atoms: N_23  and  C_24
REMARK                            x       y       z     vdW  Elec       q    Type
REMARK                         _______ _______ _______ _____ _____    ______ ____
ROOT
ATOM      1  C   UNL     1      44.389   5.449  12.402  0.00  0.00    +0.000 A 
ATOM      2  C   UNL     1      44.544   6.704  11.810  0.00  0.00    +0.000 A 
ATOM      3  C   UNL     1      45.754   7.392  11.916  0.00  0.00    +0.000 A 
ATOM      4  C   UNL     1      46.850   6.830  12.587  0.00  0.00    +0.000 A 
ATOM      5  C   UNL     1      46.686   5.562  13.163  0.00  0.00    +0.000 A 
ATOM      6  C   UNL     1      45.477   4.868  13.058  0.00  0.00    +0.000 A 
ENDROOT
BRANCH   1   7
ATOM      7  C   UNL     1      43.079   4.712  12.288  0.00  0.00    +0.000 C 
BRANCH   7   8
ATOM      8  O   UNL     1      42.954   4.085  11.010  0.00  0.00    +0.000 OA
BRANCH   8   9
ATOM      9  C   UNL     1      43.740   2.896  10.910  0.00  0.00    +0.000 C 
BRANCH   9  14
ATOM     10  C   UNL     1      46.899   3.357   6.125  0.00  0.00    +0.000 C 
ATOM     11  C   UNL     1      46.095   3.180   7.376  0.00  0.00    +0.000 A 
ATOM     12  C   UNL     1      45.968   1.931   7.970  0.00  0.00    +0.000 A 
ATOM     13  C   UNL     1      45.205   1.814   9.131  0.00  0.00    +0.000 A 
ATOM     14  C   UNL     1      44.575   2.938   9.665  0.00  0.00    +0.000 A 
ATOM     15  C   UNL     1      44.777   4.146   9.009  0.00  0.00    +0.000 A 
ATOM     16  N   UNL     1      45.512   4.290   7.884  0.00  0.00    +0.000 NA
ENDBRANCH   9  14
ENDBRANCH   8   9
ENDBRANCH   7   8
ENDBRANCH   1   7
BRANCH   4  17
ATOM     17  C   UNL     1      48.194   7.525  12.662  0.00  0.00    +0.000 C 
BRANCH  17  18
ATOM     18  N   UNL     1      49.075   7.025  13.682  0.00  0.00    +0.000 N 
ATOM     19  C   UNL     1      49.301   7.672  14.859  0.00  0.00    +0.000 C 
ATOM     20  O   UNL     1      48.802   8.772  15.133  0.00  0.00    +0.000 OA
ATOM     21  H   UNL     1      49.295   6.035  13.649  0.00  0.00    +0.000 HD
BRANCH  19  22
ATOM     22  C   UNL     1      50.215   6.989  15.776  0.00  0.00    +0.000 A 
ATOM     23  C   UNL     1      51.526   7.399  15.964  0.00  0.00    +0.000 A 
ATOM     24  S   UNL     1      52.369   6.453  17.112  0.00  0.00    +0.000 S 
ATOM     25  C   UNL     1      51.007   5.471  17.387  0.00  0.00    +0.000 A 
ATOM     26  N   UNL     1      51.043   4.456  18.282  0.00  0.00    +0.000 NA
ATOM     27  C   UNL     1      49.939   3.786  18.381  0.00  0.00    +0.000 A 
ATOM     28  N   UNL     1      48.790   4.025  17.659  0.00  0.00    +0.000 N 
ATOM     29  C   UNL     1      47.628   3.178  17.823  0.00  0.00    +0.000 C 
ATOM     30  C   UNL     1      48.723   5.040  16.698  0.00  0.00    +0.000 A 
ATOM     31  O   UNL     1      47.742   5.186  15.985  0.00  0.00    +0.000 OA
ATOM     32  C   UNL     1      49.935   5.833  16.596  0.00  0.00    +0.000 A 
ENDBRANCH  19  22
ENDBRANCH  17  18
ENDBRANCH   4  17
TORSDOF 7
ENDMDL
MODEL 3
REMARK VINA RESULT:    -7.230      1.973      2.755
REMARK INTER + INTRA:         -11.449
REMARK INTER:                 -11.159
REMARK INTRA:                  -0.290
REMARK UNBOUND:                -1.261
REMARK  Name = 
REMARK  9 active torsions:
REMARK  status: ('A' for Active; 'I' for Inactive)
REMARK    1  A    between atoms: C_1  and  C_2
REMARK    2  A    between atoms: C_5  and  C_6
REMARK    3  A    between atoms: C_6  and  O_7
REMARK    4  A    between atoms: O_7  and  C_8
REMARK    5  A    between atoms: C_8  and  C_9
REMARK    6  A    between atoms: C_12  and  C_13
REMARK    7  A    between atoms: C_13  and  N_14
REMARK    8  A    between atoms: C_15  and  C_17
REMARK    9  A    between atoms: N_23  and  C_24
REMARK                            x       y       z     vdW  Elec       q    Type
REMARK                         _______ _______ _______ _____ _____    ______ ____
ROOT
ATOM      1  C   UNL     1      44.480   5.392  11.736  0.00  0.00    +0.000 A 
ATOM      2  C   UNL     1      44.767   4.730  12.931  0.00  0.00    +0.000 A 
ATOM      3  C   UNL     1      45.932   5.024  13.641  0.00  0.00    +0.000 A 
ATOM      4  C   UNL     1      46.824   6.010  13.193  0.00  0.00    +0.000 A 
ATOM      5  C   UNL     1      46.515   6.680  12.000  0.00  0.00    +0.000 A 
ATOM      6  C   UNL     1      45.348   6.390  11.286  0.00  0.00    +0.000 A 
ENDROOT
BRANCH   1   7
ATOM      7  C   UNL     1      43.222   5.068  10.971  0.00  0.00    +0.000 C 
BRANCH   7   8
ATOM      8  O   UNL     1      43.286   3.754  10.413  0.00  0.00    +0.000 OA
BRANCH   8   9
ATOM      9  C   UNL     1      44.561   3.141  10.616  0.00  0.00    +0.000 C 
BRANCH   9  14
ATOM     10  C   UNL     1      47.394   2.523   5.648  0.00  0.00    +0.000 C 
ATOM     11  C   UNL     1      46.651   2.743   6.930  0.00  0.00    +0.000 A 
ATOM     12  C   UNL     1      46.341   4.026   7.363  0.00  0.00    +0.000 A 
ATOM     13  C   UNL     1      45.653   4.181   8.566  0.00  0.00    +0.000 A 
ATOM     14  C   UNL     1      45.302   3.058   9.316  0.00  0.00    +0.000 A 
ATOM     15  C   UNL     1      45.640   1.817   8.790  0.00  0.00    +0.000 A 
ATOM     16  N   UNL     1      46.305   1.636   7.628  0.00  0.00    +0.000 NA
ENDBRANCH   9  14
ENDBRANCH   8   9
ENDBRANCH   7   8
ENDBRANCH   1   7
BRANCH   4  17
ATOM     17  C   UNL     1      48.062   6.396  13.976  0.00  0.00    +0.000 C 
BRANCH  17  18
ATOM     18  N   UNL     1      47.895   6.399  15.404  0.00  0.00    +0.000 N 
ATOM     19  C   UNL     1      48.930   6.267  16.279  0.00  0.00    +0.000 C 
ATOM     20  O   UNL     1      50.101   6.087  15.919  0.00  0.00    +0.000 OA
ATOM     21  H   UNL     1      47.036   6.804  15.761  0.00  0.00    +0.000 HD
BRANCH  19  22
ATOM     22  C   UNL     1      48.556   6.317  17.693  0.00  0.00    +0.000 A 
ATOM     23  C   UNL     1      48.567   5.194  18.507  0.00  0.00    +0.000 A 
ATOM     24  S   UNL     1      48.121   5.530  20.123  0.00  0.00    +0.000 S 
ATOM     25  C   UNL     1      47.900   7.182  19.779  0.00  0.00    +0.000 A 
ATOM     26  N   UNL     1      47.526   8.055  20.743  0.00  0.00    +0.000 NA
ATOM     27  C   UNL     1      47.385   9.277  20.336  0.00  0.00    +0.000 A 
ATOM     28  N   UNL     1      47.575   9.719  19.045  0.00  0.00    +0.000 N 
ATOM     29  C   UNL     1      47.344  11.105  18.699  0.00  0.00    +0.000 C 
ATOM     30  C   UNL     1      47.926   8.843  18.012  0.00  0.00    +0.000 A 
ATOM     31  O   UNL     1      47.993   9.212  16.851  0.00  0.00    +0.000 OA
ATOM     32  C   UNL     1      48.130   7.472  18.449  0.00  0.00    +0.000 A 
ENDBRANCH  19  22
ENDBRANCH  17  18
ENDBRANCH   4  17
TORSDOF 7
ENDMDL
MODEL 4
REMARK VINA RESULT:    -7.022      2.678      8.743
REMARK INTER + INTRA:         -11.156
REMARK INTER:                  -9.836
REMARK INTRA:                  -1.320
REMARK UNBOUND:                -1.261
REMARK  Name = 
REMARK  9 active torsions:
REMARK  status: ('A' for Active; 'I' for Inactive)
REMARK    1  A    between atoms: C_1  and  C_2
REMARK    2  A    between atoms: C_5  and  C_6
REMARK    3  A    between atoms: C_6  and  O_7
REMARK    4  A    between atoms: O_7  and  C_8
REMARK    5  A    between atoms: C_8  and  C_9
REMARK    6  A    between atoms: C_12  and  C_13
REMARK    7  A    between atoms: C_13  and  N_14
REMARK    8  A    between atoms: C_15  and  C_17
REMARK    9  A    between atoms: N_23  and  C_24
REMARK                            x       y       z     vdW  Elec       q    Type
REMARK                         _______ _______ _______ _____ _____    ______ ____
ROOT
ATOM      1  C   UNL     1      50.161   8.393  14.163  0.00  0.00    +0.000 A 
ATOM      2  C   UNL     1      48.990   8.941  14.691  0.00  0.00    +0.000 A 
ATOM      3  C   UNL     1      47.801   8.908  13.961  0.00  0.00    +0.000 A 
ATOM      4  C   UNL     1      47.742   8.297  12.699  0.00  0.00    +0.000 A 
ATOM      5  C   UNL     1      48.921   7.734  12.188  0.00  0.00    +0.000 A 
ATOM      6  C   UNL     1      50.114   7.764  12.916  0.00  0.00    +0.000 A 
ENDROOT
BRANCH   1   7
ATOM      7  C   UNL     1      51.443   8.435  14.953  0.00  0.00    +0.000 C 
BRANCH   7   8
ATOM      8  O   UNL     1      51.686   7.185  15.603  0.00  0.00    +0.000 OA
BRANCH   8   9
ATOM      9  C   UNL     1      51.167   7.156  16.933  0.00  0.00    +0.000 C 
BRANCH   9  14
ATOM     10  C   UNL     1      47.467   2.790  17.513  0.00  0.00    +0.000 C 
ATOM     11  C   UNL     1      48.476   3.888  17.368  0.00  0.00    +0.000 A 
ATOM     12  C   UNL     1      49.829   3.642  17.565  0.00  0.00    +0.000 A 
ATOM     13  C   UNL     1      50.730   4.696  17.424  0.00  0.00    +0.000 A 
ATOM     14  C   UNL     1      50.263   5.972  17.104  0.00  0.00    +0.000 A 
ATOM     15  C   UNL     1      48.895   6.113  16.910  0.00  0.00    +0.000 A 
ATOM     16  N   UNL     1      47.998   5.110  17.038  0.00  0.00    +0.000 NA
ENDBRANCH   9  14
ENDBRANCH   8   9
ENDBRANCH   7   8
ENDBRANCH   1   7
BRANCH   4  17
ATOM     17  C   UNL     1      46.452   8.189  11.914  0.00  0.00    +0.000 C 
BRANCH  17  18
ATOM     18  N   UNL     1      45.962   6.849  11.741  0.00  0.00    +0.000 N 
ATOM     19  C   UNL     1      44.671   6.559  11.418  0.00  0.00    +0.000 C 
ATOM     20  O   UNL     1      43.795   7.425  11.289  0.00  0.00    +0.000 OA
ATOM     21  H   UNL     1      46.655   6.129  11.564  0.00  0.00    +0.000 HD
BRANCH  19  22
ATOM     22  C   UNL     1      44.375   5.133  11.266  0.00  0.00    +0.000 A 
ATOM     23  C   UNL     1      43.630   4.423  12.195  0.00  0.00    +0.000 A 
ATOM     24  S   UNL     1      43.401   2.785  11.764  0.00  0.00    +0.000 S 
ATOM     25  C   UNL     1      44.291   2.979  10.327  0.00  0.00    +0.000 A 
ATOM     26  N   UNL     1      44.470   1.949   9.468  0.00  0.00    +0.000 NA
ATOM     27  C   UNL     1      45.176   2.237   8.421  0.00  0.00    +0.000 A 
ATOM     28  N   UNL     1      45.736   3.466   8.146  0.00  0.00    +0.000 N 
ATOM     29  C   UNL     1      46.545   3.658   6.963  0.00  0.00    +0.000 C 
ATOM     30  C   UNL     1      45.606   4.547   9.026  0.00  0.00    +0.000 A 
ATOM     31  O   UNL     1      46.186   5.603   8.835  0.00  0.00    +0.000 OA
ATOM     32  C   UNL     1      44.784   4.261  10.189  0.00  0.00    +0.000 A 
ENDBRANCH  19  22
ENDBRANCH  17  18
ENDBRANCH   4  17
TORSDOF 7
ENDMDL
MODEL 5
REMARK VINA RESULT:    -6.958      5.351      9.538
REMARK INTER + INTRA:         -11.066
REMARK INTER:                 -10.201
REMARK INTRA:                  -0.865
REMARK UNBOUND:                -1.261
REMARK  Name = 
REMARK  9 active torsions:
REMARK  status: ('A' for Active; 'I' for Inactive)
REMARK    1  A    between atoms: C_1  and  C_2
REMARK    2  A    between atoms: C_5  and  C_6
REMARK    3  A    between atoms: C_6  and  O_7
REMARK    4  A    between atoms: O_7  and  C_8
REMARK    5  A    between atoms: C_8  and  C_9
REMARK    6  A    between atoms: C_12  and  C_13
REMARK    7  A    between atoms: C_13  and  N_14
REMARK    8  A    between atoms: C_15  and  C_17
REMARK    9  A    between atoms: N_23  and  C_24
REMARK                            x       y       z     vdW  Elec       q    Type
REMARK                         _______ _______ _______ _____ _____    ______ ____
ROOT
ATOM      1  C   UNL     1      51.515   2.763  17.817  0.00  0.00    +0.000 A 
ATOM      2  C   UNL     1      50.739   1.841  17.112  0.00  0.00    +0.000 A 
ATOM      3  C   UNL     1      49.396   2.105  16.842  0.00  0.00    +0.000 A 
ATOM      4  C   UNL     1      48.801   3.312  17.240  0.00  0.00    +0.000 A 
ATOM      5  C   UNL     1      49.595   4.237  17.932  0.00  0.00    +0.000 A 
ATOM      6  C   UNL     1      50.942   3.978  18.204  0.00  0.00    +0.000 A 
ENDROOT
BRANCH   1   7
ATOM      7  C   UNL     1      52.964   2.471  18.109  0.00  0.00    +0.000 C 
BRANCH   7   8
ATOM      8  O   UNL     1      53.145   1.106  18.491  0.00  0.00    +0.000 OA
BRANCH   8   9
ATOM      9  C   UNL     1      54.519   0.715  18.472  0.00  0.00    +0.000 C 
BRANCH   9  14
ATOM     10  C   UNL     1      55.010  -4.562  16.235  0.00  0.00    +0.000 C 
ATOM     11  C   UNL     1      54.883  -3.165  16.762  0.00  0.00    +0.000 A 
ATOM     12  C   UNL     1      54.992  -2.071  15.913  0.00  0.00    +0.000 A 
ATOM     13  C   UNL     1      54.872  -0.790  16.450  0.00  0.00    +0.000 A 
ATOM     14  C   UNL     1      54.660  -0.627  17.819  0.00  0.00    +0.000 A 
ATOM     15  C   UNL     1      54.548  -1.782  18.582  0.00  0.00    +0.000 A 
ATOM     16  N   UNL     1      54.658  -3.036  18.090  0.00  0.00    +0.000 NA
ENDBRANCH   9  14
ENDBRANCH   8   9
ENDBRANCH   7   8
ENDBRANCH   1   7
BRANCH   4  17
ATOM     17  C   UNL     1      47.364   3.653  16.904  0.00  0.00    +0.000 C 
BRANCH  17  18
ATOM     18  N   UNL     1      47.205   4.680  15.911  0.00  0.00    +0.000 N 
ATOM     19  C   UNL     1      47.170   4.428  14.572  0.00  0.00    +0.000 C 
ATOM     20  O   UNL     1      47.318   3.296  14.093  0.00  0.00    +0.000 OA
ATOM     21  H   UNL     1      46.815   5.562  16.226  0.00  0.00    +0.000 HD
BRANCH  19  22
ATOM     22  C   UNL     1      46.979   5.606  13.726  0.00  0.00    +0.000 A 
ATOM     23  C   UNL     1      47.963   6.569  13.555  0.00  0.00    +0.000 A 
ATOM     24  S   UNL     1      47.500   7.823  12.490  0.00  0.00    +0.000 S 
ATOM     25  C   UNL     1      45.974   7.116  12.230  0.00  0.00    +0.000 A 
ATOM     26  N   UNL     1      45.071   7.683  11.396  0.00  0.00    +0.000 NA
ATOM     27  C   UNL     1      43.949   7.043  11.302  0.00  0.00    +0.000 A 
ATOM     28  N   UNL     1      43.631   5.882  11.972  0.00  0.00    +0.000 N 
ATOM     29  C   UNL     1      42.324   5.279  11.821  0.00  0.00    +0.000 C 
ATOM     30  C   UNL     1      44.521   5.284  12.871  0.00  0.00    +0.000 A 
ATOM     31  O   UNL     1      44.202   4.317  13.543  0.00  0.00    +0.000 OA
ATOM     32  C   UNL     1      45.803   5.961  12.964  0.00  0.00    +0.000 A 
ENDBRANCH  19  22
ENDBRANCH  17  18
ENDBRANCH   4  17
TORSDOF 7
ENDMDL
MODEL 6
REMARK VINA RESULT:    -6.944      2.617      3.446
REMARK INTER + INTRA:         -11.047
REMARK INTER:                  -9.978
REMARK INTRA:                  -1.069
REMARK UNBOUND:                -1.261
REMARK  Name = 
REMARK  9 active torsions:
REMARK  status: ('A' for Active; 'I' for Inactive)
REMARK    1  A    between atoms: C_1  and  C_2
REMARK    2  A    between atoms: C_5  and  C_6
REMARK    3  A    between atoms: C_6  and  O_7
REMARK    4  A    between atoms: O_7  and  C_8
REMARK    5  A    between atoms: C_8  and  C_9
REMARK    6  A    between atoms: C_12  and  C_13
REMARK    7  A    between atoms: C_13  and  N_14
REMARK    8  A    between atoms: C_15  and  C_17
REMARK    9  A    between atoms: N_23  and  C_24
REMARK                            x       y       z     vdW  Elec       q    Type
REMARK                         _______ _______ _______ _____ _____    ______ ____
ROOT
ATOM      1  C   UNL     1      45.317   6.123  12.371  0.00  0.00    +0.000 A 
ATOM      2  C   UNL     1      45.474   7.509  12.410  0.00  0.00    +0.000 A 
ATOM      3  C   UNL     1      46.626   8.077  12.957  0.00  0.00    +0.000 A 
ATOM      4  C   UNL     1      47.665   7.272  13.450  0.00  0.00    +0.000 A 
ATOM      5  C   UNL     1      47.502   5.881  13.389  0.00  0.00    +0.000 A 
ATOM      6  C   UNL     1      46.351   5.308  12.841  0.00  0.00    +0.000 A 
ENDROOT
BRANCH   1   7
ATOM      7  C   UNL     1      44.069   5.516  11.783  0.00  0.00    +0.000 C 
BRANCH   7   8
ATOM      8  O   UNL     1      44.251   5.213  10.398  0.00  0.00    +0.000 OA
BRANCH   8   9
ATOM      9  C   UNL     1      44.007   3.835  10.108  0.00  0.00    +0.000 C 
BRANCH   9  14
ATOM     10  C   UNL     1      47.824   2.239   6.112  0.00  0.00    +0.000 C 
ATOM     11  C   UNL     1      46.832   2.598   7.175  0.00  0.00    +0.000 A 
ATOM     12  C   UNL     1      46.301   1.626   8.013  0.00  0.00    +0.000 A 
ATOM     13  C   UNL     1      45.377   2.008   8.984  0.00  0.00    +0.000 A 
ATOM     14  C   UNL     1      44.993   3.344   9.090  0.00  0.00    +0.000 A 
ATOM     15  C   UNL     1      45.593   4.245   8.219  0.00  0.00    +0.000 A 
ATOM     16  N   UNL     1      46.492   3.905   7.269  0.00  0.00    +0.000 NA
ENDBRANCH   9  14
ENDBRANCH   8   9
ENDBRANCH   7   8
ENDBRANCH   1   7
BRANCH   4  17
ATOM     17  C   UNL     1      48.954   7.858  13.990  0.00  0.00    +0.000 C 
BRANCH  17  18
ATOM     18  N   UNL     1      49.699   6.983  14.852  0.00  0.00    +0.000 N 
ATOM     19  C   UNL     1      49.592   6.999  16.210  0.00  0.00    +0.000 C 
ATOM     20  O   UNL     1      48.874   7.802  16.822  0.00  0.00    +0.000 OA
ATOM     21  H   UNL     1      50.083   6.145  14.428  0.00  0.00    +0.000 HD
BRANCH  19  22
ATOM     22  C   UNL     1      50.419   6.014  16.908  0.00  0.00    +0.000 A 
ATOM     23  C   UNL     1      49.880   5.046  17.743  0.00  0.00    +0.000 A 
ATOM     24  S   UNL     1      51.057   3.999  18.407  0.00  0.00    +0.000 S 
ATOM     25  C   UNL     1      52.316   4.810  17.600  0.00  0.00    +0.000 A 
ATOM     26  N   UNL     1      53.603   4.409  17.725  0.00  0.00    +0.000 NA
ATOM     27  C   UNL     1      54.456   5.125  17.064  0.00  0.00    +0.000 A 
ATOM     28  N   UNL     1      54.151   6.221  16.287  0.00  0.00    +0.000 N 
ATOM     29  C   UNL     1      55.198   6.972  15.629  0.00  0.00    +0.000 C 
ATOM     30  C   UNL     1      52.839   6.691  16.162  0.00  0.00    +0.000 A 
ATOM     31  O   UNL     1      52.581   7.721  15.560  0.00  0.00    +0.000 OA
ATOM     32  C   UNL     1      51.856   5.882  16.861  0.00  0.00    +0.000 A 
ENDBRANCH  19  22
ENDBRANCH  17  18
ENDBRANCH   4  17
TORSDOF 7
ENDMDL
MODEL 7
REMARK VINA RESULT:    -6.870      3.522      4.889
REMARK INTER + INTRA:         -10.942
REMARK INTER:                  -9.951
REMARK INTRA:                  -0.991
REMARK UNBOUND:                -1.261
REMARK  Name = 
REMARK  9 active torsions:
REMARK  status: ('A' for Active; 'I' for Inactive)
REMARK    1  A    between atoms: C_1  and  C_2
REMARK    2  A    between atoms: C_5  and  C_6
REMARK    3  A    between atoms: C_6  and  O_7
REMARK    4  A    between atoms: O_7  and  C_8
REMARK    5  A    between atoms: C_8  and  C_9
REMARK    6  A    between atoms: C_12  and  C_13
REMARK    7  A    between atoms: C_13  and  N_14
REMARK    8  A    between atoms: C_15  and  C_17
REMARK    9  A    between atoms: N_23  and  C_24
REMARK                            x       y       z     vdW  Elec       q    Type
REMARK                         _______ _______ _______ _____ _____    ______ ____
ROOT
ATOM      1  C   UNL     1      44.684   5.400  12.062  0.00  0.00    +0.000 A 
ATOM      2  C   UNL     1      45.191   4.626  13.107  0.00  0.00    +0.000 A 
ATOM      3  C   UNL     1      46.378   4.989  13.747  0.00  0.00    +0.000 A 
ATOM      4  C   UNL     1      47.070   6.153  13.380  0.00  0.00    +0.000 A 
ATOM      5  C   UNL     1      46.541   6.931  12.340  0.00  0.00    +0.000 A 
ATOM      6  C   UNL     1      45.352   6.572  11.697  0.00  0.00    +0.000 A 
ENDROOT
BRANCH   1   7
ATOM      7  C   UNL     1      43.404   5.001  11.372  0.00  0.00    +0.000 C 
BRANCH   7   8
ATOM      8  O   UNL     1      43.663   4.513  10.055  0.00  0.00    +0.000 OA
BRANCH   8   9
ATOM      9  C   UNL     1      44.135   3.164  10.060  0.00  0.00    +0.000 C 
BRANCH   9  14
ATOM     10  C   UNL     1      48.013   2.131   5.939  0.00  0.00    +0.000 C 
ATOM     11  C   UNL     1      46.999   2.457   6.992  0.00  0.00    +0.000 A 
ATOM     12  C   UNL     1      46.556   3.761   7.175  0.00  0.00    +0.000 A 
ATOM     13  C   UNL     1      45.614   4.016   8.171  0.00  0.00    +0.000 A 
ATOM     14  C   UNL     1      45.147   2.972   8.971  0.00  0.00    +0.000 A 
ATOM     15  C   UNL     1      45.637   1.701   8.698  0.00  0.00    +0.000 A 
ATOM     16  N   UNL     1      46.548   1.423   7.739  0.00  0.00    +0.000 NA
ENDBRANCH   9  14
ENDBRANCH   8   9
ENDBRANCH   7   8
ENDBRANCH   1   7
BRANCH   4  17
ATOM     17  C   UNL     1      48.324   6.606  14.099  0.00  0.00    +0.000 C 
BRANCH  17  18
ATOM     18  N   UNL     1      49.406   6.997  13.236  0.00  0.00    +0.000 N 
ATOM     19  C   UNL     1      50.111   8.151  13.394  0.00  0.00    +0.000 C 
ATOM     20  O   UNL     1      49.851   8.988  14.270  0.00  0.00    +0.000 OA
ATOM     21  H   UNL     1      49.840   6.261  12.688  0.00  0.00    +0.000 HD
BRANCH  19  22
ATOM     22  C   UNL     1      51.188   8.357  12.425  0.00  0.00    +0.000 A 
ATOM     23  C   UNL     1      50.948   8.531  11.070  0.00  0.00    +0.000 A 
ATOM     24  S   UNL     1      52.374   8.787  10.162  0.00  0.00    +0.000 S 
ATOM     25  C   UNL     1      53.348   8.670  11.551  0.00  0.00    +0.000 A 
ATOM     26  N   UNL     1      54.693   8.811  11.480  0.00  0.00    +0.000 NA
ATOM     27  C   UNL     1      55.308   8.688  12.613  0.00  0.00    +0.000 A 
ATOM     28  N   UNL     1      54.709   8.425  13.826  0.00  0.00    +0.000 N 
ATOM     29  C   UNL     1      55.507   8.264  15.022  0.00  0.00    +0.000 C 
ATOM     30  C   UNL     1      53.327   8.235  13.937  0.00  0.00    +0.000 A 
ATOM     31  O   UNL     1      52.808   7.901  14.989  0.00  0.00    +0.000 OA
ATOM     32  C   UNL     1      52.608   8.409  12.687  0.00  0.00    +0.000 A 
ENDBRANCH  19  22
ENDBRANCH  17  18
ENDBRANCH   4  17
TORSDOF 7
ENDMDL
MODEL 8
REMARK VINA RESULT:    -6.544      5.177      9.389
REMARK INTER + INTRA:         -10.482
REMARK INTER:                  -9.319
REMARK INTRA:                  -1.163
REMARK UNBOUND:                -1.261
REMARK  Name = 
REMARK  9 active torsions:
REMARK  status: ('A' for Active; 'I' for Inactive)
REMARK    1  A    between atoms: C_1  and  C_2
REMARK    2  A    between atoms: C_5  and  C_6
REMARK    3  A    between atoms: C_6  and  O_7
REMARK    4  A    between atoms: O_7  and  C_8
REMARK    5  A    between atoms: C_8  and  C_9
REMARK    6  A    between atoms: C_12  and  C_13
REMARK    7  A    between atoms: C_13  and  N_14
REMARK    8  A    between atoms: C_15  and  C_17
REMARK    9  A    between atoms: N_23  and  C_24
REMARK                            x       y       z     vdW  Elec       q    Type
REMARK                         _______ _______ _______ _____ _____    ______ ____
ROOT
ATOM      1  C   UNL     1      51.418   3.160  17.748  0.00  0.00    +0.000 A 
ATOM      2  C   UNL     1      50.761   4.371  17.969  0.00  0.00    +0.000 A 
ATOM      3  C   UNL     1      49.410   4.513  17.651  0.00  0.00    +0.000 A 
ATOM      4  C   UNL     1      48.671   3.438  17.134  0.00  0.00    +0.000 A 
ATOM      5  C   UNL     1      49.339   2.221  16.932  0.00  0.00    +0.000 A 
ATOM      6  C   UNL     1      50.692   2.074  17.251  0.00  0.00    +0.000 A 
ENDROOT
BRANCH   1   7
ATOM      7  C   UNL     1      52.879   3.013  18.090  0.00  0.00    +0.000 C 
BRANCH   7   8
ATOM      8  O   UNL     1      53.247   1.636  18.183  0.00  0.00    +0.000 OA
BRANCH   8   9
ATOM      9  C   UNL     1      54.454   1.349  17.474  0.00  0.00    +0.000 C 
BRANCH   9  14
ATOM     10  C   UNL     1      55.050  -4.369  17.255  0.00  0.00    +0.000 C 
ATOM     11  C   UNL     1      54.900  -2.878  17.252  0.00  0.00    +0.000 A 
ATOM     12  C   UNL     1      55.077  -2.147  16.084  0.00  0.00    +0.000 A 
ATOM     13  C   UNL     1      54.931  -0.761  16.132  0.00  0.00    +0.000 A 
ATOM     14  C   UNL     1      54.628  -0.135  17.341  0.00  0.00    +0.000 A 
ATOM     15  C   UNL     1      54.453  -0.954  18.449  0.00  0.00    +0.000 A 
ATOM     16  N   UNL     1      54.586  -2.298  18.434  0.00  0.00    +0.000 NA
ENDBRANCH   9  14
ENDBRANCH   8   9
ENDBRANCH   7   8
ENDBRANCH   1   7
BRANCH   4  17
ATOM     17  C   UNL     1      47.189   3.543  16.840  0.00  0.00    +0.000 C 
BRANCH  17  18
ATOM     18  N   UNL     1      46.844   4.487  15.813  0.00  0.00    +0.000 N 
ATOM     19  C   UNL     1      46.884   4.195  14.483  0.00  0.00    +0.000 C 
ATOM     20  O   UNL     1      47.266   3.102  14.042  0.00  0.00    +0.000 OA
ATOM     21  H   UNL     1      46.279   5.282  16.095  0.00  0.00    +0.000 HD
BRANCH  19  22
ATOM     22  C   UNL     1      46.475   5.285  13.597  0.00  0.00    +0.000 A 
ATOM     23  C   UNL     1      45.328   5.222  12.819  0.00  0.00    +0.000 A 
ATOM     24  S   UNL     1      45.059   6.639  11.900  0.00  0.00    +0.000 S 
ATOM     25  C   UNL     1      46.466   7.373  12.515  0.00  0.00    +0.000 A 
ATOM     26  N   UNL     1      46.824   8.624  12.144  0.00  0.00    +0.000 NA
ATOM     27  C   UNL     1      47.922   9.052  12.682  0.00  0.00    +0.000 A 
ATOM     28  N   UNL     1      48.714   8.343  13.559  0.00  0.00    +0.000 N 
ATOM     29  C   UNL     1      49.946   8.909  14.062  0.00  0.00    +0.000 C 
ATOM     30  C   UNL     1      48.399   7.033  13.940  0.00  0.00    +0.000 A 
ATOM     31  O   UNL     1      49.151   6.367  14.633  0.00  0.00    +0.000 OA
ATOM     32  C   UNL     1      47.150   6.544  13.382  0.00  0.00    +0.000 A 
ENDBRANCH  19  22
ENDBRANCH  17  18
ENDBRANCH   4  17
TORSDOF 7
ENDMDL
MODEL 9
REMARK VINA RESULT:    -6.404      3.409      8.991
REMARK INTER + INTRA:         -10.286
REMARK INTER:                  -8.588
REMARK INTRA:                  -1.697
REMARK UNBOUND:                -1.261
REMARK  Name = 
REMARK  9 active torsions:
REMARK  status: ('A' for Active; 'I' for Inactive)
REMARK    1  A    between atoms: C_1  and  C_2
REMARK    2  A    between atoms: C_5  and  C_6
REMARK    3  A    between atoms: C_6  and  O_7
REMARK    4  A    between atoms: O_7  and  C_8
REMARK    5  A    between atoms: C_8  and  C_9
REMARK    6  A    between atoms: C_12  and  C_13
REMARK    7  A    between atoms: C_13  and  N_14
REMARK    8  A    between atoms: C_15  and  C_17
REMARK    9  A    between atoms: N_23  and  C_24
REMARK                            x       y       z     vdW  Elec       q    Type
REMARK                         _______ _______ _______ _____ _____    ______ ____
ROOT
ATOM      1  C   UNL     1      48.781   6.174  19.677  0.00  0.00    +0.000 A 
ATOM      2  C   UNL     1      47.450   5.858  19.399  0.00  0.00    +0.000 A 
ATOM      3  C   UNL     1      47.104   5.240  18.196  0.00  0.00    +0.000 A 
ATOM      4  C   UNL     1      48.084   4.890  17.254  0.00  0.00    +0.000 A 
ATOM      5  C   UNL     1      49.420   5.197  17.553  0.00  0.00    +0.000 A 
ATOM      6  C   UNL     1      49.771   5.815  18.757  0.00  0.00    +0.000 A 
ENDROOT
BRANCH   1   7
ATOM      7  C   UNL     1      49.148   6.845  20.975  0.00  0.00    +0.000 C 
BRANCH   7   8
ATOM      8  O   UNL     1      48.547   8.138  21.071  0.00  0.00    +0.000 OA
BRANCH   8   9
ATOM      9  C   UNL     1      49.425   9.177  20.635  0.00  0.00    +0.000 C 
BRANCH   9  14
ATOM     10  C   UNL     1      49.007  10.132  14.978  0.00  0.00    +0.000 C 
ATOM     11  C   UNL     1      49.056   9.873  16.453  0.00  0.00    +0.000 A 
ATOM     12  C   UNL     1      47.889   9.687  17.183  0.00  0.00    +0.000 A 
ATOM     13  C   UNL     1      47.985   9.453  18.554  0.00  0.00    +0.000 A 
ATOM     14  C   UNL     1      49.238   9.424  19.168  0.00  0.00    +0.000 A 
ATOM     15  C   UNL     1      50.346   9.603  18.350  0.00  0.00    +0.000 A 
ATOM     16  N   UNL     1      50.284   9.829  17.019  0.00  0.00    +0.000 NA
ENDBRANCH   9  14
ENDBRANCH   8   9
ENDBRANCH   7   8
ENDBRANCH   1   7
BRANCH   4  17
ATOM     17  C   UNL     1      47.746   4.160  15.971  0.00  0.00    +0.000 C 
BRANCH  17  18
ATOM     18  N   UNL     1      46.891   4.886  15.073  0.00  0.00    +0.000 N 
ATOM     19  C   UNL     1      47.359   5.656  14.050  0.00  0.00    +0.000 C 
ATOM     20  O   UNL     1      48.565   5.833  13.835  0.00  0.00    +0.000 OA
ATOM     21  H   UNL     1      45.925   4.581  15.017  0.00  0.00    +0.000 HD
BRANCH  19  22
ATOM     22  C   UNL     1      46.326   6.296  13.235  0.00  0.00    +0.000 A 
ATOM     23  C   UNL     1      46.297   7.665  13.010  0.00  0.00    +0.000 A 
ATOM     24  S   UNL     1      45.009   8.153  11.996  0.00  0.00    +0.000 S 
ATOM     25  C   UNL     1      44.456   6.552  11.832  0.00  0.00    +0.000 A 
ATOM     26  N   UNL     1      43.377   6.257  11.070  0.00  0.00    +0.000 NA
ATOM     27  C   UNL     1      43.064   5.000  11.045  0.00  0.00    +0.000 A 
ATOM     28  N   UNL     1      43.723   3.996  11.720  0.00  0.00    +0.000 N 
ATOM     29  C   UNL     1      43.252   2.630  11.652  0.00  0.00    +0.000 C 
ATOM     30  C   UNL     1      44.819   4.263  12.548  0.00  0.00    +0.000 A 
ATOM     31  O   UNL     1      45.339   3.393  13.226  0.00  0.00    +0.000 OA
ATOM     32  C   UNL     1      45.217   5.661  12.562  0.00  0.00    +0.000 A 
ENDBRANCH  19  22
ENDBRANCH  17  18
ENDBRANCH   4  17
TORSDOF 7
ENDMDL
