MODEL 1
REMARK VINA RESULT:    -7.068      0.000      0.000
REMARK INTER + INTRA:         -11.245
REMARK INTER:                  -9.960
REMARK INTRA:                  -1.285
REMARK UNBOUND:                -1.285
REMARK  Name = 
REMARK  8 active torsions:
REMARK  status: ('A' for Active; 'I' for Inactive)
REMARK    1  A    between atoms: C_1  and  O_2
REMARK    2  A    between atoms: O_2  and  C_3
REMARK    3  A    between atoms: C_10  and  C_11
REMARK    4  A    between atoms: N_13  and  C_14
REMARK    5  A    between atoms: C_14  and  C_15
REMARK    6  A    between atoms: C_18  and  N_19
REMARK    7  A    between atoms: N_19  and  C_20
REMARK    8  A    between atoms: C_20  and  C_21
REMARK                            x       y       z     vdW  Elec       q    Type
REMARK                         _______ _______ _______ _____ _____    ______ ____
ROOT
ATOM      1  C   UNL     1      48.943   7.389  15.418  0.00  0.00    +0.000 C 
ENDROOT
BRANCH   1   2
ATOM      2  C   UNL     1      48.077   6.757  14.363  0.00  0.00    +0.000 A 
ATOM      3  C   UNL     1      47.759   7.440  13.186  0.00  0.00    +0.000 A 
ATOM      4  C   UNL     1      46.919   6.848  12.232  0.00  0.00    +0.000 A 
ATOM      5  C   UNL     1      46.387   5.567  12.422  0.00  0.00    +0.000 A 
ATOM      6  C   UNL     1      46.660   4.927  13.632  0.00  0.00    +0.000 A 
ATOM      7  C   UNL     1      47.503   5.505  14.587  0.00  0.00    +0.000 A 
BRANCH   5   8
ATOM      8  N   UNL     1      45.548   5.031  11.453  0.00  0.00    +0.000 N 
ATOM      9  H   UNL     1      45.584   5.502  10.557  0.00  0.00    +0.000 HD
BRANCH   8  10
ATOM     10  C   UNL     1      45.256   3.598  11.396  0.00  0.00    +0.000 C 
BRANCH  10  11
ATOM     11  C   UNL     1      44.194   3.273  10.322  0.00  0.00    +0.000 C 
ATOM     12  C   UNL     1      44.542   2.054   9.453  0.00  0.00    +0.000 C 
ATOM     13  C   UNL     1      45.763   2.335   8.583  0.00  0.00    +0.000 C 
ATOM     14  C   UNL     1      45.565   3.606   7.758  0.00  0.00    +0.000 C 
ATOM     15  N   UNL     1      45.188   4.757   8.581  0.00  0.00    +0.000 NA
ATOM     16  C   UNL     1      43.999   4.488   9.395  0.00  0.00    +0.000 C 
ATOM     17  H   UNL     1      45.005   5.555   7.971  0.00  0.00    +0.000 HD
ENDBRANCH  10  11
ENDBRANCH   8  10
ENDBRANCH   5   8
ENDBRANCH   1   2
BRANCH   1  20
ATOM     18  C   UNL     1      50.096   6.152  17.203  0.00  0.00    +0.000 C 
ATOM     19  O   UNL     1      49.403   6.685  18.067  0.00  0.00    +0.000 OA
ATOM     20  N   UNL     1      49.931   6.450  15.881  0.00  0.00    +0.000 N 
ATOM     21  H   UNL     1      50.555   6.055  15.190  0.00  0.00    +0.000 HD
BRANCH  18  29
ATOM     22  C   UNL     1      50.216   2.710  17.102  0.00  0.00    +0.000 A 
ATOM     23  N   UNL     1      50.529   1.402  17.179  0.00  0.00    +0.000 NA
ATOM     24  C   UNL     1      51.737   1.070  17.648  0.00  0.00    +0.000 A 
ATOM     25  N   UNL     1      52.691   1.900  18.058  0.00  0.00    +0.000 NA
ATOM     26  C   UNL     1      52.342   3.194  17.958  0.00  0.00    +0.000 A 
ATOM     27  S   UNL     1      53.444   4.394  18.434  0.00  0.00    +0.000 S 
ATOM     28  C   UNL     1      52.345   5.628  18.043  0.00  0.00    +0.000 A 
ATOM     29  C   UNL     1      51.131   5.164  17.548  0.00  0.00    +0.000 A 
ATOM     30  C   UNL     1      51.134   3.703  17.492  0.00  0.00    +0.000 A 
BRANCH  22  32
ATOM     31  C   UNL     1      47.924   2.947  17.523  0.00  0.00    +0.000 C 
ATOM     32  O   UNL     1      48.988   3.053  16.578  0.00  0.00    +0.000 OA
ENDBRANCH  22  32
ENDBRANCH  18  29
ENDBRANCH   1  20
TORSDOF 7
ENDMDL
MODEL 2
REMARK VINA RESULT:    -6.989      3.114      9.378
REMARK INTER + INTRA:         -11.134
REMARK INTER:                 -10.024
REMARK INTRA:                  -1.110
REMARK UNBOUND:                -1.285
REMARK  Name = 
REMARK  8 active torsions:
REMARK  status: ('A' for Active; 'I' for Inactive)
REMARK    1  A    between atoms: C_1  and  O_2
REMARK    2  A    between atoms: O_2  and  C_3
REMARK    3  A    between atoms: C_10  and  C_11
REMARK    4  A    between atoms: N_13  and  C_14
REMARK    5  A    between atoms: C_14  and  C_15
REMARK    6  A    between atoms: C_18  and  N_19
REMARK    7  A    between atoms: N_19  and  C_20
REMARK    8  A    between atoms: C_20  and  C_21
REMARK                            x       y       z     vdW  Elec       q    Type
REMARK                         _______ _______ _______ _____ _____    ______ ____
ROOT
ATOM      1  C   UNL     1      47.294   3.320  16.770  0.00  0.00    +0.000 C 
ENDROOT
BRANCH   1   2
ATOM      2  C   UNL     1      48.752   3.410  17.129  0.00  0.00    +0.000 A 
ATOM      3  C   UNL     1      49.345   4.638  17.438  0.00  0.00    +0.000 A 
ATOM      4  C   UNL     1      50.714   4.705  17.732  0.00  0.00    +0.000 A 
ATOM      5  C   UNL     1      51.518   3.559  17.735  0.00  0.00    +0.000 A 
ATOM      6  C   UNL     1      50.925   2.352  17.359  0.00  0.00    +0.000 A 
ATOM      7  C   UNL     1      49.558   2.272  17.071  0.00  0.00    +0.000 A 
BRANCH   5   8
ATOM      8  N   UNL     1      52.872   3.681  18.020  0.00  0.00    +0.000 N 
ATOM      9  H   UNL     1      53.226   4.630  17.986  0.00  0.00    +0.000 HD
BRANCH   8  10
ATOM     10  C   UNL     1      53.540   2.797  18.976  0.00  0.00    +0.000 C 
BRANCH  10  11
ATOM     11  C   UNL     1      54.867   2.244  18.412  0.00  0.00    +0.000 C 
ATOM     12  C   UNL     1      54.721   1.546  17.050  0.00  0.00    +0.000 C 
ATOM     13  C   UNL     1      53.900   0.267  17.179  0.00  0.00    +0.000 C 
ATOM     14  C   UNL     1      54.487  -0.653  18.250  0.00  0.00    +0.000 C 
ATOM     15  N   UNL     1      54.670   0.026  19.535  0.00  0.00    +0.000 NA
ATOM     16  C   UNL     1      55.481   1.240  19.407  0.00  0.00    +0.000 C 
ATOM     17  H   UNL     1      55.125  -0.616  20.187  0.00  0.00    +0.000 HD
ENDBRANCH  10  11
ENDBRANCH   8  10
ENDBRANCH   5   8
ENDBRANCH   1   2
BRANCH   1  20
ATOM     18  C   UNL     1      46.908   4.213  14.512  0.00  0.00    +0.000 C 
ATOM     19  O   UNL     1      47.196   3.133  13.999  0.00  0.00    +0.000 OA
ATOM     20  N   UNL     1      46.937   4.383  15.866  0.00  0.00    +0.000 N 
ATOM     21  H   UNL     1      46.765   5.295  16.267  0.00  0.00    +0.000 HD
BRANCH  18  29
ATOM     22  C   UNL     1      44.103   4.959  12.656  0.00  0.00    +0.000 A 
ATOM     23  N   UNL     1      43.155   5.493  11.861  0.00  0.00    +0.000 NA
ATOM     24  C   UNL     1      43.392   6.691  11.316  0.00  0.00    +0.000 A 
ATOM     25  N   UNL     1      44.481   7.438  11.469  0.00  0.00    +0.000 NA
ATOM     26  C   UNL     1      45.397   6.873  12.274  0.00  0.00    +0.000 A 
ATOM     27  S   UNL     1      46.851   7.691  12.585  0.00  0.00    +0.000 S 
ATOM     28  C   UNL     1      47.406   6.430  13.578  0.00  0.00    +0.000 A 
ATOM     29  C   UNL     1      46.513   5.371  13.695  0.00  0.00    +0.000 A 
ATOM     30  C   UNL     1      45.305   5.642  12.917  0.00  0.00    +0.000 A 
BRANCH  22  32
ATOM     31  C   UNL     1      43.529   2.713  12.315  0.00  0.00    +0.000 C 
ATOM     32  O   UNL     1      43.840   3.743  13.251  0.00  0.00    +0.000 OA
ENDBRANCH  22  32
ENDBRANCH  18  29
ENDBRANCH   1  20
TORSDOF 7
ENDMDL
MODEL 3
REMARK VINA RESULT:    -6.946      2.389      2.904
REMARK INTER + INTRA:         -11.073
REMARK INTER:                  -9.867
REMARK INTRA:                  -1.206
REMARK UNBOUND:                -1.285
REMARK  Name = 
REMARK  8 active torsions:
REMARK  status: ('A' for Active; 'I' for Inactive)
REMARK    1  A    between atoms: C_1  and  O_2
REMARK    2  A    between atoms: O_2  and  C_3
REMARK    3  A    between atoms: C_10  and  C_11
REMARK    4  A    between atoms: N_13  and  C_14
REMARK    5  A    between atoms: C_14  and  C_15
REMARK    6  A    between atoms: C_18  and  N_19
REMARK    7  A    between atoms: N_19  and  C_20
REMARK    8  A    between atoms: C_20  and  C_21
REMARK                            x       y       z     vdW  Elec       q    Type
REMARK                         _______ _______ _______ _____ _____    ______ ____
ROOT
ATOM      1  C   UNL     1      48.255   7.883  13.688  0.00  0.00    +0.000 C 
ENDROOT
BRANCH   1   2
ATOM      2  C   UNL     1      47.272   6.926  13.071  0.00  0.00    +0.000 A 
ATOM      3  C   UNL     1      46.832   5.796  13.765  0.00  0.00    +0.000 A 
ATOM      4  C   UNL     1      45.946   4.896  13.157  0.00  0.00    +0.000 A 
ATOM      5  C   UNL     1      45.473   5.103  11.856  0.00  0.00    +0.000 A 
ATOM      6  C   UNL     1      45.974   6.199  11.153  0.00  0.00    +0.000 A 
ATOM      7  C   UNL     1      46.853   7.108  11.752  0.00  0.00    +0.000 A 
BRANCH   5   8
ATOM      8  N   UNL     1      44.606   4.174  11.294  0.00  0.00    +0.000 N 
ATOM      9  H   UNL     1      43.776   4.573  10.872  0.00  0.00    +0.000 HD
BRANCH   8  10
ATOM     10  C   UNL     1      45.096   2.944  10.670  0.00  0.00    +0.000 C 
BRANCH  10  11
ATOM     11  C   UNL     1      44.409   2.678   9.312  0.00  0.00    +0.000 C 
ATOM     12  C   UNL     1      45.049   1.538   8.505  0.00  0.00    +0.000 C 
ATOM     13  C   UNL     1      46.457   1.913   8.054  0.00  0.00    +0.000 C 
ATOM     14  C   UNL     1      46.452   3.239   7.293  0.00  0.00    +0.000 C 
ATOM     15  N   UNL     1      45.800   4.315   8.044  0.00  0.00    +0.000 NA
ATOM     16  C   UNL     1      44.439   3.956   8.452  0.00  0.00    +0.000 C 
ATOM     17  H   UNL     1      45.768   5.152   7.462  0.00  0.00    +0.000 HD
ENDBRANCH  10  11
ENDBRANCH   8  10
ENDBRANCH   5   8
ENDBRANCH   1   2
BRANCH   1  20
ATOM     18  C   UNL     1      49.294   7.211  15.813  0.00  0.00    +0.000 C 
ATOM     19  O   UNL     1      50.298   6.803  15.233  0.00  0.00    +0.000 OA
ATOM     20  N   UNL     1      48.247   7.750  15.122  0.00  0.00    +0.000 N 
ATOM     21  H   UNL     1      47.401   8.016  15.607  0.00  0.00    +0.000 HD
BRANCH  18  29
ATOM     22  C   UNL     1      48.875   4.613  18.037  0.00  0.00    +0.000 A 
ATOM     23  N   UNL     1      48.701   3.811  19.106  0.00  0.00    +0.000 NA
ATOM     24  C   UNL     1      48.630   4.380  20.314  0.00  0.00    +0.000 A 
ATOM     25  N   UNL     1      48.713   5.677  20.594  0.00  0.00    +0.000 NA
ATOM     26  C   UNL     1      48.893   6.440  19.502  0.00  0.00    +0.000 A 
ATOM     27  S   UNL     1      49.026   8.124  19.674  0.00  0.00    +0.000 S 
ATOM     28  C   UNL     1      49.207   8.330  17.999  0.00  0.00    +0.000 A 
ATOM     29  C   UNL     1      49.172   7.142  17.278  0.00  0.00    +0.000 A 
ATOM     30  C   UNL     1      48.991   6.008  18.183  0.00  0.00    +0.000 A 
BRANCH  22  32
ATOM     31  C   UNL     1      47.827   3.295  16.408  0.00  0.00    +0.000 C 
ATOM     32  O   UNL     1      48.991   4.023  16.796  0.00  0.00    +0.000 OA
ENDBRANCH  22  32
ENDBRANCH  18  29
ENDBRANCH   1  20
TORSDOF 7
ENDMDL
MODEL 4
REMARK VINA RESULT:    -6.909      2.972      4.493
REMARK INTER + INTRA:         -11.021
REMARK INTER:                  -9.665
REMARK INTRA:                  -1.356
REMARK UNBOUND:                -1.285
REMARK  Name = 
REMARK  8 active torsions:
REMARK  status: ('A' for Active; 'I' for Inactive)
REMARK    1  A    between atoms: C_1  and  O_2
REMARK    2  A    between atoms: O_2  and  C_3
REMARK    3  A    between atoms: C_10  and  C_11
REMARK    4  A    between atoms: N_13  and  C_14
REMARK    5  A    between atoms: C_14  and  C_15
REMARK    6  A    between atoms: C_18  and  N_19
REMARK    7  A    between atoms: N_19  and  C_20
REMARK    8  A    between atoms: C_20  and  C_21
REMARK                            x       y       z     vdW  Elec       q    Type
REMARK                         _______ _______ _______ _____ _____    ______ ____
ROOT
ATOM      1  C   UNL     1      48.675   7.167  14.253  0.00  0.00    +0.000 C 
ENDROOT
BRANCH   1   2
ATOM      2  C   UNL     1      47.613   6.455  13.459  0.00  0.00    +0.000 A 
ATOM      3  C   UNL     1      47.052   5.259  13.914  0.00  0.00    +0.000 A 
ATOM      4  C   UNL     1      46.093   4.591  13.141  0.00  0.00    +0.000 A 
ATOM      5  C   UNL     1      45.664   5.100  11.909  0.00  0.00    +0.000 A 
ATOM      6  C   UNL     1      46.282   6.260  11.438  0.00  0.00    +0.000 A 
ATOM      7  C   UNL     1      47.235   6.938  12.205  0.00  0.00    +0.000 A 
BRANCH   5   8
ATOM      8  N   UNL     1      44.720   4.393  11.175  0.00  0.00    +0.000 N 
ATOM      9  H   UNL     1      44.155   4.962  10.555  0.00  0.00    +0.000 HD
BRANCH   8  10
ATOM     10  C   UNL     1      44.968   3.025  10.717  0.00  0.00    +0.000 C 
BRANCH  10  11
ATOM     11  C   UNL     1      44.317   2.755   9.342  0.00  0.00    +0.000 C 
ATOM     12  C   UNL     1      44.930   1.565   8.588  0.00  0.00    +0.000 C 
ATOM     13  C   UNL     1      46.368   1.861   8.178  0.00  0.00    +0.000 C 
ATOM     14  C   UNL     1      46.453   3.164   7.385  0.00  0.00    +0.000 C 
ATOM     15  N   UNL     1      45.828   4.290   8.084  0.00  0.00    +0.000 NA
ATOM     16  C   UNL     1      44.438   4.007   8.451  0.00  0.00    +0.000 C 
ATOM     17  H   UNL     1      45.856   5.112   7.480  0.00  0.00    +0.000 HD
ENDBRANCH  10  11
ENDBRANCH   8  10
ENDBRANCH   5   8
ENDBRANCH   1   2
BRANCH   1  20
ATOM     18  C   UNL     1      49.100   6.522  16.587  0.00  0.00    +0.000 C 
ATOM     19  O   UNL     1      50.116   5.908  16.268  0.00  0.00    +0.000 OA
ATOM     20  N   UNL     1      48.338   7.162  15.653  0.00  0.00    +0.000 N 
ATOM     21  H   UNL     1      47.468   7.603  15.922  0.00  0.00    +0.000 HD
BRANCH  18  29
ATOM     22  C   UNL     1      47.793   9.057  18.520  0.00  0.00    +0.000 A 
ATOM     23  N   UNL     1      47.292   9.848  19.489  0.00  0.00    +0.000 NA
ATOM     24  C   UNL     1      47.113   9.318  20.703  0.00  0.00    +0.000 A 
ATOM     25  N   UNL     1      47.377   8.070  21.079  0.00  0.00    +0.000 NA
ATOM     26  C   UNL     1      47.868   7.314  20.082  0.00  0.00    +0.000 A 
ATOM     27  S   UNL     1      48.258   5.689  20.383  0.00  0.00    +0.000 S 
ATOM     28  C   UNL     1      48.769   5.464  18.780  0.00  0.00    +0.000 A 
ATOM     29  C   UNL     1      48.658   6.602  17.988  0.00  0.00    +0.000 A 
ATOM     30  C   UNL     1      48.110   7.709  18.770  0.00  0.00    +0.000 A 
BRANCH  22  32
ATOM     31  C   UNL     1      48.821  10.711  17.218  0.00  0.00    +0.000 C 
ATOM     32  O   UNL     1      47.938   9.591  17.257  0.00  0.00    +0.000 OA
ENDBRANCH  22  32
ENDBRANCH  18  29
ENDBRANCH   1  20
TORSDOF 7
ENDMDL
MODEL 5
REMARK VINA RESULT:    -6.871      2.258      3.029
REMARK INTER + INTRA:         -10.968
REMARK INTER:                  -9.403
REMARK INTRA:                  -1.565
REMARK UNBOUND:                -1.285
REMARK  Name = 
REMARK  8 active torsions:
REMARK  status: ('A' for Active; 'I' for Inactive)
REMARK    1  A    between atoms: C_1  and  O_2
REMARK    2  A    between atoms: O_2  and  C_3
REMARK    3  A    between atoms: C_10  and  C_11
REMARK    4  A    between atoms: N_13  and  C_14
REMARK    5  A    between atoms: C_14  and  C_15
REMARK    6  A    between atoms: C_18  and  N_19
REMARK    7  A    between atoms: N_19  and  C_20
REMARK    8  A    between atoms: C_20  and  C_21
REMARK                            x       y       z     vdW  Elec       q    Type
REMARK                         _______ _______ _______ _____ _____    ______ ____
ROOT
ATOM      1  C   UNL     1      48.100   8.751  14.640  0.00  0.00    +0.000 C 
ENDROOT
BRANCH   1   2
ATOM      2  C   UNL     1      47.323   8.197  13.477  0.00  0.00    +0.000 A 
ATOM      3  C   UNL     1      46.018   8.620  13.213  0.00  0.00    +0.000 A 
ATOM      4  C   UNL     1      45.297   8.061  12.148  0.00  0.00    +0.000 A 
ATOM      5  C   UNL     1      45.859   7.084  11.319  0.00  0.00    +0.000 A 
ATOM      6  C   UNL     1      47.139   6.624  11.637  0.00  0.00    +0.000 A 
ATOM      7  C   UNL     1      47.869   7.179  12.693  0.00  0.00    +0.000 A 
BRANCH   5   8
ATOM      8  N   UNL     1      45.099   6.553  10.284  0.00  0.00    +0.000 N 
ATOM      9  H   UNL     1      44.899   7.201   9.533  0.00  0.00    +0.000 HD
BRANCH   8  10
ATOM     10  C   UNL     1      45.214   5.149   9.887  0.00  0.00    +0.000 C 
BRANCH  10  11
ATOM     11  C   UNL     1      43.855   4.419   9.964  0.00  0.00    +0.000 C 
ATOM     12  C   UNL     1      42.953   4.904  11.110  0.00  0.00    +0.000 C 
ATOM     13  C   UNL     1      43.555   4.547  12.465  0.00  0.00    +0.000 C 
ATOM     14  C   UNL     1      43.859   3.052  12.551  0.00  0.00    +0.000 C 
ATOM     15  N   UNL     1      44.680   2.580  11.432  0.00  0.00    +0.000 NA
ATOM     16  C   UNL     1      44.082   2.905  10.134  0.00  0.00    +0.000 C 
ATOM     17  H   UNL     1      44.793   1.568  11.508  0.00  0.00    +0.000 HD
ENDBRANCH  10  11
ENDBRANCH   8  10
ENDBRANCH   5   8
ENDBRANCH   1   2
BRANCH   1  20
ATOM     18  C   UNL     1      49.428   7.016  15.766  0.00  0.00    +0.000 C 
ATOM     19  O   UNL     1      50.374   7.195  15.001  0.00  0.00    +0.000 OA
ATOM     20  N   UNL     1      48.277   7.739  15.649  0.00  0.00    +0.000 N 
ATOM     21  H   UNL     1      47.484   7.532  16.242  0.00  0.00    +0.000 HD
BRANCH  18  29
ATOM     22  C   UNL     1      47.490   4.292  16.598  0.00  0.00    +0.000 A 
ATOM     23  N   UNL     1      46.914   3.207  17.151  0.00  0.00    +0.000 NA
ATOM     24  C   UNL     1      47.460   2.703  18.263  0.00  0.00    +0.000 A 
ATOM     25  N   UNL     1      48.532   3.157  18.905  0.00  0.00    +0.000 NA
ATOM     26  C   UNL     1      49.079   4.235  18.317  0.00  0.00    +0.000 A 
ATOM     27  S   UNL     1      50.461   4.946  19.001  0.00  0.00    +0.000 S 
ATOM     28  C   UNL     1      50.511   6.133  17.788  0.00  0.00    +0.000 A 
ATOM     29  C   UNL     1      49.493   6.020  16.848  0.00  0.00    +0.000 A 
ATOM     30  C   UNL     1      48.639   4.876  17.163  0.00  0.00    +0.000 A 
BRANCH  22  32
ATOM     31  C   UNL     1      47.099   3.895  14.323  0.00  0.00    +0.000 C 
ATOM     32  O   UNL     1      46.953   4.785  15.428  0.00  0.00    +0.000 OA
ENDBRANCH  22  32
ENDBRANCH  18  29
ENDBRANCH   1  20
TORSDOF 7
ENDMDL
MODEL 6
REMARK VINA RESULT:    -6.538      3.077      9.171
REMARK INTER + INTRA:         -10.499
REMARK INTER:                  -9.147
REMARK INTRA:                  -1.352
REMARK UNBOUND:                -1.285
REMARK  Name = 
REMARK  8 active torsions:
REMARK  status: ('A' for Active; 'I' for Inactive)
REMARK    1  A    between atoms: C_1  and  O_2
REMARK    2  A    between atoms: O_2  and  C_3
REMARK    3  A    between atoms: C_10  and  C_11
REMARK    4  A    between atoms: N_13  and  C_14
REMARK    5  A    between atoms: C_14  and  C_15
REMARK    6  A    between atoms: C_18  and  N_19
REMARK    7  A    between atoms: N_19  and  C_20
REMARK    8  A    between atoms: C_20  and  C_21
REMARK                            x       y       z     vdW  Elec       q    Type
REMARK                         _______ _______ _______ _____ _____    ______ ____
ROOT
ATOM      1  C   UNL     1      47.251   3.308  16.814  0.00  0.00    +0.000 C 
ENDROOT
BRANCH   1   2
ATOM      2  C   UNL     1      48.723   3.309  17.122  0.00  0.00    +0.000 A 
ATOM      3  C   UNL     1      49.388   4.490  17.464  0.00  0.00    +0.000 A 
ATOM      4  C   UNL     1      50.768   4.476  17.709  0.00  0.00    +0.000 A 
ATOM      5  C   UNL     1      51.513   3.294  17.629  0.00  0.00    +0.000 A 
ATOM      6  C   UNL     1      50.846   2.137  17.221  0.00  0.00    +0.000 A 
ATOM      7  C   UNL     1      49.468   2.137  16.981  0.00  0.00    +0.000 A 
BRANCH   5   8
ATOM      8  N   UNL     1      52.881   3.336  17.868  0.00  0.00    +0.000 N 
ATOM      9  H   UNL     1      53.456   3.221  17.042  0.00  0.00    +0.000 HD
BRANCH   8  10
ATOM     10  C   UNL     1      53.453   4.179  18.918  0.00  0.00    +0.000 C 
BRANCH  10  11
ATOM     11  C   UNL     1      54.769   4.847  18.462  0.00  0.00    +0.000 C 
ATOM     12  C   UNL     1      55.007   6.235  19.078  0.00  0.00    +0.000 C 
ATOM     13  C   UNL     1      53.977   7.240  18.573  0.00  0.00    +0.000 C 
ATOM     14  C   UNL     1      53.950   7.273  17.045  0.00  0.00    +0.000 C 
ATOM     15  N   UNL     1      53.770   5.943  16.457  0.00  0.00    +0.000 NA
ATOM     16  C   UNL     1      54.779   4.990  16.928  0.00  0.00    +0.000 C 
ATOM     17  H   UNL     1      53.827   6.020  15.440  0.00  0.00    +0.000 HD
ENDBRANCH  10  11
ENDBRANCH   8  10
ENDBRANCH   5   8
ENDBRANCH   1   2
BRANCH   1  20
ATOM     18  C   UNL     1      46.950   4.206  14.546  0.00  0.00    +0.000 C 
ATOM     19  O   UNL     1      47.251   3.127  14.041  0.00  0.00    +0.000 OA
ATOM     20  N   UNL     1      46.931   4.374  15.900  0.00  0.00    +0.000 N 
ATOM     21  H   UNL     1      46.750   5.286  16.297  0.00  0.00    +0.000 HD
BRANCH  18  29
ATOM     22  C   UNL     1      44.178   5.009  12.664  0.00  0.00    +0.000 A 
ATOM     23  N   UNL     1      43.249   5.561  11.858  0.00  0.00    +0.000 NA
ATOM     24  C   UNL     1      43.520   6.748  11.307  0.00  0.00    +0.000 A 
ATOM     25  N   UNL     1      44.627   7.469  11.462  0.00  0.00    +0.000 NA
ATOM     26  C   UNL     1      45.523   6.886  12.277  0.00  0.00    +0.000 A 
ATOM     27  S   UNL     1      46.995   7.671  12.593  0.00  0.00    +0.000 S 
ATOM     28  C   UNL     1      47.511   6.403  13.599  0.00  0.00    +0.000 A 
ATOM     29  C   UNL     1      46.591   5.368  13.717  0.00  0.00    +0.000 A 
ATOM     30  C   UNL     1      45.395   5.664  12.929  0.00  0.00    +0.000 A 
BRANCH  22  32
ATOM     31  C   UNL     1      43.570   2.771  12.335  0.00  0.00    +0.000 C 
ATOM     32  O   UNL     1      43.880   3.805  13.266  0.00  0.00    +0.000 OA
ENDBRANCH  22  32
ENDBRANCH  18  29
ENDBRANCH   1  20
TORSDOF 7
ENDMDL
MODEL 7
REMARK VINA RESULT:    -6.372      2.029      2.611
REMARK INTER + INTRA:         -10.265
REMARK INTER:                  -8.904
REMARK INTRA:                  -1.361
REMARK UNBOUND:                -1.285
REMARK  Name = 
REMARK  8 active torsions:
REMARK  status: ('A' for Active; 'I' for Inactive)
REMARK    1  A    between atoms: C_1  and  O_2
REMARK    2  A    between atoms: O_2  and  C_3
REMARK    3  A    between atoms: C_10  and  C_11
REMARK    4  A    between atoms: N_13  and  C_14
REMARK    5  A    between atoms: C_14  and  C_15
REMARK    6  A    between atoms: C_18  and  N_19
REMARK    7  A    between atoms: N_19  and  C_20
REMARK    8  A    between atoms: C_20  and  C_21
REMARK                            x       y       z     vdW  Elec       q    Type
REMARK                         _______ _______ _______ _____ _____    ______ ____
ROOT
ATOM      1  C   UNL     1      49.878   8.449  12.829  0.00  0.00    +0.000 C 
ENDROOT
BRANCH   1   2
ATOM      2  C   UNL     1      48.477   7.906  12.887  0.00  0.00    +0.000 A 
ATOM      3  C   UNL     1      48.225   6.540  12.733  0.00  0.00    +0.000 A 
ATOM      4  C   UNL     1      46.908   6.059  12.752  0.00  0.00    +0.000 A 
ATOM      5  C   UNL     1      45.819   6.919  12.934  0.00  0.00    +0.000 A 
ATOM      6  C   UNL     1      46.083   8.287  13.019  0.00  0.00    +0.000 A 
ATOM      7  C   UNL     1      47.393   8.777  13.009  0.00  0.00    +0.000 A 
BRANCH   5   8
ATOM      8  N   UNL     1      44.533   6.393  12.932  0.00  0.00    +0.000 N 
ATOM      9  H   UNL     1      43.910   6.807  12.248  0.00  0.00    +0.000 HD
BRANCH   8  10
ATOM     10  C   UNL     1      44.275   4.987  13.245  0.00  0.00    +0.000 C 
BRANCH  10  11
ATOM     11  C   UNL     1      43.066   4.438  12.455  0.00  0.00    +0.000 C 
ATOM     12  C   UNL     1      43.316   3.064  11.812  0.00  0.00    +0.000 C 
ATOM     13  C   UNL     1      44.367   3.161  10.711  0.00  0.00    +0.000 C 
ATOM     14  C   UNL     1      43.986   4.228   9.685  0.00  0.00    +0.000 C 
ATOM     15  N   UNL     1      43.702   5.526  10.303  0.00  0.00    +0.000 NA
ATOM     16  C   UNL     1      42.674   5.429  11.342  0.00  0.00    +0.000 C 
ATOM     17  H   UNL     1      43.391   6.176   9.580  0.00  0.00    +0.000 HD
ENDBRANCH  10  11
ENDBRANCH   8  10
ENDBRANCH   5   8
ENDBRANCH   1   2
BRANCH   1  20
ATOM     18  C   UNL     1      50.857   8.032  15.045  0.00  0.00    +0.000 C 
ATOM     19  O   UNL     1      50.237   8.974  15.534  0.00  0.00    +0.000 OA
ATOM     20  N   UNL     1      50.735   7.715  13.723  0.00  0.00    +0.000 N 
ATOM     21  H   UNL     1      51.304   6.982  13.322  0.00  0.00    +0.000 HD
BRANCH  18  29
ATOM     22  C   UNL     1      50.373   5.224  16.982  0.00  0.00    +0.000 A 
ATOM     23  N   UNL     1      50.469   4.158  17.801  0.00  0.00    +0.000 NA
ATOM     24  C   UNL     1      51.666   3.870  18.321  0.00  0.00    +0.000 A 
ATOM     25  N   UNL     1      52.805   4.527  18.123  0.00  0.00    +0.000 NA
ATOM     26  C   UNL     1      52.667   5.578  17.296  0.00  0.00    +0.000 A 
ATOM     27  S   UNL     1      54.023   6.531  16.926  0.00  0.00    +0.000 S 
ATOM     28  C   UNL     1      53.097   7.550  15.933  0.00  0.00    +0.000 A 
ATOM     29  C   UNL     1      51.754   7.197  15.860  0.00  0.00    +0.000 A 
ATOM     30  C   UNL     1      51.500   6.009  16.673  0.00  0.00    +0.000 A 
BRANCH  22  32
ATOM     31  C   UNL     1      48.064   4.843  17.070  0.00  0.00    +0.000 C 
ATOM     32  O   UNL     1      49.148   5.495  16.412  0.00  0.00    +0.000 OA
ENDBRANCH  22  32
ENDBRANCH  18  29
ENDBRANCH   1  20
TORSDOF 7
ENDMDL
MODEL 8
REMARK VINA RESULT:    -6.305      3.798      8.214
REMARK INTER + INTRA:         -10.170
REMARK INTER:                  -8.634
REMARK INTRA:                  -1.536
REMARK UNBOUND:                -1.285
REMARK  Name = 
REMARK  8 active torsions:
REMARK  status: ('A' for Active; 'I' for Inactive)
REMARK    1  A    between atoms: C_1  and  O_2
REMARK    2  A    between atoms: O_2  and  C_3
REMARK    3  A    between atoms: C_10  and  C_11
REMARK    4  A    between atoms: N_13  and  C_14
REMARK    5  A    between atoms: C_14  and  C_15
REMARK    6  A    between atoms: C_18  and  N_19
REMARK    7  A    between atoms: N_19  and  C_20
REMARK    8  A    between atoms: C_20  and  C_21
REMARK                            x       y       z     vdW  Elec       q    Type
REMARK                         _______ _______ _______ _____ _____    ______ ____
ROOT
ATOM      1  C   UNL     1      48.383   8.033  11.852  0.00  0.00    +0.000 C 
ENDROOT
BRANCH   1   2
ATOM      2  C   UNL     1      48.450   7.933  13.352  0.00  0.00    +0.000 A 
ATOM      3  C   UNL     1      48.059   9.001  14.164  0.00  0.00    +0.000 A 
ATOM      4  C   UNL     1      48.166   8.901  15.558  0.00  0.00    +0.000 A 
ATOM      5  C   UNL     1      48.650   7.741  16.173  0.00  0.00    +0.000 A 
ATOM      6  C   UNL     1      49.098   6.710  15.346  0.00  0.00    +0.000 A 
ATOM      7  C   UNL     1      48.989   6.795  13.953  0.00  0.00    +0.000 A 
BRANCH   5   8
ATOM      8  N   UNL     1      48.748   7.698  17.558  0.00  0.00    +0.000 N 
ATOM      9  H   UNL     1      47.887   7.911  18.049  0.00  0.00    +0.000 HD
BRANCH   8  10
ATOM     10  C   UNL     1      49.640   6.757  18.237  0.00  0.00    +0.000 C 
BRANCH  10  11
ATOM     11  C   UNL     1      48.895   5.940  19.316  0.00  0.00    +0.000 C 
ATOM     12  C   UNL     1      49.324   4.466  19.387  0.00  0.00    +0.000 C 
ATOM     13  C   UNL     1      48.919   3.719  18.121  0.00  0.00    +0.000 C 
ATOM     14  C   UNL     1      47.424   3.882  17.845  0.00  0.00    +0.000 C 
ATOM     15  N   UNL     1      47.006   5.286  17.825  0.00  0.00    +0.000 NA
ATOM     16  C   UNL     1      47.377   5.990  19.055  0.00  0.00    +0.000 C 
ATOM     17  H   UNL     1      45.993   5.328  17.704  0.00  0.00    +0.000 HD
ENDBRANCH  10  11
ENDBRANCH   8  10
ENDBRANCH   5   8
ENDBRANCH   1   2
BRANCH   1  20
ATOM     18  C   UNL     1      46.280   6.900  11.272  0.00  0.00    +0.000 C 
ATOM     19  O   UNL     1      45.614   7.836  11.710  0.00  0.00    +0.000 OA
ATOM     20  N   UNL     1      47.644   6.922  11.310  0.00  0.00    +0.000 N 
ATOM     21  H   UNL     1      48.174   6.115  11.010  0.00  0.00    +0.000 HD
BRANCH  18  29
ATOM     22  C   UNL     1      44.467   4.281  12.587  0.00  0.00    +0.000 A 
ATOM     23  N   UNL     1      43.759   3.160  12.825  0.00  0.00    +0.000 NA
ATOM     24  C   UNL     1      43.465   2.370  11.788  0.00  0.00    +0.000 A 
ATOM     25  N   UNL     1      43.797   2.563  10.515  0.00  0.00    +0.000 NA
ATOM     26  C   UNL     1      44.496   3.694  10.320  0.00  0.00    +0.000 A 
ATOM     27  S   UNL     1      45.001   4.102   8.751  0.00  0.00    +0.000 S 
ATOM     28  C   UNL     1      45.752   5.519   9.309  0.00  0.00    +0.000 A 
ATOM     29  C   UNL     1      45.640   5.714  10.681  0.00  0.00    +0.000 A 
ATOM     30  C   UNL     1      44.879   4.620  11.285  0.00  0.00    +0.000 A 
BRANCH  22  32
ATOM     31  C   UNL     1      46.004   4.877  14.251  0.00  0.00    +0.000 C 
ATOM     32  O   UNL     1      44.734   5.118  13.650  0.00  0.00    +0.000 OA
ENDBRANCH  22  32
ENDBRANCH  18  29
ENDBRANCH   1  20
TORSDOF 7
ENDMDL
MODEL 9
REMARK VINA RESULT:    -6.233      5.838      7.169
REMARK INTER + INTRA:         -10.069
REMARK INTER:                  -8.867
REMARK INTRA:                  -1.202
REMARK UNBOUND:                -1.285
REMARK  Name = 
REMARK  8 active torsions:
REMARK  status: ('A' for Active; 'I' for Inactive)
REMARK    1  A    between atoms: C_1  and  O_2
REMARK    2  A    between atoms: O_2  and  C_3
REMARK    3  A    between atoms: C_10  and  C_11
REMARK    4  A    between atoms: N_13  and  C_14
REMARK    5  A    between atoms: C_14  and  C_15
REMARK    6  A    between atoms: C_18  and  N_19
REMARK    7  A    between atoms: N_19  and  C_20
REMARK    8  A    between atoms: C_20  and  C_21
REMARK                            x       y       z     vdW  Elec       q    Type
REMARK                         _______ _______ _______ _____ _____    ______ ____
ROOT
ATOM      1  C   UNL     1      50.568   8.771  11.429  0.00  0.00    +0.000 C 
ENDROOT
BRANCH   1   2
ATOM      2  C   UNL     1      49.298   8.159  11.954  0.00  0.00    +0.000 A 
ATOM      3  C   UNL     1      49.286   6.870  12.492  0.00  0.00    +0.000 A 
ATOM      4  C   UNL     1      48.085   6.303  12.939  0.00  0.00    +0.000 A 
ATOM      5  C   UNL     1      46.876   7.006  12.871  0.00  0.00    +0.000 A 
ATOM      6  C   UNL     1      46.894   8.265  12.270  0.00  0.00    +0.000 A 
ATOM      7  C   UNL     1      48.088   8.843  11.827  0.00  0.00    +0.000 A 
BRANCH   5   8
ATOM      8  N   UNL     1      45.710   6.394  13.316  0.00  0.00    +0.000 N 
ATOM      9  H   UNL     1      44.865   6.925  13.146  0.00  0.00    +0.000 HD
BRANCH   8  10
ATOM     10  C   UNL     1      45.551   4.939  13.301  0.00  0.00    +0.000 C 
BRANCH  10  11
ATOM     11  C   UNL     1      44.105   4.527  12.946  0.00  0.00    +0.000 C 
ATOM     12  C   UNL     1      44.005   3.177  12.217  0.00  0.00    +0.000 C 
ATOM     13  C   UNL     1      44.635   3.259  10.831  0.00  0.00    +0.000 C 
ATOM     14  C   UNL     1      44.032   4.408  10.023  0.00  0.00    +0.000 C 
ATOM     15  N   UNL     1      44.086   5.686  10.738  0.00  0.00    +0.000 NA
ATOM     16  C   UNL     1      43.455   5.605  12.059  0.00  0.00    +0.000 C 
ATOM     17  H   UNL     1      43.611   6.397  10.180  0.00  0.00    +0.000 HD
ENDBRANCH  10  11
ENDBRANCH   8  10
ENDBRANCH   5   8
ENDBRANCH   1   2
BRANCH   1  20
ATOM     18  C   UNL     1      52.482   7.963  10.114  0.00  0.00    +0.000 C 
ATOM     19  O   UNL     1      52.635   9.067   9.595  0.00  0.00    +0.000 OA
ATOM     20  N   UNL     1      51.487   7.740  11.021  0.00  0.00    +0.000 N 
ATOM     21  H   UNL     1      51.331   6.810  11.385  0.00  0.00    +0.000 HD
BRANCH  18  29
ATOM     22  C   UNL     1      53.009   6.115   7.254  0.00  0.00    +0.000 A 
ATOM     23  N   UNL     1      53.397   5.239   6.307  0.00  0.00    +0.000 NA
ATOM     24  C   UNL     1      54.310   4.319   6.636  0.00  0.00    +0.000 A 
ATOM     25  N   UNL     1      54.895   4.161   7.819  0.00  0.00    +0.000 NA
ATOM     26  C   UNL     1      54.485   5.057   8.733  0.00  0.00    +0.000 A 
ATOM     27  S   UNL     1      55.133   5.005  10.302  0.00  0.00    +0.000 S 
ATOM     28  C   UNL     1      54.185   6.326  10.790  0.00  0.00    +0.000 A 
ATOM     29  C   UNL     1      53.365   6.832   9.788  0.00  0.00    +0.000 A 
ATOM     30  C   UNL     1      53.552   6.073   8.552  0.00  0.00    +0.000 A 
BRANCH  22  32
ATOM     31  C   UNL     1      52.696   8.198   6.231  0.00  0.00    +0.000 C 
ATOM     32  O   UNL     1      52.100   7.090   6.902  0.00  0.00    +0.000 OA
ENDBRANCH  22  32
ENDBRANCH  18  29
ENDBRANCH   1  20
TORSDOF 7
ENDMDL
