MODEL 1
REMARK VINA RESULT:    -6.999      0.000      0.000
REMARK INTER + INTRA:          -9.884
REMARK INTER:                  -9.249
REMARK INTRA:                  -0.635
REMARK UNBOUND:                -0.635
REMARK  Name = 
REMARK  7 active torsions:
REMARK  status: ('A' for Active; 'I' for Inactive)
REMARK    1  A    between atoms: C_1  and  C_2
REMARK    2  A    between atoms: C_2  and  C_3
REMARK    3  A    between atoms: C_2  and  N_10
REMARK    4  A    between atoms: C_3  and  C_4
REMARK    5  A    between atoms: C_13  and  C_14
REMARK    6  A    between atoms: C_14  and  C_15
REMARK    7  A    between atoms: C_15  and  O_16
REMARK                            x       y       z     vdW  Elec       q    Type
REMARK                         _______ _______ _______ _____ _____    ______ ____
ROOT
ATOM      1  N   UNL     1      45.567   4.585  11.327  0.00  0.00    +0.000 NA
ATOM      2  C   UNL     1      45.741   5.893  10.660  0.00  0.00    +0.000 C 
ATOM      3  C   UNL     1      46.852   6.737  11.293  0.00  0.00    +0.000 C 
ATOM      4  C   UNL     1      46.632   6.964  12.792  0.00  0.00    +0.000 C 
ATOM      5  C   UNL     1      46.440   5.589  13.440  0.00  0.00    +0.000 C 
ATOM      6  C   UNL     1      45.325   4.775  12.770  0.00  0.00    +0.000 C 
ENDROOT
BRANCH   1   8
ATOM      7  C   UNL     1      43.119   4.161  11.221  0.00  0.00    +0.000 C 
ATOM      8  C   UNL     1      44.502   3.772  10.654  0.00  0.00    +0.000 C 
BRANCH   8   9
ATOM      9  C   UNL     1      44.465   3.936   9.102  0.00  0.00    +0.000 C 
BRANCH   9  10
ATOM     10  C   UNL     1      45.471   3.101   8.335  0.00  0.00    +0.000 A 
ATOM     11  C   UNL     1      46.317   3.700   7.391  0.00  0.00    +0.000 A 
ATOM     12  C   UNL     1      47.265   2.938   6.703  0.00  0.00    +0.000 A 
ATOM     13  C   UNL     1      47.379   1.571   6.952  0.00  0.00    +0.000 A 
ATOM     14  C   UNL     1      46.544   0.966   7.886  0.00  0.00    +0.000 A 
ATOM     15  C   UNL     1      45.597   1.725   8.577  0.00  0.00    +0.000 A 
ENDBRANCH   9  10
ENDBRANCH   8   9
ENDBRANCH   1   8
BRANCH   4  16
ATOM     16  C   UNL     1      45.465   7.940  13.042  0.00  0.00    +0.000 C 
BRANCH  16  17
ATOM     17  C   UNL     1      45.600   9.260  12.290  0.00  0.00    +0.000 C 
BRANCH  17  18
ATOM     18  O   UNL     1      44.465  10.077  12.548  0.00  0.00    +0.000 OA
ATOM     19  H   UNL     1      43.794   9.521  12.979  0.00  0.00    +0.000 HD
ENDBRANCH  17  18
ENDBRANCH  16  17
ENDBRANCH   4  16
TORSDOF 6
ENDMDL
MODEL 2
REMARK VINA RESULT:    -6.848      1.737      2.204
REMARK INTER + INTRA:          -9.684
REMARK INTER:                  -9.051
REMARK INTRA:                  -0.634
REMARK UNBOUND:                -0.635
REMARK  Name = 
REMARK  7 active torsions:
REMARK  status: ('A' for Active; 'I' for Inactive)
REMARK    1  A    between atoms: C_1  and  C_2
REMARK    2  A    between atoms: C_2  and  C_3
REMARK    3  A    between atoms: C_2  and  N_10
REMARK    4  A    between atoms: C_3  and  C_4
REMARK    5  A    between atoms: C_13  and  C_14
REMARK    6  A    between atoms: C_14  and  C_15
REMARK    7  A    between atoms: C_15  and  O_16
REMARK                            x       y       z     vdW  Elec       q    Type
REMARK                         _______ _______ _______ _____ _____    ______ ____
ROOT
ATOM      1  N   UNL     1      44.792   4.732  11.802  0.00  0.00    +0.000 NA
ATOM      2  C   UNL     1      46.013   4.646  12.631  0.00  0.00    +0.000 C 
ATOM      3  C   UNL     1      46.251   5.908  13.467  0.00  0.00    +0.000 C 
ATOM      4  C   UNL     1      46.316   7.174  12.607  0.00  0.00    +0.000 C 
ATOM      5  C   UNL     1      45.043   7.215  11.755  0.00  0.00    +0.000 C 
ATOM      6  C   UNL     1      44.839   5.930  10.943  0.00  0.00    +0.000 C 
ENDROOT
BRANCH   1   8
ATOM      7  C   UNL     1      43.347   2.717  11.612  0.00  0.00    +0.000 C 
ATOM      8  C   UNL     1      44.569   3.463  11.034  0.00  0.00    +0.000 C 
BRANCH   8   9
ATOM      9  C   UNL     1      44.340   3.680   9.505  0.00  0.00    +0.000 C 
BRANCH   9  10
ATOM     10  C   UNL     1      45.339   2.996   8.594  0.00  0.00    +0.000 A 
ATOM     11  C   UNL     1      46.073   3.741   7.660  0.00  0.00    +0.000 A 
ATOM     12  C   UNL     1      47.016   3.119   6.838  0.00  0.00    +0.000 A 
ATOM     13  C   UNL     1      47.238   1.747   6.942  0.00  0.00    +0.000 A 
ATOM     14  C   UNL     1      46.516   0.997   7.865  0.00  0.00    +0.000 A 
ATOM     15  C   UNL     1      45.574   1.616   8.689  0.00  0.00    +0.000 A 
ENDBRANCH   9  10
ENDBRANCH   8   9
ENDBRANCH   1   8
BRANCH   4  16
ATOM     16  C   UNL     1      47.619   7.223  11.785  0.00  0.00    +0.000 C 
BRANCH  16  17
ATOM     17  C   UNL     1      48.835   7.666  12.593  0.00  0.00    +0.000 C 
BRANCH  17  18
ATOM     18  O   UNL     1      49.678   6.548  12.841  0.00  0.00    +0.000 OA
ATOM     19  H   UNL     1      50.023   6.634  13.745  0.00  0.00    +0.000 HD
ENDBRANCH  17  18
ENDBRANCH  16  17
ENDBRANCH   4  16
TORSDOF 6
ENDMDL
MODEL 3
REMARK VINA RESULT:    -6.097      1.957      2.991
REMARK INTER + INTRA:          -8.692
REMARK INTER:                  -8.728
REMARK INTRA:                   0.036
REMARK UNBOUND:                -0.635
REMARK  Name = 
REMARK  7 active torsions:
REMARK  status: ('A' for Active; 'I' for Inactive)
REMARK    1  A    between atoms: C_1  and  C_2
REMARK    2  A    between atoms: C_2  and  C_3
REMARK    3  A    between atoms: C_2  and  N_10
REMARK    4  A    between atoms: C_3  and  C_4
REMARK    5  A    between atoms: C_13  and  C_14
REMARK    6  A    between atoms: C_14  and  C_15
REMARK    7  A    between atoms: C_15  and  O_16
REMARK                            x       y       z     vdW  Elec       q    Type
REMARK                         _______ _______ _______ _____ _____    ______ ____
ROOT
ATOM      1  N   UNL     1      44.330   4.777  10.588  0.00  0.00    +0.000 NA
ATOM      2  C   UNL     1      44.425   3.521  11.362  0.00  0.00    +0.000 C 
ATOM      3  C   UNL     1      44.099   3.714  12.846  0.00  0.00    +0.000 C 
ATOM      4  C   UNL     1      44.983   4.777  13.505  0.00  0.00    +0.000 C 
ATOM      5  C   UNL     1      44.869   6.053  12.664  0.00  0.00    +0.000 C 
ATOM      6  C   UNL     1      45.194   5.813  11.185  0.00  0.00    +0.000 C 
ENDROOT
BRANCH   1   8
ATOM      7  C   UNL     1      45.981   5.155   8.768  0.00  0.00    +0.000 C 
ATOM      8  C   UNL     1      44.613   4.540   9.135  0.00  0.00    +0.000 C 
BRANCH   8   9
ATOM      9  C   UNL     1      44.623   3.033   8.728  0.00  0.00    +0.000 C 
BRANCH   9  10
ATOM     10  C   UNL     1      45.727   2.624   7.773  0.00  0.00    +0.000 A 
ATOM     11  C   UNL     1      46.493   1.477   8.025  0.00  0.00    +0.000 A 
ATOM     12  C   UNL     1      47.493   1.081   7.133  0.00  0.00    +0.000 A 
ATOM     13  C   UNL     1      47.736   1.824   5.979  0.00  0.00    +0.000 A 
ATOM     14  C   UNL     1      46.981   2.964   5.719  0.00  0.00    +0.000 A 
ATOM     15  C   UNL     1      45.981   3.361   6.607  0.00  0.00    +0.000 A 
ENDBRANCH   9  10
ENDBRANCH   8   9
ENDBRANCH   1   8
BRANCH   4  16
ATOM     16  C   UNL     1      46.429   4.271  13.677  0.00  0.00    +0.000 C 
BRANCH  16  17
ATOM     17  C   UNL     1      47.369   5.301  14.295  0.00  0.00    +0.000 C 
BRANCH  17  18
ATOM     18  O   UNL     1      48.295   5.753  13.315  0.00  0.00    +0.000 OA
ATOM     19  H   UNL     1      47.811   6.321  12.692  0.00  0.00    +0.000 HD
ENDBRANCH  17  18
ENDBRANCH  16  17
ENDBRANCH   4  16
TORSDOF 6
ENDMDL
MODEL 4
REMARK VINA RESULT:    -5.923      1.755      2.306
REMARK INTER + INTRA:          -8.462
REMARK INTER:                  -7.883
REMARK INTRA:                  -0.579
REMARK UNBOUND:                -0.635
REMARK  Name = 
REMARK  7 active torsions:
REMARK  status: ('A' for Active; 'I' for Inactive)
REMARK    1  A    between atoms: C_1  and  C_2
REMARK    2  A    between atoms: C_2  and  C_3
REMARK    3  A    between atoms: C_2  and  N_10
REMARK    4  A    between atoms: C_3  and  C_4
REMARK    5  A    between atoms: C_13  and  C_14
REMARK    6  A    between atoms: C_14  and  C_15
REMARK    7  A    between atoms: C_15  and  O_16
REMARK                            x       y       z     vdW  Elec       q    Type
REMARK                         _______ _______ _______ _____ _____    ______ ____
ROOT
ATOM      1  N   UNL     1      45.267   6.313  11.649  0.00  0.00    +0.000 NA
ATOM      2  C   UNL     1      44.966   7.134  12.841  0.00  0.00    +0.000 C 
ATOM      3  C   UNL     1      45.749   8.450  12.866  0.00  0.00    +0.000 C 
ATOM      4  C   UNL     1      47.263   8.231  12.776  0.00  0.00    +0.000 C 
ATOM      5  C   UNL     1      47.528   7.365  11.541  0.00  0.00    +0.000 C 
ATOM      6  C   UNL     1      46.717   6.063  11.552  0.00  0.00    +0.000 C 
ENDROOT
BRANCH   1   8
ATOM      7  C   UNL     1      43.300   5.178  12.661  0.00  0.00    +0.000 C 
ATOM      8  C   UNL     1      44.450   5.055  11.638  0.00  0.00    +0.000 C 
BRANCH   8   9
ATOM      9  C   UNL     1      43.838   4.708  10.245  0.00  0.00    +0.000 C 
BRANCH   9  10
ATOM     10  C   UNL     1      44.698   3.831   9.357  0.00  0.00    +0.000 A 
ATOM     11  C   UNL     1      45.536   4.406   8.391  0.00  0.00    +0.000 A 
ATOM     12  C   UNL     1      46.352   3.603   7.589  0.00  0.00    +0.000 A 
ATOM     13  C   UNL     1      46.341   2.218   7.746  0.00  0.00    +0.000 A 
ATOM     14  C   UNL     1      45.514   1.637   8.702  0.00  0.00    +0.000 A 
ATOM     15  C   UNL     1      44.699   2.436   9.505  0.00  0.00    +0.000 A 
ENDBRANCH   9  10
ENDBRANCH   8   9
ENDBRANCH   1   8
BRANCH   4  16
ATOM     16  C   UNL     1      47.819   7.637  14.086  0.00  0.00    +0.000 C 
BRANCH  16  17
ATOM     17  C   UNL     1      48.450   8.674  15.009  0.00  0.00    +0.000 C 
BRANCH  17  18
ATOM     18  O   UNL     1      47.451   9.240  15.848  0.00  0.00    +0.000 OA
ATOM     19  H   UNL     1      46.594   9.123  15.405  0.00  0.00    +0.000 HD
ENDBRANCH  17  18
ENDBRANCH  16  17
ENDBRANCH   4  16
TORSDOF 6
ENDMDL
MODEL 5
REMARK VINA RESULT:    -5.801      3.090      6.754
REMARK INTER + INTRA:          -8.301
REMARK INTER:                  -7.821
REMARK INTRA:                  -0.480
REMARK UNBOUND:                -0.635
REMARK  Name = 
REMARK  7 active torsions:
REMARK  status: ('A' for Active; 'I' for Inactive)
REMARK    1  A    between atoms: C_1  and  C_2
REMARK    2  A    between atoms: C_2  and  C_3
REMARK    3  A    between atoms: C_2  and  N_10
REMARK    4  A    between atoms: C_3  and  C_4
REMARK    5  A    between atoms: C_13  and  C_14
REMARK    6  A    between atoms: C_14  and  C_15
REMARK    7  A    between atoms: C_15  and  O_16
REMARK                            x       y       z     vdW  Elec       q    Type
REMARK                         _______ _______ _______ _____ _____    ______ ____
ROOT
ATOM      1  N   UNL     1      44.871   4.418  10.769  0.00  0.00    +0.000 NA
ATOM      2  C   UNL     1      45.562   4.765   9.509  0.00  0.00    +0.000 C 
ATOM      3  C   UNL     1      44.946   4.078   8.286  0.00  0.00    +0.000 C 
ATOM      4  C   UNL     1      44.904   2.554   8.433  0.00  0.00    +0.000 C 
ATOM      5  C   UNL     1      44.196   2.239   9.754  0.00  0.00    +0.000 C 
ATOM      6  C   UNL     1      44.839   2.954  10.949  0.00  0.00    +0.000 C 
ENDROOT
BRANCH   1   8
ATOM      7  C   UNL     1      44.381   5.959  12.657  0.00  0.00    +0.000 C 
ATOM      8  C   UNL     1      45.474   5.142  11.935  0.00  0.00    +0.000 C 
BRANCH   8   9
ATOM      9  C   UNL     1      46.163   4.206  12.976  0.00  0.00    +0.000 C 
BRANCH   9  10
ATOM     10  C   UNL     1      47.014   4.905  14.017  0.00  0.00    +0.000 A 
ATOM     11  C   UNL     1      47.145   4.365  15.305  0.00  0.00    +0.000 A 
ATOM     12  C   UNL     1      47.952   4.991  16.259  0.00  0.00    +0.000 A 
ATOM     13  C   UNL     1      48.638   6.161  15.935  0.00  0.00    +0.000 A 
ATOM     14  C   UNL     1      48.516   6.705  14.661  0.00  0.00    +0.000 A 
ATOM     15  C   UNL     1      47.712   6.081  13.705  0.00  0.00    +0.000 A 
ENDBRANCH   9  10
ENDBRANCH   8   9
ENDBRANCH   1   8
BRANCH   4  16
ATOM     16  C   UNL     1      46.316   1.944   8.320  0.00  0.00    +0.000 C 
BRANCH  16  17
ATOM     17  C   UNL     1      47.047   2.329   7.038  0.00  0.00    +0.000 C 
BRANCH  17  18
ATOM     18  O   UNL     1      48.161   1.465   6.846  0.00  0.00    +0.000 OA
ATOM     19  H   UNL     1      48.055   0.710   7.447  0.00  0.00    +0.000 HD
ENDBRANCH  17  18
ENDBRANCH  16  17
ENDBRANCH   4  16
TORSDOF 6
ENDMDL
MODEL 6
REMARK VINA RESULT:    -5.741      2.757      6.445
REMARK INTER + INTRA:          -8.222
REMARK INTER:                  -7.636
REMARK INTRA:                  -0.586
REMARK UNBOUND:                -0.635
REMARK  Name = 
REMARK  7 active torsions:
REMARK  status: ('A' for Active; 'I' for Inactive)
REMARK    1  A    between atoms: C_1  and  C_2
REMARK    2  A    between atoms: C_2  and  C_3
REMARK    3  A    between atoms: C_2  and  N_10
REMARK    4  A    between atoms: C_3  and  C_4
REMARK    5  A    between atoms: C_13  and  C_14
REMARK    6  A    between atoms: C_14  and  C_15
REMARK    7  A    between atoms: C_15  and  O_16
REMARK                            x       y       z     vdW  Elec       q    Type
REMARK                         _______ _______ _______ _____ _____    ______ ____
ROOT
ATOM      1  N   UNL     1      44.333   4.056  10.284  0.00  0.00    +0.000 NA
ATOM      2  C   UNL     1      45.041   4.702   9.157  0.00  0.00    +0.000 C 
ATOM      3  C   UNL     1      44.854   3.954   7.834  0.00  0.00    +0.000 C 
ATOM      4  C   UNL     1      45.288   2.488   7.925  0.00  0.00    +0.000 C 
ATOM      5  C   UNL     1      44.546   1.863   9.111  0.00  0.00    +0.000 C 
ATOM      6  C   UNL     1      44.753   2.648  10.412  0.00  0.00    +0.000 C 
ENDROOT
BRANCH   1   8
ATOM      7  C   UNL     1      43.881   4.059  12.728  0.00  0.00    +0.000 C 
ATOM      8  C   UNL     1      44.503   4.840  11.550  0.00  0.00    +0.000 C 
BRANCH   8   9
ATOM      9  C   UNL     1      45.989   5.164  11.901  0.00  0.00    +0.000 C 
BRANCH   9  10
ATOM     10  C   UNL     1      46.301   6.631  12.124  0.00  0.00    +0.000 A 
ATOM     11  C   UNL     1      47.588   7.128  11.874  0.00  0.00    +0.000 A 
ATOM     12  C   UNL     1      47.871   8.485  12.050  0.00  0.00    +0.000 A 
ATOM     13  C   UNL     1      46.872   9.359  12.475  0.00  0.00    +0.000 A 
ATOM     14  C   UNL     1      45.591   8.876  12.726  0.00  0.00    +0.000 A 
ATOM     15  C   UNL     1      45.305   7.522  12.549  0.00  0.00    +0.000 A 
ENDBRANCH   9  10
ENDBRANCH   8   9
ENDBRANCH   1   8
BRANCH   4  16
ATOM     16  C   UNL     1      46.823   2.366   8.015  0.00  0.00    +0.000 C 
BRANCH  16  17
ATOM     17  C   UNL     1      47.465   1.787   6.758  0.00  0.00    +0.000 C 
BRANCH  17  18
ATOM     18  O   UNL     1      48.628   2.536   6.427  0.00  0.00    +0.000 OA
ATOM     19  H   UNL     1      48.450   3.002   5.593  0.00  0.00    +0.000 HD
ENDBRANCH  17  18
ENDBRANCH  16  17
ENDBRANCH   4  16
TORSDOF 6
ENDMDL
MODEL 7
REMARK VINA RESULT:    -5.467      2.463      6.209
REMARK INTER + INTRA:          -7.860
REMARK INTER:                  -7.189
REMARK INTRA:                  -0.671
REMARK UNBOUND:                -0.635
REMARK  Name = 
REMARK  7 active torsions:
REMARK  status: ('A' for Active; 'I' for Inactive)
REMARK    1  A    between atoms: C_1  and  C_2
REMARK    2  A    between atoms: C_2  and  C_3
REMARK    3  A    between atoms: C_2  and  N_10
REMARK    4  A    between atoms: C_3  and  C_4
REMARK    5  A    between atoms: C_13  and  C_14
REMARK    6  A    between atoms: C_14  and  C_15
REMARK    7  A    between atoms: C_15  and  O_16
REMARK                            x       y       z     vdW  Elec       q    Type
REMARK                         _______ _______ _______ _____ _____    ______ ____
ROOT
ATOM      1  N   UNL     1      45.071   5.140  12.638  0.00  0.00    +0.000 NA
ATOM      2  C   UNL     1      44.755   5.607  11.271  0.00  0.00    +0.000 C 
ATOM      3  C   UNL     1      43.556   4.877  10.658  0.00  0.00    +0.000 C 
ATOM      4  C   UNL     1      43.747   3.357  10.638  0.00  0.00    +0.000 C 
ATOM      5  C   UNL     1      44.088   2.918  12.065  0.00  0.00    +0.000 C 
ATOM      6  C   UNL     1      45.287   3.681  12.643  0.00  0.00    +0.000 C 
ENDROOT
BRANCH   1   8
ATOM      7  C   UNL     1      46.876   5.080  14.347  0.00  0.00    +0.000 C 
ATOM      8  C   UNL     1      46.220   5.908  13.220  0.00  0.00    +0.000 C 
BRANCH   8   9
ATOM      9  C   UNL     1      47.321   6.288  12.180  0.00  0.00    +0.000 C 
BRANCH   9  10
ATOM     10  C   UNL     1      47.584   7.772  12.024  0.00  0.00    +0.000 A 
ATOM     11  C   UNL     1      46.565   8.702  12.272  0.00  0.00    +0.000 A 
ATOM     12  C   UNL     1      46.811  10.073  12.157  0.00  0.00    +0.000 A 
ATOM     13  C   UNL     1      48.078  10.529  11.796  0.00  0.00    +0.000 A 
ATOM     14  C   UNL     1      49.097   9.614  11.547  0.00  0.00    +0.000 A 
ATOM     15  C   UNL     1      48.855   8.244  11.663  0.00  0.00    +0.000 A 
ENDBRANCH   9  10
ENDBRANCH   8   9
ENDBRANCH   1   8
BRANCH   4  16
ATOM     16  C   UNL     1      44.798   2.941   9.589  0.00  0.00    +0.000 C 
BRANCH  16  17
ATOM     17  C   UNL     1      44.643   3.656   8.250  0.00  0.00    +0.000 C 
BRANCH  17  18
ATOM     18  O   UNL     1      45.803   4.433   7.985  0.00  0.00    +0.000 OA
ATOM     19  H   UNL     1      46.575   3.849   8.071  0.00  0.00    +0.000 HD
ENDBRANCH  17  18
ENDBRANCH  16  17
ENDBRANCH   4  16
TORSDOF 6
ENDMDL
MODEL 8
REMARK VINA RESULT:    -5.233      4.483      6.456
REMARK INTER + INTRA:          -7.550
REMARK INTER:                  -7.085
REMARK INTRA:                  -0.465
REMARK UNBOUND:                -0.635
REMARK  Name = 
REMARK  7 active torsions:
REMARK  status: ('A' for Active; 'I' for Inactive)
REMARK    1  A    between atoms: C_1  and  C_2
REMARK    2  A    between atoms: C_2  and  C_3
REMARK    3  A    between atoms: C_2  and  N_10
REMARK    4  A    between atoms: C_3  and  C_4
REMARK    5  A    between atoms: C_13  and  C_14
REMARK    6  A    between atoms: C_14  and  C_15
REMARK    7  A    between atoms: C_15  and  O_16
REMARK                            x       y       z     vdW  Elec       q    Type
REMARK                         _______ _______ _______ _____ _____    ______ ____
ROOT
ATOM      1  N   UNL     1      48.083   4.756  15.471  0.00  0.00    +0.000 NA
ATOM      2  C   UNL     1      48.635   5.944  16.156  0.00  0.00    +0.000 C 
ATOM      3  C   UNL     1      49.627   5.580  17.265  0.00  0.00    +0.000 C 
ATOM      4  C   UNL     1      49.018   4.638  18.308  0.00  0.00    +0.000 C 
ATOM      5  C   UNL     1      48.445   3.432  17.556  0.00  0.00    +0.000 C 
ATOM      6  C   UNL     1      47.465   3.842  16.450  0.00  0.00    +0.000 C 
ENDROOT
BRANCH   1   8
ATOM      7  C   UNL     1      47.831   6.215  13.474  0.00  0.00    +0.000 C 
ATOM      8  C   UNL     1      47.151   5.152  14.365  0.00  0.00    +0.000 C 
BRANCH   8   9
ATOM      9  C   UNL     1      46.698   3.964  13.460  0.00  0.00    +0.000 C 
BRANCH   9  10
ATOM     10  C   UNL     1      45.360   4.144  12.772  0.00  0.00    +0.000 A 
ATOM     11  C   UNL     1      44.983   3.295  11.722  0.00  0.00    +0.000 A 
ATOM     12  C   UNL     1      43.738   3.439  11.104  0.00  0.00    +0.000 A 
ATOM     13  C   UNL     1      42.856   4.431  11.530  0.00  0.00    +0.000 A 
ATOM     14  C   UNL     1      43.219   5.279  12.572  0.00  0.00    +0.000 A 
ATOM     15  C   UNL     1      44.462   5.136  13.192  0.00  0.00    +0.000 A 
ENDBRANCH   9  10
ENDBRANCH   8   9
ENDBRANCH   1   8
BRANCH   4  16
ATOM     16  C   UNL     1      47.987   5.373  19.188  0.00  0.00    +0.000 C 
BRANCH  16  17
ATOM     17  C   UNL     1      48.278   5.275  20.682  0.00  0.00    +0.000 C 
BRANCH  17  18
ATOM     18  O   UNL     1      48.372   3.908  21.063  0.00  0.00    +0.000 OA
ATOM     19  H   UNL     1      49.272   3.606  20.856  0.00  0.00    +0.000 HD
ENDBRANCH  17  18
ENDBRANCH  16  17
ENDBRANCH   4  16
TORSDOF 6
ENDMDL
MODEL 9
REMARK VINA RESULT:    -5.204      3.689      6.995
REMARK INTER + INTRA:          -7.513
REMARK INTER:                  -6.926
REMARK INTRA:                  -0.586
REMARK UNBOUND:                -0.635
REMARK  Name = 
REMARK  7 active torsions:
REMARK  status: ('A' for Active; 'I' for Inactive)
REMARK    1  A    between atoms: C_1  and  C_2
REMARK    2  A    between atoms: C_2  and  C_3
REMARK    3  A    between atoms: C_2  and  N_10
REMARK    4  A    between atoms: C_3  and  C_4
REMARK    5  A    between atoms: C_13  and  C_14
REMARK    6  A    between atoms: C_14  and  C_15
REMARK    7  A    between atoms: C_15  and  O_16
REMARK                            x       y       z     vdW  Elec       q    Type
REMARK                         _______ _______ _______ _____ _____    ______ ____
ROOT
ATOM      1  N   UNL     1      45.632   4.698  12.980  0.00  0.00    +0.000 NA
ATOM      2  C   UNL     1      45.576   5.663  11.861  0.00  0.00    +0.000 C 
ATOM      3  C   UNL     1      44.233   5.637  11.124  0.00  0.00    +0.000 C 
ATOM      4  C   UNL     1      43.880   4.241  10.601  0.00  0.00    +0.000 C 
ATOM      5  C   UNL     1      43.966   3.273  11.786  0.00  0.00    +0.000 C 
ATOM      6  C   UNL     1      45.322   3.338  12.500  0.00  0.00    +0.000 C 
ENDROOT
BRANCH   1   8
ATOM      7  C   UNL     1      47.726   6.018  13.207  0.00  0.00    +0.000 C 
ATOM      8  C   UNL     1      46.942   4.784  13.703  0.00  0.00    +0.000 C 
BRANCH   8   9
ATOM      9  C   UNL     1      46.806   4.875  15.256  0.00  0.00    +0.000 C 
BRANCH   9  10
ATOM     10  C   UNL     1      47.889   4.169  16.047  0.00  0.00    +0.000 A 
ATOM     11  C   UNL     1      48.040   2.778  15.958  0.00  0.00    +0.000 A 
ATOM     12  C   UNL     1      49.056   2.128  16.664  0.00  0.00    +0.000 A 
ATOM     13  C   UNL     1      49.933   2.860  17.462  0.00  0.00    +0.000 A 
ATOM     14  C   UNL     1      49.793   4.241  17.557  0.00  0.00    +0.000 A 
ATOM     15  C   UNL     1      48.780   4.894  16.852  0.00  0.00    +0.000 A 
ENDBRANCH   9  10
ENDBRANCH   8   9
ENDBRANCH   1   8
BRANCH   4  16
ATOM     16  C   UNL     1      44.776   3.849   9.409  0.00  0.00    +0.000 C 
BRANCH  16  17
ATOM     17  C   UNL     1      44.511   2.443   8.881  0.00  0.00    +0.000 C 
BRANCH  17  18
ATOM     18  O   UNL     1      45.633   1.611   9.152  0.00  0.00    +0.000 OA
ATOM     19  H   UNL     1      46.420   2.051   8.792  0.00  0.00    +0.000 HD
ENDBRANCH  17  18
ENDBRANCH  16  17
ENDBRANCH   4  16
TORSDOF 6
ENDMDL
