MODEL 1
REMARK VINA RESULT:    -9.040      0.000      0.000
REMARK INTER + INTRA:         -12.322
REMARK INTER:                 -11.683
REMARK INTRA:                  -0.640
REMARK UNBOUND:                -0.640
REMARK  Name = 
REMARK  5 active torsions:
REMARK  status: ('A' for Active; 'I' for Inactive)
REMARK    1  A    between atoms: C_2  and  C_4
REMARK    2  A    between atoms: C_7  and  N_8
REMARK    3  A    between atoms: N_8  and  C_9
REMARK    4  A    between atoms: C_9  and  C_10
REMARK    5  A    between atoms: C_12  and  C_13
REMARK                            x       y       z     vdW  Elec       q    Type
REMARK                         _______ _______ _______ _____ _____    ______ ____
ROOT
ATOM      1  N   UNL     1      43.787   4.760  10.027  0.00  0.00    +0.000 N 
ATOM      2  H   UNL     1      42.828   4.803   9.689  0.00  0.00    +0.000 HD
ENDROOT
BRANCH   1   6
ATOM      3  C   UNL     1      46.361   2.269   7.784  0.00  0.00    +0.000 A 
ATOM      4  C   UNL     1      45.479   1.701   8.703  0.00  0.00    +0.000 A 
ATOM      5  C   UNL     1      44.611   2.515   9.436  0.00  0.00    +0.000 A 
ATOM      6  C   UNL     1      44.584   3.903   9.256  0.00  0.00    +0.000 A 
ATOM      7  C   UNL     1      45.489   4.460   8.346  0.00  0.00    +0.000 A 
ATOM      8  C   UNL     1      46.377   3.656   7.616  0.00  0.00    +0.000 A 
BRANCH   3  10
ATOM      9  N   UNL     1      48.443   2.042   6.548  0.00  0.00    +0.000 N 
ATOM     10  C   UNL     1      47.312   1.427   7.014  0.00  0.00    +0.000 C 
ATOM     11  O   UNL     1      47.114   0.236   6.822  0.00  0.00    +0.000 OA
ATOM     12  H   UNL     1      49.128   1.451   6.095  0.00  0.00    +0.000 HD
ATOM     13  H   UNL     1      48.751   2.943   6.889  0.00  0.00    +0.000 HD
ENDBRANCH   3  10
ENDBRANCH   1   6
BRANCH   1  14
ATOM     14  C   UNL     1      43.883   4.692  11.485  0.00  0.00    +0.000 C 
BRANCH  14  15
ATOM     15  C   UNL     1      45.186   5.255  12.013  0.00  0.00    +0.000 A 
ATOM     16  C   UNL     1      45.759   4.731  13.170  0.00  0.00    +0.000 A 
ATOM     17  C   UNL     1      46.913   5.317  13.713  0.00  0.00    +0.000 A 
ATOM     18  C   UNL     1      47.435   6.432  13.042  0.00  0.00    +0.000 A 
ATOM     19  C   UNL     1      46.810   6.890  11.895  0.00  0.00    +0.000 A 
ATOM     20  N   UNL     1      45.704   6.328  11.369  0.00  0.00    +0.000 NA
BRANCH  17  21
ATOM     21  C   UNL     1      47.535   4.790  14.941  0.00  0.00    +0.000 A 
ATOM     22  N   UNL     1      47.359   3.482  15.222  0.00  0.00    +0.000 NA
ATOM     23  C   UNL     1      47.939   3.021  16.343  0.00  0.00    +0.000 A 
ATOM     24  C   UNL     1      48.681   3.806  17.190  0.00  0.00    +0.000 A 
ATOM     25  C   UNL     1      48.801   5.125  16.820  0.00  0.00    +0.000 A 
ATOM     26  N   UNL     1      48.244   5.641  15.708  0.00  0.00    +0.000 NA
ENDBRANCH  17  21
ENDBRANCH  14  15
ENDBRANCH   1  14
TORSDOF 5
ENDMDL
MODEL 2
REMARK VINA RESULT:    -8.675      1.890      3.456
REMARK INTER + INTRA:         -11.850
REMARK INTER:                 -11.047
REMARK INTRA:                  -0.803
REMARK UNBOUND:                -0.640
REMARK  Name = 
REMARK  5 active torsions:
REMARK  status: ('A' for Active; 'I' for Inactive)
REMARK    1  A    between atoms: C_2  and  C_4
REMARK    2  A    between atoms: C_7  and  N_8
REMARK    3  A    between atoms: N_8  and  C_9
REMARK    4  A    between atoms: C_9  and  C_10
REMARK    5  A    between atoms: C_12  and  C_13
REMARK                            x       y       z     vdW  Elec       q    Type
REMARK                         _______ _______ _______ _____ _____    ______ ____
ROOT
ATOM      1  N   UNL     1      43.714   4.728  10.031  0.00  0.00    +0.000 N 
ATOM      2  H   UNL     1      42.805   4.888   9.601  0.00  0.00    +0.000 HD
ENDROOT
BRANCH   1   6
ATOM      3  C   UNL     1      46.339   2.299   7.781  0.00  0.00    +0.000 A 
ATOM      4  C   UNL     1      45.440   1.706   8.668  0.00  0.00    +0.000 A 
ATOM      5  C   UNL     1      44.556   2.500   9.402  0.00  0.00    +0.000 A 
ATOM      6  C   UNL     1      44.528   3.892   9.257  0.00  0.00    +0.000 A 
ATOM      7  C   UNL     1      45.451   4.474   8.379  0.00  0.00    +0.000 A 
ATOM      8  C   UNL     1      46.356   3.689   7.648  0.00  0.00    +0.000 A 
BRANCH   3  10
ATOM      9  N   UNL     1      48.422   2.120   6.538  0.00  0.00    +0.000 N 
ATOM     10  C   UNL     1      47.309   1.478   7.011  0.00  0.00    +0.000 C 
ATOM     11  O   UNL     1      47.140   0.282   6.824  0.00  0.00    +0.000 OA
ATOM     12  H   UNL     1      49.120   1.544   6.085  0.00  0.00    +0.000 HD
ATOM     13  H   UNL     1      48.708   3.029   6.874  0.00  0.00    +0.000 HD
ENDBRANCH   3  10
ENDBRANCH   1   6
BRANCH   1  14
ATOM     14  C   UNL     1      43.637   4.500  11.474  0.00  0.00    +0.000 C 
BRANCH  14  15
ATOM     15  C   UNL     1      44.911   4.884  12.196  0.00  0.00    +0.000 A 
ATOM     16  C   UNL     1      45.557   6.081  11.892  0.00  0.00    +0.000 A 
ATOM     17  C   UNL     1      46.789   6.389  12.490  0.00  0.00    +0.000 A 
ATOM     18  C   UNL     1      47.316   5.445  13.382  0.00  0.00    +0.000 A 
ATOM     19  C   UNL     1      46.611   4.281  13.636  0.00  0.00    +0.000 A 
ATOM     20  N   UNL     1      45.427   3.983  13.066  0.00  0.00    +0.000 NA
BRANCH  17  21
ATOM     21  C   UNL     1      47.499   7.643  12.180  0.00  0.00    +0.000 A 
ATOM     22  N   UNL     1      46.788   8.790  12.209  0.00  0.00    +0.000 NA
ATOM     23  C   UNL     1      47.456   9.922  11.928  0.00  0.00    +0.000 A 
ATOM     24  C   UNL     1      48.794   9.956  11.621  0.00  0.00    +0.000 A 
ATOM     25  C   UNL     1      49.430   8.737  11.614  0.00  0.00    +0.000 A 
ATOM     26  N   UNL     1      48.813   7.573  11.889  0.00  0.00    +0.000 NA
ENDBRANCH  17  21
ENDBRANCH  14  15
ENDBRANCH   1  14
TORSDOF 5
ENDMDL
MODEL 3
REMARK VINA RESULT:    -7.602      3.455      7.087
REMARK INTER + INTRA:         -10.464
REMARK INTER:                  -9.696
REMARK INTRA:                  -0.768
REMARK UNBOUND:                -0.640
REMARK  Name = 
REMARK  5 active torsions:
REMARK  status: ('A' for Active; 'I' for Inactive)
REMARK    1  A    between atoms: C_2  and  C_4
REMARK    2  A    between atoms: C_7  and  N_8
REMARK    3  A    between atoms: N_8  and  C_9
REMARK    4  A    between atoms: C_9  and  C_10
REMARK    5  A    between atoms: C_12  and  C_13
REMARK                            x       y       z     vdW  Elec       q    Type
REMARK                         _______ _______ _______ _____ _____    ______ ____
ROOT
ATOM      1  N   UNL     1      44.496   6.913  12.654  0.00  0.00    +0.000 N 
ATOM      2  H   UNL     1      43.968   7.591  13.199  0.00  0.00    +0.000 HD
ENDROOT
BRANCH   1   6
ATOM      3  C   UNL     1      48.667   7.576  12.523  0.00  0.00    +0.000 A 
ATOM      4  C   UNL     1      47.796   8.574  12.086  0.00  0.00    +0.000 A 
ATOM      5  C   UNL     1      46.415   8.371  12.142  0.00  0.00    +0.000 A 
ATOM      6  C   UNL     1      45.869   7.187  12.654  0.00  0.00    +0.000 A 
ATOM      7  C   UNL     1      46.757   6.188  13.070  0.00  0.00    +0.000 A 
ATOM      8  C   UNL     1      48.146   6.372  13.002  0.00  0.00    +0.000 A 
BRANCH   3  10
ATOM      9  N   UNL     1      50.748   7.380  11.279  0.00  0.00    +0.000 N 
ATOM     10  C   UNL     1      50.140   7.757  12.446  0.00  0.00    +0.000 C 
ATOM     11  O   UNL     1      50.782   8.241  13.367  0.00  0.00    +0.000 OA
ATOM     12  H   UNL     1      51.736   7.579  11.197  0.00  0.00    +0.000 HD
ATOM     13  H   UNL     1      50.230   7.210  10.428  0.00  0.00    +0.000 HD
ENDBRANCH   3  10
ENDBRANCH   1   6
BRANCH   1  14
ATOM     14  C   UNL     1      43.847   6.555  11.393  0.00  0.00    +0.000 C 
BRANCH  14  15
ATOM     15  C   UNL     1      44.018   5.092  11.042  0.00  0.00    +0.000 A 
ATOM     16  C   UNL     1      44.798   4.718   9.949  0.00  0.00    +0.000 A 
ATOM     17  C   UNL     1      44.875   3.370   9.566  0.00  0.00    +0.000 A 
ATOM     18  C   UNL     1      44.138   2.451  10.325  0.00  0.00    +0.000 A 
ATOM     19  C   UNL     1      43.391   2.900  11.401  0.00  0.00    +0.000 A 
ATOM     20  N   UNL     1      43.316   4.192  11.773  0.00  0.00    +0.000 NA
BRANCH  17  21
ATOM     21  C   UNL     1      45.684   2.947   8.409  0.00  0.00    +0.000 A 
ATOM     22  N   UNL     1      45.927   3.861   7.446  0.00  0.00    +0.000 NA
ATOM     23  C   UNL     1      46.671   3.456   6.402  0.00  0.00    +0.000 A 
ATOM     24  C   UNL     1      47.177   2.185   6.280  0.00  0.00    +0.000 A 
ATOM     25  C   UNL     1      46.873   1.326   7.310  0.00  0.00    +0.000 A 
ATOM     26  N   UNL     1      46.135   1.677   8.380  0.00  0.00    +0.000 NA
ENDBRANCH  17  21
ENDBRANCH  14  15
ENDBRANCH   1  14
TORSDOF 5
ENDMDL
MODEL 4
REMARK VINA RESULT:    -7.084      2.774      7.539
REMARK INTER + INTRA:          -9.794
REMARK INTER:                  -9.419
REMARK INTRA:                  -0.374
REMARK UNBOUND:                -0.640
REMARK  Name = 
REMARK  5 active torsions:
REMARK  status: ('A' for Active; 'I' for Inactive)
REMARK    1  A    between atoms: C_2  and  C_4
REMARK    2  A    between atoms: C_7  and  N_8
REMARK    3  A    between atoms: N_8  and  C_9
REMARK    4  A    between atoms: C_9  and  C_10
REMARK    5  A    between atoms: C_12  and  C_13
REMARK                            x       y       z     vdW  Elec       q    Type
REMARK                         _______ _______ _______ _____ _____    ______ ____
ROOT
ATOM      1  N   UNL     1      47.420   6.777  12.273  0.00  0.00    +0.000 N 
ATOM      2  H   UNL     1      47.998   6.300  11.584  0.00  0.00    +0.000 HD
ENDROOT
BRANCH   1   6
ATOM      3  C   UNL     1      47.553   4.666  15.931  0.00  0.00    +0.000 A 
ATOM      4  C   UNL     1      48.284   5.844  15.787  0.00  0.00    +0.000 A 
ATOM      5  C   UNL     1      48.232   6.559  14.588  0.00  0.00    +0.000 A 
ATOM      6  C   UNL     1      47.437   6.134  13.517  0.00  0.00    +0.000 A 
ATOM      7  C   UNL     1      46.725   4.938  13.669  0.00  0.00    +0.000 A 
ATOM      8  C   UNL     1      46.783   4.202  14.861  0.00  0.00    +0.000 A 
BRANCH   3  10
ATOM      9  N   UNL     1      48.602   4.201  18.075  0.00  0.00    +0.000 N 
ATOM     10  C   UNL     1      47.615   3.873  17.186  0.00  0.00    +0.000 C 
ATOM     11  O   UNL     1      46.812   2.984  17.431  0.00  0.00    +0.000 OA
ATOM     12  H   UNL     1      48.593   3.716  18.963  0.00  0.00    +0.000 HD
ATOM     13  H   UNL     1      49.118   5.069  18.018  0.00  0.00    +0.000 HD
ENDBRANCH   3  10
ENDBRANCH   1   6
BRANCH   1  14
ATOM     14  C   UNL     1      46.140   7.236  11.733  0.00  0.00    +0.000 C 
BRANCH  14  15
ATOM     15  C   UNL     1      45.353   6.126  11.070  0.00  0.00    +0.000 A 
ATOM     16  C   UNL     1      45.954   5.317  10.107  0.00  0.00    +0.000 A 
ATOM     17  C   UNL     1      45.196   4.354   9.423  0.00  0.00    +0.000 A 
ATOM     18  C   UNL     1      43.837   4.261   9.755  0.00  0.00    +0.000 A 
ATOM     19  C   UNL     1      43.316   5.097  10.728  0.00  0.00    +0.000 A 
ATOM     20  N   UNL     1      44.040   6.021  11.388  0.00  0.00    +0.000 NA
BRANCH  17  21
ATOM     21  C   UNL     1      45.802   3.491   8.393  0.00  0.00    +0.000 A 
ATOM     22  N   UNL     1      46.142   4.062   7.218  0.00  0.00    +0.000 NA
ATOM     23  C   UNL     1      46.698   3.259   6.295  0.00  0.00    +0.000 A 
ATOM     24  C   UNL     1      46.925   1.919   6.493  0.00  0.00    +0.000 A 
ATOM     25  C   UNL     1      46.542   1.430   7.720  0.00  0.00    +0.000 A 
ATOM     26  N   UNL     1      45.983   2.188   8.683  0.00  0.00    +0.000 NA
ENDBRANCH  17  21
ENDBRANCH  14  15
ENDBRANCH   1  14
TORSDOF 5
ENDMDL
MODEL 5
REMARK VINA RESULT:    -6.941      3.508      7.291
REMARK INTER + INTRA:          -9.610
REMARK INTER:                  -8.919
REMARK INTRA:                  -0.691
REMARK UNBOUND:                -0.640
REMARK  Name = 
REMARK  5 active torsions:
REMARK  status: ('A' for Active; 'I' for Inactive)
REMARK    1  A    between atoms: C_2  and  C_4
REMARK    2  A    between atoms: C_7  and  N_8
REMARK    3  A    between atoms: N_8  and  C_9
REMARK    4  A    between atoms: C_9  and  C_10
REMARK    5  A    between atoms: C_12  and  C_13
REMARK                            x       y       z     vdW  Elec       q    Type
REMARK                         _______ _______ _______ _____ _____    ______ ____
ROOT
ATOM      1  N   UNL     1      45.996   6.052  13.415  0.00  0.00    +0.000 N 
ATOM      2  H   UNL     1      46.025   5.958  14.428  0.00  0.00    +0.000 HD
ENDROOT
BRANCH   1   6
ATOM      3  C   UNL     1      48.523   9.050  11.837  0.00  0.00    +0.000 A 
ATOM      4  C   UNL     1      47.261   9.395  12.320  0.00  0.00    +0.000 A 
ATOM      5  C   UNL     1      46.426   8.414  12.861  0.00  0.00    +0.000 A 
ATOM      6  C   UNL     1      46.832   7.078  12.955  0.00  0.00    +0.000 A 
ATOM      7  C   UNL     1      48.093   6.744  12.446  0.00  0.00    +0.000 A 
ATOM      8  C   UNL     1      48.934   7.716  11.885  0.00  0.00    +0.000 A 
BRANCH   3  10
ATOM      9  N   UNL     1      48.813  11.126  10.603  0.00  0.00    +0.000 N 
ATOM     10  C   UNL     1      49.417  10.071  11.232  0.00  0.00    +0.000 C 
ATOM     11  O   UNL     1      50.635   9.992  11.308  0.00  0.00    +0.000 OA
ATOM     12  H   UNL     1      49.420  11.860  10.263  0.00  0.00    +0.000 HD
ATOM     13  H   UNL     1      47.834  11.346  10.731  0.00  0.00    +0.000 HD
ENDBRANCH   3  10
ENDBRANCH   1   6
BRANCH   1  14
ATOM     14  C   UNL     1      44.647   5.940  12.862  0.00  0.00    +0.000 C 
BRANCH  14  15
ATOM     15  C   UNL     1      44.435   4.653  12.093  0.00  0.00    +0.000 A 
ATOM     16  C   UNL     1      45.141   4.416  10.915  0.00  0.00    +0.000 A 
ATOM     17  C   UNL     1      44.872   3.269  10.151  0.00  0.00    +0.000 A 
ATOM     18  C   UNL     1      43.876   2.406  10.629  0.00  0.00    +0.000 A 
ATOM     19  C   UNL     1      43.223   2.709  11.812  0.00  0.00    +0.000 A 
ATOM     20  N   UNL     1      43.481   3.807  12.549  0.00  0.00    +0.000 NA
BRANCH  17  21
ATOM     21  C   UNL     1      45.595   2.997   8.896  0.00  0.00    +0.000 A 
ATOM     22  N   UNL     1      45.793   4.029   8.049  0.00  0.00    +0.000 NA
ATOM     23  C   UNL     1      46.459   3.760   6.913  0.00  0.00    +0.000 A 
ATOM     24  C   UNL     1      46.931   2.512   6.589  0.00  0.00    +0.000 A 
ATOM     25  C   UNL     1      46.677   1.526   7.513  0.00  0.00    +0.000 A 
ATOM     26  N   UNL     1      46.018   1.738   8.667  0.00  0.00    +0.000 NA
ENDBRANCH  17  21
ENDBRANCH  14  15
ENDBRANCH   1  14
TORSDOF 5
ENDMDL
MODEL 6
REMARK VINA RESULT:    -6.601      4.041      8.397
REMARK INTER + INTRA:          -9.170
REMARK INTER:                  -8.632
REMARK INTRA:                  -0.538
REMARK UNBOUND:                -0.640
REMARK  Name = 
REMARK  5 active torsions:
REMARK  status: ('A' for Active; 'I' for Inactive)
REMARK    1  A    between atoms: C_2  and  C_4
REMARK    2  A    between atoms: C_7  and  N_8
REMARK    3  A    between atoms: N_8  and  C_9
REMARK    4  A    between atoms: C_9  and  C_10
REMARK    5  A    between atoms: C_12  and  C_13
REMARK                            x       y       z     vdW  Elec       q    Type
REMARK                         _______ _______ _______ _____ _____    ______ ____
ROOT
ATOM      1  N   UNL     1      49.452   4.654  17.353  0.00  0.00    +0.000 N 
ATOM      2  H   UNL     1      49.830   5.482  16.899  0.00  0.00    +0.000 HD
ENDROOT
BRANCH   1   6
ATOM      3  C   UNL     1      52.382   1.636  17.758  0.00  0.00    +0.000 A 
ATOM      4  C   UNL     1      52.704   2.957  18.070  0.00  0.00    +0.000 A 
ATOM      5  C   UNL     1      51.737   3.958  17.957  0.00  0.00    +0.000 A 
ATOM      6  C   UNL     1      50.427   3.669  17.556  0.00  0.00    +0.000 A 
ATOM      7  C   UNL     1      50.125   2.342  17.226  0.00  0.00    +0.000 A 
ATOM      8  C   UNL     1      51.092   1.330  17.318  0.00  0.00    +0.000 A 
BRANCH   3  10
ATOM      9  N   UNL     1      53.761  -0.045  16.668  0.00  0.00    +0.000 N 
ATOM     10  C   UNL     1      53.401   0.558  17.843  0.00  0.00    +0.000 C 
ATOM     11  O   UNL     1      53.917   0.236  18.904  0.00  0.00    +0.000 OA
ATOM     12  H   UNL     1      54.512  -0.721  16.716  0.00  0.00    +0.000 HD
ATOM     13  H   UNL     1      53.542   0.352  15.764  0.00  0.00    +0.000 HD
ENDBRANCH   3  10
ENDBRANCH   1   6
BRANCH   1  14
ATOM     14  C   UNL     1      48.144   4.256  16.832  0.00  0.00    +0.000 C 
BRANCH  14  15
ATOM     15  C   UNL     1      47.784   4.972  15.547  0.00  0.00    +0.000 A 
ATOM     16  C   UNL     1      46.791   4.461  14.714  0.00  0.00    +0.000 A 
ATOM     17  C   UNL     1      46.527   5.069  13.477  0.00  0.00    +0.000 A 
ATOM     18  C   UNL     1      47.304   6.186  13.139  0.00  0.00    +0.000 A 
ATOM     19  C   UNL     1      48.270   6.636  14.023  0.00  0.00    +0.000 A 
ATOM     20  N   UNL     1      48.524   6.057  15.213  0.00  0.00    +0.000 NA
BRANCH  17  21
ATOM     21  C   UNL     1      45.489   4.545  12.571  0.00  0.00    +0.000 A 
ATOM     22  N   UNL     1      45.369   5.120  11.356  0.00  0.00    +0.000 NA
ATOM     23  C   UNL     1      44.420   4.623  10.544  0.00  0.00    +0.000 A 
ATOM     24  C   UNL     1      43.591   3.586  10.892  0.00  0.00    +0.000 A 
ATOM     25  C   UNL     1      43.788   3.069  12.151  0.00  0.00    +0.000 A 
ATOM     26  N   UNL     1      44.723   3.524  13.005  0.00  0.00    +0.000 NA
ENDBRANCH  17  21
ENDBRANCH  14  15
ENDBRANCH   1  14
TORSDOF 5
ENDMDL
MODEL 7
REMARK VINA RESULT:    -6.561      3.523      7.204
REMARK INTER + INTRA:          -9.119
REMARK INTER:                  -8.459
REMARK INTRA:                  -0.659
REMARK UNBOUND:                -0.640
REMARK  Name = 
REMARK  5 active torsions:
REMARK  status: ('A' for Active; 'I' for Inactive)
REMARK    1  A    between atoms: C_2  and  C_4
REMARK    2  A    between atoms: C_7  and  N_8
REMARK    3  A    between atoms: N_8  and  C_9
REMARK    4  A    between atoms: C_9  and  C_10
REMARK    5  A    between atoms: C_12  and  C_13
REMARK                            x       y       z     vdW  Elec       q    Type
REMARK                         _______ _______ _______ _____ _____    ______ ____
ROOT
ATOM      1  N   UNL     1      46.651   7.046  13.248  0.00  0.00    +0.000 N 
ATOM      2  H   UNL     1      46.630   6.991  14.264  0.00  0.00    +0.000 HD
ENDROOT
BRANCH   1   6
ATOM      3  C   UNL     1      50.081   8.948  11.673  0.00  0.00    +0.000 A 
ATOM      4  C   UNL     1      48.883   9.655  11.770  0.00  0.00    +0.000 A 
ATOM      5  C   UNL     1      47.749   9.041  12.307  0.00  0.00    +0.000 A 
ATOM      6  C   UNL     1      47.784   7.723  12.778  0.00  0.00    +0.000 A 
ATOM      7  C   UNL     1      48.988   7.019  12.654  0.00  0.00    +0.000 A 
ATOM      8  C   UNL     1      50.130   7.619  12.102  0.00  0.00    +0.000 A 
BRANCH   3  10
ATOM      9  N   UNL     1      51.759  10.708  11.681  0.00  0.00    +0.000 N 
ATOM     10  C   UNL     1      51.292   9.570  11.080  0.00  0.00    +0.000 C 
ATOM     11  O   UNL     1      51.865   9.083  10.115  0.00  0.00    +0.000 OA
ATOM     12  H   UNL     1      52.629  11.085  11.326  0.00  0.00    +0.000 HD
ATOM     13  H   UNL     1      51.463  10.995  12.603  0.00  0.00    +0.000 HD
ENDBRANCH   3  10
ENDBRANCH   1   6
BRANCH   1  14
ATOM     14  C   UNL     1      45.349   7.355  12.658  0.00  0.00    +0.000 C 
BRANCH  14  15
ATOM     15  C   UNL     1      44.698   6.149  12.014  0.00  0.00    +0.000 A 
ATOM     16  C   UNL     1      45.351   5.460  10.993  0.00  0.00    +0.000 A 
ATOM     17  C   UNL     1      44.705   4.405  10.330  0.00  0.00    +0.000 A 
ATOM     18  C   UNL     1      43.401   4.098  10.742  0.00  0.00    +0.000 A 
ATOM     19  C   UNL     1      42.823   4.826  11.768  0.00  0.00    +0.000 A 
ATOM     20  N   UNL     1      43.440   5.838  12.409  0.00  0.00    +0.000 NA
BRANCH  17  21
ATOM     21  C   UNL     1      45.367   3.666   9.240  0.00  0.00    +0.000 A 
ATOM     22  N   UNL     1      45.373   2.318   9.311  0.00  0.00    +0.000 NA
ATOM     23  C   UNL     1      45.978   1.663   8.304  0.00  0.00    +0.000 A 
ATOM     24  C   UNL     1      46.573   2.292   7.240  0.00  0.00    +0.000 A 
ATOM     25  C   UNL     1      46.518   3.667   7.260  0.00  0.00    +0.000 A 
ATOM     26  N   UNL     1      45.925   4.375   8.239  0.00  0.00    +0.000 NA
ENDBRANCH  17  21
ENDBRANCH  14  15
ENDBRANCH   1  14
TORSDOF 5
ENDMDL
MODEL 8
REMARK VINA RESULT:    -6.184      3.747      7.802
REMARK INTER + INTRA:          -8.631
REMARK INTER:                  -8.066
REMARK INTRA:                  -0.565
REMARK UNBOUND:                -0.640
REMARK  Name = 
REMARK  5 active torsions:
REMARK  status: ('A' for Active; 'I' for Inactive)
REMARK    1  A    between atoms: C_2  and  C_4
REMARK    2  A    between atoms: C_7  and  N_8
REMARK    3  A    between atoms: N_8  and  C_9
REMARK    4  A    between atoms: C_9  and  C_10
REMARK    5  A    between atoms: C_12  and  C_13
REMARK                            x       y       z     vdW  Elec       q    Type
REMARK                         _______ _______ _______ _____ _____    ______ ____
ROOT
ATOM      1  N   UNL     1      47.017   7.573  12.033  0.00  0.00    +0.000 N 
ATOM      2  H   UNL     1      47.239   6.952  11.258  0.00  0.00    +0.000 HD
ENDROOT
BRANCH   1   6
ATOM      3  C   UNL     1      50.313   7.830  14.665  0.00  0.00    +0.000 A 
ATOM      4  C   UNL     1      50.283   8.622  13.517  0.00  0.00    +0.000 A 
ATOM      5  C   UNL     1      49.189   8.558  12.651  0.00  0.00    +0.000 A 
ATOM      6  C   UNL     1      48.094   7.726  12.915  0.00  0.00    +0.000 A 
ATOM      7  C   UNL     1      48.149   6.922  14.060  0.00  0.00    +0.000 A 
ATOM      8  C   UNL     1      49.249   6.964  14.929  0.00  0.00    +0.000 A 
BRANCH   3  10
ATOM      9  N   UNL     1      52.524   7.029  15.286  0.00  0.00    +0.000 N 
ATOM     10  C   UNL     1      51.479   7.860  15.586  0.00  0.00    +0.000 C 
ATOM     11  O   UNL     1      51.520   8.605  16.555  0.00  0.00    +0.000 OA
ATOM     12  H   UNL     1      53.349   7.109  15.866  0.00  0.00    +0.000 HD
ATOM     13  H   UNL     1      52.626   6.590  14.381  0.00  0.00    +0.000 HD
ENDBRANCH   3  10
ENDBRANCH   1   6
BRANCH   1  14
ATOM     14  C   UNL     1      45.679   7.353  12.583  0.00  0.00    +0.000 C 
BRANCH  14  15
ATOM     15  C   UNL     1      44.941   6.226  11.892  0.00  0.00    +0.000 A 
ATOM     16  C   UNL     1      45.563   5.495  10.882  0.00  0.00    +0.000 A 
ATOM     17  C   UNL     1      44.845   4.517  10.175  0.00  0.00    +0.000 A 
ATOM     18  C   UNL     1      43.503   4.330  10.535  0.00  0.00    +0.000 A 
ATOM     19  C   UNL     1      42.959   5.092  11.555  0.00  0.00    +0.000 A 
ATOM     20  N   UNL     1      43.645   6.030  12.237  0.00  0.00    +0.000 NA
BRANCH  17  21
ATOM     21  C   UNL     1      45.473   3.735   9.095  0.00  0.00    +0.000 A 
ATOM     22  N   UNL     1      46.030   4.416   8.071  0.00  0.00    +0.000 NA
ATOM     23  C   UNL     1      46.602   3.684   7.100  0.00  0.00    +0.000 A 
ATOM     24  C   UNL     1      46.639   2.311   7.107  0.00  0.00    +0.000 A 
ATOM     25  C   UNL     1      46.043   1.710   8.190  0.00  0.00    +0.000 A 
ATOM     26  N   UNL     1      45.457   2.391   9.192  0.00  0.00    +0.000 NA
ENDBRANCH  17  21
ENDBRANCH  14  15
ENDBRANCH   1  14
TORSDOF 5
ENDMDL
MODEL 9
REMARK VINA RESULT:    -6.125      2.553      4.062
REMARK INTER + INTRA:          -8.554
REMARK INTER:                  -7.877
REMARK INTRA:                  -0.677
REMARK UNBOUND:                -0.640
REMARK  Name = 
REMARK  5 active torsions:
REMARK  status: ('A' for Active; 'I' for Inactive)
REMARK    1  A    between atoms: C_2  and  C_4
REMARK    2  A    between atoms: C_7  and  N_8
REMARK    3  A    between atoms: N_8  and  C_9
REMARK    4  A    between atoms: C_9  and  C_10
REMARK    5  A    between atoms: C_12  and  C_13
REMARK                            x       y       z     vdW  Elec       q    Type
REMARK                         _______ _______ _______ _____ _____    ______ ____
ROOT
ATOM      1  N   UNL     1      46.029   7.852  13.266  0.00  0.00    +0.000 N 
ATOM      2  H   UNL     1      45.868   7.661  14.253  0.00  0.00    +0.000 HD
ENDROOT
BRANCH   1   6
ATOM      3  C   UNL     1      44.601   4.753  10.772  0.00  0.00    +0.000 A 
ATOM      4  C   UNL     1      44.019   4.955  12.023  0.00  0.00    +0.000 A 
ATOM      5  C   UNL     1      44.472   5.989  12.847  0.00  0.00    +0.000 A 
ATOM      6  C   UNL     1      45.493   6.856  12.439  0.00  0.00    +0.000 A 
ATOM      7  C   UNL     1      46.081   6.627  11.190  0.00  0.00    +0.000 A 
ATOM      8  C   UNL     1      45.648   5.582  10.360  0.00  0.00    +0.000 A 
BRANCH   3  10
ATOM      9  N   UNL     1      44.194   3.873   8.541  0.00  0.00    +0.000 N 
ATOM     10  C   UNL     1      44.157   3.643   9.890  0.00  0.00    +0.000 C 
ATOM     11  O   UNL     1      43.795   2.564  10.339  0.00  0.00    +0.000 OA
ATOM     12  H   UNL     1      43.969   3.090   7.941  0.00  0.00    +0.000 HD
ATOM     13  H   UNL     1      44.706   4.645   8.136  0.00  0.00    +0.000 HD
ENDBRANCH   3  10
ENDBRANCH   1   6
BRANCH   1  14
ATOM     14  C   UNL     1      47.375   8.352  12.987  0.00  0.00    +0.000 C 
BRANCH  14  15
ATOM     15  C   UNL     1      48.408   7.827  13.962  0.00  0.00    +0.000 A 
ATOM     16  C   UNL     1      48.135   6.699  14.733  0.00  0.00    +0.000 A 
ATOM     17  C   UNL     1      49.053   6.272  15.706  0.00  0.00    +0.000 A 
ATOM     18  C   UNL     1      50.223   7.030  15.852  0.00  0.00    +0.000 A 
ATOM     19  C   UNL     1      50.423   8.135  15.043  0.00  0.00    +0.000 A 
ATOM     20  N   UNL     1      49.546   8.547  14.107  0.00  0.00    +0.000 NA
BRANCH  17  21
ATOM     21  C   UNL     1      48.787   5.088  16.543  0.00  0.00    +0.000 A 
ATOM     22  N   UNL     1      49.847   4.452  17.083  0.00  0.00    +0.000 NA
ATOM     23  C   UNL     1      49.582   3.378  17.847  0.00  0.00    +0.000 A 
ATOM     24  C   UNL     1      48.313   2.916  18.091  0.00  0.00    +0.000 A 
ATOM     25  C   UNL     1      47.300   3.629  17.494  0.00  0.00    +0.000 A 
ATOM     26  N   UNL     1      47.505   4.712  16.721  0.00  0.00    +0.000 NA
ENDBRANCH  17  21
ENDBRANCH  14  15
ENDBRANCH   1  14
TORSDOF 5
ENDMDL
