MODEL 1
REMARK VINA RESULT:    -7.618      0.000      0.000
REMARK INTER + INTRA:         -10.751
REMARK INTER:                 -10.067
REMARK INTRA:                  -0.684
REMARK UNBOUND:                -0.684
REMARK  Name = 
REMARK  9 active torsions:
REMARK  status: ('A' for Active; 'I' for Inactive)
REMARK    1  A    between atoms: C_1  and  C_2
REMARK    2  A    between atoms: C_2  and  C_3
REMARK    3  A    between atoms: C_2  and  C_4
REMARK    4  A    between atoms: C_2  and  C_5
REMARK    5  A    between atoms: N_7  and  C_8
REMARK    6  A    between atoms: C_8  and  C_9
REMARK    7  A    between atoms: C_12  and  C_13
REMARK    8  A    between atoms: C_13  and  C_14
REMARK    9  A    between atoms: C_14  and  N_15
REMARK                            x       y       z     vdW  Elec       q    Type
REMARK                         _______ _______ _______ _____ _____    ______ ____
ROOT
ATOM      1  C   UNL     1      46.049   7.211  12.159  0.00  0.00    +0.000 A 
ATOM      2  C   UNL     1      44.999   6.924  11.299  0.00  0.00    +0.000 A 
ATOM      3  N   UNL     1      44.756   5.573  11.311  0.00  0.00    +0.000 N 
ATOM      4  C   UNL     1      45.555   4.964  12.252  0.00  0.00    +0.000 A 
ATOM      5  C   UNL     1      45.631   3.621  12.664  0.00  0.00    +0.000 A 
ATOM      6  C   UNL     1      46.573   3.273  13.633  0.00  0.00    +0.000 A 
ATOM      7  C   UNL     1      47.418   4.228  14.174  0.00  0.00    +0.000 A 
ATOM      8  C   UNL     1      47.333   5.561  13.760  0.00  0.00    +0.000 A 
ATOM      9  C   UNL     1      46.389   5.955  12.786  0.00  0.00    +0.000 A 
ENDROOT
BRANCH   1  11
ATOM     10  C   UNL     1      46.890   8.888  13.878  0.00  0.00    +0.000 C 
ATOM     11  C   UNL     1      46.698   8.585  12.370  0.00  0.00    +0.000 C 
ATOM     12  C   UNL     1      45.816   9.707  11.786  0.00  0.00    +0.000 C 
ATOM     13  C   UNL     1      48.091   8.657  11.714  0.00  0.00    +0.000 C 
ENDBRANCH   1  11
BRANCH   3  14
ATOM     14  C   UNL     1      43.800   4.907  10.427  0.00  0.00    +0.000 C 
BRANCH  14  15
ATOM     15  C   UNL     1      44.511   3.958   9.500  0.00  0.00    +0.000 A 
ATOM     16  C   UNL     1      44.333   2.576   9.582  0.00  0.00    +0.000 A 
ATOM     17  C   UNL     1      45.134   1.724   8.821  0.00  0.00    +0.000 A 
ATOM     18  C   UNL     1      46.090   2.278   7.975  0.00  0.00    +0.000 A 
ATOM     19  N   UNL     1      46.233   3.615   7.828  0.00  0.00    +0.000 NA
ATOM     20  C   UNL     1      45.451   4.421   8.585  0.00  0.00    +0.000 A 
BRANCH  18  21
ATOM     21  C   UNL     1      47.067   1.397   7.237  0.00  0.00    +0.000 C 
BRANCH  21  22
ATOM     22  C   UNL     1      48.238   2.215   6.682  0.00  0.00    +0.000 C 
BRANCH  22  23
ATOM     23  N   UNL     1      48.399   2.016   5.237  0.00  0.00    +0.000 NA
ATOM     24  H   UNL     1      49.384   2.090   4.984  0.00  0.00    +0.000 HD
ATOM     25  H   UNL     1      47.917   2.767   4.742  0.00  0.00    +0.000 HD
ENDBRANCH  22  23
ENDBRANCH  21  22
ENDBRANCH  18  21
ENDBRANCH  14  15
ENDBRANCH   3  14
TORSDOF 6
ENDMDL
MODEL 2
REMARK VINA RESULT:    -6.991      1.387      3.140
REMARK INTER + INTRA:          -9.923
REMARK INTER:                  -9.475
REMARK INTRA:                  -0.449
REMARK UNBOUND:                -0.684
REMARK  Name = 
REMARK  9 active torsions:
REMARK  status: ('A' for Active; 'I' for Inactive)
REMARK    1  A    between atoms: C_1  and  C_2
REMARK    2  A    between atoms: C_2  and  C_3
REMARK    3  A    between atoms: C_2  and  C_4
REMARK    4  A    between atoms: C_2  and  C_5
REMARK    5  A    between atoms: N_7  and  C_8
REMARK    6  A    between atoms: C_8  and  C_9
REMARK    7  A    between atoms: C_12  and  C_13
REMARK    8  A    between atoms: C_13  and  C_14
REMARK    9  A    between atoms: C_14  and  N_15
REMARK                            x       y       z     vdW  Elec       q    Type
REMARK                         _______ _______ _______ _____ _____    ______ ____
ROOT
ATOM      1  C   UNL     1      46.862   7.631  12.442  0.00  0.00    +0.000 A 
ATOM      2  C   UNL     1      46.541   6.302  12.209  0.00  0.00    +0.000 A 
ATOM      3  N   UNL     1      45.256   6.219  11.734  0.00  0.00    +0.000 N 
ATOM      4  C   UNL     1      44.748   7.484  11.540  0.00  0.00    +0.000 A 
ATOM      5  C   UNL     1      43.509   7.909  11.026  0.00  0.00    +0.000 A 
ATOM      6  C   UNL     1      43.245   9.279  10.972  0.00  0.00    +0.000 A 
ATOM      7  C   UNL     1      44.180  10.199  11.417  0.00  0.00    +0.000 A 
ATOM      8  C   UNL     1      45.409   9.766  11.924  0.00  0.00    +0.000 A 
ATOM      9  C   UNL     1      45.718   8.389  11.990  0.00  0.00    +0.000 A 
ENDROOT
BRANCH   1  11
ATOM     10  C   UNL     1      48.868   9.162  12.117  0.00  0.00    +0.000 C 
ATOM     11  C   UNL     1      48.164   8.154  13.061  0.00  0.00    +0.000 C 
ATOM     12  C   UNL     1      49.155   7.001  13.318  0.00  0.00    +0.000 C 
ATOM     13  C   UNL     1      47.901   8.888  14.391  0.00  0.00    +0.000 C 
ENDBRANCH   1  11
BRANCH   3  14
ATOM     14  C   UNL     1      44.550   4.959  11.502  0.00  0.00    +0.000 C 
BRANCH  14  15
ATOM     15  C   UNL     1      44.890   4.405  10.146  0.00  0.00    +0.000 A 
ATOM     16  C   UNL     1      44.604   3.084   9.796  0.00  0.00    +0.000 A 
ATOM     17  C   UNL     1      45.084   2.562   8.595  0.00  0.00    +0.000 A 
ATOM     18  C   UNL     1      45.831   3.383   7.756  0.00  0.00    +0.000 A 
ATOM     19  N   UNL     1      46.062   4.684   8.041  0.00  0.00    +0.000 NA
ATOM     20  C   UNL     1      45.594   5.165   9.218  0.00  0.00    +0.000 A 
BRANCH  18  21
ATOM     21  C   UNL     1      46.484   2.825   6.516  0.00  0.00    +0.000 C 
BRANCH  21  22
ATOM     22  C   UNL     1      47.770   2.067   6.861  0.00  0.00    +0.000 C 
BRANCH  22  23
ATOM     23  N   UNL     1      48.573   1.792   5.664  0.00  0.00    +0.000 NA
ATOM     24  H   UNL     1      48.233   2.350   4.881  0.00  0.00    +0.000 HD
ATOM     25  H   UNL     1      48.449   0.815   5.397  0.00  0.00    +0.000 HD
ENDBRANCH  22  23
ENDBRANCH  21  22
ENDBRANCH  18  21
ENDBRANCH  14  15
ENDBRANCH   3  14
TORSDOF 6
ENDMDL
MODEL 3
REMARK VINA RESULT:    -6.067      4.160      7.036
REMARK INTER + INTRA:          -8.702
REMARK INTER:                  -8.028
REMARK INTRA:                  -0.674
REMARK UNBOUND:                -0.684
REMARK  Name = 
REMARK  9 active torsions:
REMARK  status: ('A' for Active; 'I' for Inactive)
REMARK    1  A    between atoms: C_1  and  C_2
REMARK    2  A    between atoms: C_2  and  C_3
REMARK    3  A    between atoms: C_2  and  C_4
REMARK    4  A    between atoms: C_2  and  C_5
REMARK    5  A    between atoms: N_7  and  C_8
REMARK    6  A    between atoms: C_8  and  C_9
REMARK    7  A    between atoms: C_12  and  C_13
REMARK    8  A    between atoms: C_13  and  C_14
REMARK    9  A    between atoms: C_14  and  N_15
REMARK                            x       y       z     vdW  Elec       q    Type
REMARK                         _______ _______ _______ _____ _____    ______ ____
ROOT
ATOM      1  C   UNL     1      48.022   6.620  13.581  0.00  0.00    +0.000 A 
ATOM      2  C   UNL     1      48.118   5.900  14.762  0.00  0.00    +0.000 A 
ATOM      3  N   UNL     1      47.145   4.933  14.788  0.00  0.00    +0.000 N 
ATOM      4  C   UNL     1      46.467   4.921  13.590  0.00  0.00    +0.000 A 
ATOM      5  C   UNL     1      45.434   4.087  13.125  0.00  0.00    +0.000 A 
ATOM      6  C   UNL     1      44.902   4.328  11.857  0.00  0.00    +0.000 A 
ATOM      7  C   UNL     1      45.378   5.368  11.074  0.00  0.00    +0.000 A 
ATOM      8  C   UNL     1      46.407   6.190  11.545  0.00  0.00    +0.000 A 
ATOM      9  C   UNL     1      46.977   5.976  12.820  0.00  0.00    +0.000 A 
ENDROOT
BRANCH   1  11
ATOM     10  C   UNL     1      49.919   8.165  14.280  0.00  0.00    +0.000 C 
ATOM     11  C   UNL     1      48.859   7.847  13.195  0.00  0.00    +0.000 C 
ATOM     12  C   UNL     1      47.967   9.097  13.047  0.00  0.00    +0.000 C 
ATOM     13  C   UNL     1      49.618   7.619  11.873  0.00  0.00    +0.000 C 
ENDBRANCH   1  11
BRANCH   3  14
ATOM     14  C   UNL     1      46.876   4.074  15.941  0.00  0.00    +0.000 C 
BRANCH  14  15
ATOM     15  C   UNL     1      48.164   3.617  16.571  0.00  0.00    +0.000 A 
ATOM     16  C   UNL     1      48.856   4.408  17.489  0.00  0.00    +0.000 A 
ATOM     17  C   UNL     1      50.126   4.024  17.921  0.00  0.00    +0.000 A 
ATOM     18  C   UNL     1      50.671   2.840  17.436  0.00  0.00    +0.000 A 
ATOM     19  N   UNL     1      49.991   2.023  16.600  0.00  0.00    +0.000 NA
ATOM     20  C   UNL     1      48.764   2.423  16.187  0.00  0.00    +0.000 A 
BRANCH  18  21
ATOM     21  C   UNL     1      52.091   2.453  17.769  0.00  0.00    +0.000 C 
BRANCH  21  22
ATOM     22  C   UNL     1      52.356   0.981  17.435  0.00  0.00    +0.000 C 
BRANCH  22  23
ATOM     23  N   UNL     1      51.504   0.086  18.226  0.00  0.00    +0.000 NA
ATOM     24  H   UNL     1      50.860  -0.413  17.613  0.00  0.00    +0.000 HD
ATOM     25  H   UNL     1      50.928   0.645  18.856  0.00  0.00    +0.000 HD
ENDBRANCH  22  23
ENDBRANCH  21  22
ENDBRANCH  18  21
ENDBRANCH  14  15
ENDBRANCH   3  14
TORSDOF 6
ENDMDL
MODEL 4
REMARK VINA RESULT:    -6.024      1.654      3.575
REMARK INTER + INTRA:          -8.644
REMARK INTER:                  -7.921
REMARK INTRA:                  -0.723
REMARK UNBOUND:                -0.684
REMARK  Name = 
REMARK  9 active torsions:
REMARK  status: ('A' for Active; 'I' for Inactive)
REMARK    1  A    between atoms: C_1  and  C_2
REMARK    2  A    between atoms: C_2  and  C_3
REMARK    3  A    between atoms: C_2  and  C_4
REMARK    4  A    between atoms: C_2  and  C_5
REMARK    5  A    between atoms: N_7  and  C_8
REMARK    6  A    between atoms: C_8  and  C_9
REMARK    7  A    between atoms: C_12  and  C_13
REMARK    8  A    between atoms: C_13  and  C_14
REMARK    9  A    between atoms: C_14  and  N_15
REMARK                            x       y       z     vdW  Elec       q    Type
REMARK                         _______ _______ _______ _____ _____    ______ ____
ROOT
ATOM      1  C   UNL     1      47.287   7.749  13.409  0.00  0.00    +0.000 A 
ATOM      2  C   UNL     1      46.638   6.550  13.159  0.00  0.00    +0.000 A 
ATOM      3  N   UNL     1      45.532   6.783  12.382  0.00  0.00    +0.000 N 
ATOM      4  C   UNL     1      45.491   8.109  12.014  0.00  0.00    +0.000 A 
ATOM      5  C   UNL     1      44.591   8.808  11.189  0.00  0.00    +0.000 A 
ATOM      6  C   UNL     1      44.776  10.180  11.013  0.00  0.00    +0.000 A 
ATOM      7  C   UNL     1      45.820  10.841  11.640  0.00  0.00    +0.000 A 
ATOM      8  C   UNL     1      46.711  10.136  12.456  0.00  0.00    +0.000 A 
ATOM      9  C   UNL     1      46.562   8.746  12.655  0.00  0.00    +0.000 A 
ENDROOT
BRANCH   1  11
ATOM     10  C   UNL     1      48.271   9.081  15.341  0.00  0.00    +0.000 C 
ATOM     11  C   UNL     1      48.511   7.947  14.313  0.00  0.00    +0.000 C 
ATOM     12  C   UNL     1      49.751   8.338  13.482  0.00  0.00    +0.000 C 
ATOM     13  C   UNL     1      48.833   6.670  15.114  0.00  0.00    +0.000 C 
ENDBRANCH   1  11
BRANCH   3  14
ATOM     14  C   UNL     1      44.547   5.759  12.032  0.00  0.00    +0.000 C 
BRANCH  14  15
ATOM     15  C   UNL     1      45.030   4.936  10.869  0.00  0.00    +0.000 A 
ATOM     16  C   UNL     1      45.669   5.515   9.772  0.00  0.00    +0.000 A 
ATOM     17  C   UNL     1      45.951   4.744   8.644  0.00  0.00    +0.000 A 
ATOM     18  C   UNL     1      45.600   3.397   8.645  0.00  0.00    +0.000 A 
ATOM     19  N   UNL     1      45.044   2.799   9.723  0.00  0.00    +0.000 NA
ATOM     20  C   UNL     1      44.771   3.571  10.802  0.00  0.00    +0.000 A 
BRANCH  18  21
ATOM     21  C   UNL     1      45.761   2.559   7.401  0.00  0.00    +0.000 C 
BRANCH  21  22
ATOM     22  C   UNL     1      46.657   1.344   7.665  0.00  0.00    +0.000 C 
BRANCH  22  23
ATOM     23  N   UNL     1      47.926   1.440   6.936  0.00  0.00    +0.000 NA
ATOM     24  H   UNL     1      48.557   0.697   7.235  0.00  0.00    +0.000 HD
ATOM     25  H   UNL     1      48.384   2.320   7.176  0.00  0.00    +0.000 HD
ENDBRANCH  22  23
ENDBRANCH  21  22
ENDBRANCH  18  21
ENDBRANCH  14  15
ENDBRANCH   3  14
TORSDOF 6
ENDMDL
MODEL 5
REMARK VINA RESULT:    -5.929      2.427      6.639
REMARK INTER + INTRA:          -8.519
REMARK INTER:                  -7.850
REMARK INTRA:                  -0.669
REMARK UNBOUND:                -0.684
REMARK  Name = 
REMARK  9 active torsions:
REMARK  status: ('A' for Active; 'I' for Inactive)
REMARK    1  A    between atoms: C_1  and  C_2
REMARK    2  A    between atoms: C_2  and  C_3
REMARK    3  A    between atoms: C_2  and  C_4
REMARK    4  A    between atoms: C_2  and  C_5
REMARK    5  A    between atoms: N_7  and  C_8
REMARK    6  A    between atoms: C_8  and  C_9
REMARK    7  A    between atoms: C_12  and  C_13
REMARK    8  A    between atoms: C_13  and  C_14
REMARK    9  A    between atoms: C_14  and  N_15
REMARK                            x       y       z     vdW  Elec       q    Type
REMARK                         _______ _______ _______ _____ _____    ______ ____
ROOT
ATOM      1  C   UNL     1      45.432   4.242   9.401  0.00  0.00    +0.000 A 
ATOM      2  C   UNL     1      45.927   5.515   9.643  0.00  0.00    +0.000 A 
ATOM      3  N   UNL     1      45.449   5.969  10.846  0.00  0.00    +0.000 N 
ATOM      4  C   UNL     1      44.727   4.975  11.467  0.00  0.00    +0.000 A 
ATOM      5  C   UNL     1      44.094   4.946  12.723  0.00  0.00    +0.000 A 
ATOM      6  C   UNL     1      43.393   3.795  13.089  0.00  0.00    +0.000 A 
ATOM      7  C   UNL     1      43.321   2.707  12.234  0.00  0.00    +0.000 A 
ATOM      8  C   UNL     1      43.956   2.746  10.989  0.00  0.00    +0.000 A 
ATOM      9  C   UNL     1      44.680   3.889  10.583  0.00  0.00    +0.000 A 
ENDROOT
BRANCH   1  11
ATOM     10  C   UNL     1      46.046   1.955   8.471  0.00  0.00    +0.000 C 
ATOM     11  C   UNL     1      45.646   3.412   8.129  0.00  0.00    +0.000 C 
ATOM     12  C   UNL     1      46.778   4.007   7.267  0.00  0.00    +0.000 C 
ATOM     13  C   UNL     1      44.361   3.341   7.279  0.00  0.00    +0.000 C 
ENDBRANCH   1  11
BRANCH   3  14
ATOM     14  C   UNL     1      45.669   7.323  11.354  0.00  0.00    +0.000 C 
BRANCH  14  15
ATOM     15  C   UNL     1      46.689   7.312  12.461  0.00  0.00    +0.000 A 
ATOM     16  C   UNL     1      46.823   8.381  13.349  0.00  0.00    +0.000 A 
ATOM     17  C   UNL     1      47.886   8.406  14.252  0.00  0.00    +0.000 A 
ATOM     18  C   UNL     1      48.788   7.346  14.259  0.00  0.00    +0.000 A 
ATOM     19  N   UNL     1      48.638   6.268  13.455  0.00  0.00    +0.000 NA
ATOM     20  C   UNL     1      47.604   6.272  12.581  0.00  0.00    +0.000 A 
BRANCH  18  21
ATOM     21  C   UNL     1      50.025   7.393  15.121  0.00  0.00    +0.000 C 
BRANCH  21  22
ATOM     22  C   UNL     1      49.773   6.743  16.486  0.00  0.00    +0.000 C 
BRANCH  22  23
ATOM     23  N   UNL     1      49.280   5.369  16.347  0.00  0.00    +0.000 NA
ATOM     24  H   UNL     1      49.755   4.905  15.574  0.00  0.00    +0.000 HD
ATOM     25  H   UNL     1      48.289   5.394  16.103  0.00  0.00    +0.000 HD
ENDBRANCH  22  23
ENDBRANCH  21  22
ENDBRANCH  18  21
ENDBRANCH  14  15
ENDBRANCH   3  14
TORSDOF 6
ENDMDL
MODEL 6
REMARK VINA RESULT:    -5.594      3.726      6.766
REMARK INTER + INTRA:          -8.077
REMARK INTER:                  -7.246
REMARK INTRA:                  -0.831
REMARK UNBOUND:                -0.684
REMARK  Name = 
REMARK  9 active torsions:
REMARK  status: ('A' for Active; 'I' for Inactive)
REMARK    1  A    between atoms: C_1  and  C_2
REMARK    2  A    between atoms: C_2  and  C_3
REMARK    3  A    between atoms: C_2  and  C_4
REMARK    4  A    between atoms: C_2  and  C_5
REMARK    5  A    between atoms: N_7  and  C_8
REMARK    6  A    between atoms: C_8  and  C_9
REMARK    7  A    between atoms: C_12  and  C_13
REMARK    8  A    between atoms: C_13  and  C_14
REMARK    9  A    between atoms: C_14  and  N_15
REMARK                            x       y       z     vdW  Elec       q    Type
REMARK                         _______ _______ _______ _____ _____    ______ ____
ROOT
ATOM      1  C   UNL     1      48.654   6.338  17.528  0.00  0.00    +0.000 A 
ATOM      2  C   UNL     1      48.744   5.835  16.239  0.00  0.00    +0.000 A 
ATOM      3  N   UNL     1      48.685   6.871  15.340  0.00  0.00    +0.000 N 
ATOM      4  C   UNL     1      48.668   8.072  16.013  0.00  0.00    +0.000 A 
ATOM      5  C   UNL     1      48.663   9.395  15.534  0.00  0.00    +0.000 A 
ATOM      6  C   UNL     1      48.612  10.438  16.459  0.00  0.00    +0.000 A 
ATOM      7  C   UNL     1      48.563  10.178  17.819  0.00  0.00    +0.000 A 
ATOM      8  C   UNL     1      48.571   8.859  18.285  0.00  0.00    +0.000 A 
ATOM      9  C   UNL     1      48.629   7.775  17.382  0.00  0.00    +0.000 A 
ENDROOT
BRANCH   1  11
ATOM     10  C   UNL     1      49.827   5.772  19.714  0.00  0.00    +0.000 C 
ATOM     11  C   UNL     1      48.588   5.514  18.820  0.00  0.00    +0.000 C 
ATOM     12  C   UNL     1      48.554   4.004  18.509  0.00  0.00    +0.000 C 
ATOM     13  C   UNL     1      47.344   5.875  19.656  0.00  0.00    +0.000 C 
ENDBRANCH   1  11
BRANCH   3  14
ATOM     14  C   UNL     1      48.625   6.692  13.890  0.00  0.00    +0.000 C 
BRANCH  14  15
ATOM     15  C   UNL     1      47.285   6.146  13.479  0.00  0.00    +0.000 A 
ATOM     16  C   UNL     1      46.257   6.977  13.030  0.00  0.00    +0.000 A 
ATOM     17  C   UNL     1      44.981   6.454  12.820  0.00  0.00    +0.000 A 
ATOM     18  C   UNL     1      44.763   5.099  13.048  0.00  0.00    +0.000 A 
ATOM     19  N   UNL     1      45.759   4.262  13.418  0.00  0.00    +0.000 NA
ATOM     20  C   UNL     1      46.987   4.795  13.625  0.00  0.00    +0.000 A 
BRANCH  18  21
ATOM     21  C   UNL     1      43.374   4.518  12.966  0.00  0.00    +0.000 C 
BRANCH  21  22
ATOM     22  C   UNL     1      43.287   3.447  11.873  0.00  0.00    +0.000 C 
BRANCH  22  23
ATOM     23  N   UNL     1      43.523   2.103  12.413  0.00  0.00    +0.000 NA
ATOM     24  H   UNL     1      43.823   2.167  13.386  0.00  0.00    +0.000 HD
ATOM     25  H   UNL     1      44.293   1.670  11.903  0.00  0.00    +0.000 HD
ENDBRANCH  22  23
ENDBRANCH  21  22
ENDBRANCH  18  21
ENDBRANCH  14  15
ENDBRANCH   3  14
TORSDOF 6
ENDMDL
MODEL 7
REMARK VINA RESULT:    -5.568      3.473      7.837
REMARK INTER + INTRA:          -8.042
REMARK INTER:                  -7.183
REMARK INTRA:                  -0.859
REMARK UNBOUND:                -0.684
REMARK  Name = 
REMARK  9 active torsions:
REMARK  status: ('A' for Active; 'I' for Inactive)
REMARK    1  A    between atoms: C_1  and  C_2
REMARK    2  A    between atoms: C_2  and  C_3
REMARK    3  A    between atoms: C_2  and  C_4
REMARK    4  A    between atoms: C_2  and  C_5
REMARK    5  A    between atoms: N_7  and  C_8
REMARK    6  A    between atoms: C_8  and  C_9
REMARK    7  A    between atoms: C_12  and  C_13
REMARK    8  A    between atoms: C_13  and  C_14
REMARK    9  A    between atoms: C_14  and  N_15
REMARK                            x       y       z     vdW  Elec       q    Type
REMARK                         _______ _______ _______ _____ _____    ______ ____
ROOT
ATOM      1  C   UNL     1      45.029   5.599  12.122  0.00  0.00    +0.000 A 
ATOM      2  C   UNL     1      46.167   5.175  12.790  0.00  0.00    +0.000 A 
ATOM      3  N   UNL     1      46.990   6.249  13.018  0.00  0.00    +0.000 N 
ATOM      4  C   UNL     1      46.369   7.408  12.609  0.00  0.00    +0.000 A 
ATOM      5  C   UNL     1      46.785   8.750  12.682  0.00  0.00    +0.000 A 
ATOM      6  C   UNL     1      45.952   9.735  12.150  0.00  0.00    +0.000 A 
ATOM      7  C   UNL     1      44.744   9.400  11.560  0.00  0.00    +0.000 A 
ATOM      8  C   UNL     1      44.339   8.063  11.494  0.00  0.00    +0.000 A 
ATOM      9  C   UNL     1      45.150   7.036  12.026  0.00  0.00    +0.000 A 
ENDROOT
BRANCH   1  11
ATOM     10  C   UNL     1      43.950   4.586  10.052  0.00  0.00    +0.000 C 
ATOM     11  C   UNL     1      43.899   4.705  11.596  0.00  0.00    +0.000 C 
ATOM     12  C   UNL     1      42.519   5.287  11.964  0.00  0.00    +0.000 C 
ATOM     13  C   UNL     1      44.002   3.275  12.163  0.00  0.00    +0.000 C 
ENDBRANCH   1  11
BRANCH   3  14
ATOM     14  C   UNL     1      48.333   6.144  13.589  0.00  0.00    +0.000 C 
BRANCH  14  15
ATOM     15  C   UNL     1      48.274   6.199  15.091  0.00  0.00    +0.000 A 
ATOM     16  C   UNL     1      48.718   7.313  15.806  0.00  0.00    +0.000 A 
ATOM     17  C   UNL     1      48.802   7.259  17.198  0.00  0.00    +0.000 A 
ATOM     18  C   UNL     1      48.421   6.090  17.849  0.00  0.00    +0.000 A 
ATOM     19  N   UNL     1      47.923   5.024  17.183  0.00  0.00    +0.000 NA
ATOM     20  C   UNL     1      47.860   5.097  15.832  0.00  0.00    +0.000 A 
BRANCH  18  21
ATOM     21  C   UNL     1      48.622   5.938  19.336  0.00  0.00    +0.000 C 
BRANCH  21  22
ATOM     22  C   UNL     1      49.388   4.651  19.662  0.00  0.00    +0.000 C 
BRANCH  22  23
ATOM     23  N   UNL     1      48.477   3.535  19.937  0.00  0.00    +0.000 NA
ATOM     24  H   UNL     1      48.000   3.686  20.826  0.00  0.00    +0.000 HD
ATOM     25  H   UNL     1      49.022   2.679  20.045  0.00  0.00    +0.000 HD
ENDBRANCH  22  23
ENDBRANCH  21  22
ENDBRANCH  18  21
ENDBRANCH  14  15
ENDBRANCH   3  14
TORSDOF 6
ENDMDL
MODEL 8
REMARK VINA RESULT:    -5.437      3.858      6.349
REMARK INTER + INTRA:          -7.869
REMARK INTER:                  -6.956
REMARK INTRA:                  -0.913
REMARK UNBOUND:                -0.684
REMARK  Name = 
REMARK  9 active torsions:
REMARK  status: ('A' for Active; 'I' for Inactive)
REMARK    1  A    between atoms: C_1  and  C_2
REMARK    2  A    between atoms: C_2  and  C_3
REMARK    3  A    between atoms: C_2  and  C_4
REMARK    4  A    between atoms: C_2  and  C_5
REMARK    5  A    between atoms: N_7  and  C_8
REMARK    6  A    between atoms: C_8  and  C_9
REMARK    7  A    between atoms: C_12  and  C_13
REMARK    8  A    between atoms: C_13  and  C_14
REMARK    9  A    between atoms: C_14  and  N_15
REMARK                            x       y       z     vdW  Elec       q    Type
REMARK                         _______ _______ _______ _____ _____    ______ ____
ROOT
ATOM      1  C   UNL     1      48.424   8.297  17.668  0.00  0.00    +0.000 A 
ATOM      2  C   UNL     1      48.382   8.247  16.282  0.00  0.00    +0.000 A 
ATOM      3  N   UNL     1      48.618   6.961  15.865  0.00  0.00    +0.000 N 
ATOM      4  C   UNL     1      48.709   6.126  16.956  0.00  0.00    +0.000 A 
ATOM      5  C   UNL     1      48.889   4.733  17.036  0.00  0.00    +0.000 A 
ATOM      6  C   UNL     1      48.978   4.144  18.298  0.00  0.00    +0.000 A 
ATOM      7  C   UNL     1      48.894   4.914  19.447  0.00  0.00    +0.000 A 
ATOM      8  C   UNL     1      48.712   6.297  19.357  0.00  0.00    +0.000 A 
ATOM      9  C   UNL     1      48.611   6.931  18.099  0.00  0.00    +0.000 A 
ENDROOT
BRANCH   1  11
ATOM     10  C   UNL     1      47.114   9.450  19.520  0.00  0.00    +0.000 C 
ATOM     11  C   UNL     1      48.304   9.558  18.533  0.00  0.00    +0.000 C 
ATOM     12  C   UNL     1      48.061  10.805  17.659  0.00  0.00    +0.000 C 
ATOM     13  C   UNL     1      49.574   9.785  19.378  0.00  0.00    +0.000 C 
ENDBRANCH   1  11
BRANCH   3  14
ATOM     14  C   UNL     1      48.771   6.571  14.464  0.00  0.00    +0.000 C 
BRANCH  14  15
ATOM     15  C   UNL     1      47.450   6.138  13.889  0.00  0.00    +0.000 A 
ATOM     16  C   UNL     1      46.626   7.021  13.189  0.00  0.00    +0.000 A 
ATOM     17  C   UNL     1      45.339   6.628  12.819  0.00  0.00    +0.000 A 
ATOM     18  C   UNL     1      44.908   5.346  13.144  0.00  0.00    +0.000 A 
ATOM     19  N   UNL     1      45.713   4.451  13.760  0.00  0.00    +0.000 NA
ATOM     20  C   UNL     1      46.954   4.859  14.118  0.00  0.00    +0.000 A 
BRANCH  18  21
ATOM     21  C   UNL     1      43.484   4.924  12.885  0.00  0.00    +0.000 C 
BRANCH  21  22
ATOM     22  C   UNL     1      43.424   3.751  11.901  0.00  0.00    +0.000 C 
BRANCH  22  23
ATOM     23  N   UNL     1      43.756   2.480  12.554  0.00  0.00    +0.000 NA
ATOM     24  H   UNL     1      43.129   2.321  13.343  0.00  0.00    +0.000 HD
ATOM     25  H   UNL     1      44.698   2.541  12.942  0.00  0.00    +0.000 HD
ENDBRANCH  22  23
ENDBRANCH  21  22
ENDBRANCH  18  21
ENDBRANCH  14  15
ENDBRANCH   3  14
TORSDOF 6
ENDMDL
MODEL 9
REMARK VINA RESULT:    -5.292      3.938      7.230
REMARK INTER + INTRA:          -7.678
REMARK INTER:                  -6.994
REMARK INTRA:                  -0.684
REMARK UNBOUND:                -0.684
REMARK  Name = 
REMARK  9 active torsions:
REMARK  status: ('A' for Active; 'I' for Inactive)
REMARK    1  A    between atoms: C_1  and  C_2
REMARK    2  A    between atoms: C_2  and  C_3
REMARK    3  A    between atoms: C_2  and  C_4
REMARK    4  A    between atoms: C_2  and  C_5
REMARK    5  A    between atoms: N_7  and  C_8
REMARK    6  A    between atoms: C_8  and  C_9
REMARK    7  A    between atoms: C_12  and  C_13
REMARK    8  A    between atoms: C_13  and  C_14
REMARK    9  A    between atoms: C_14  and  N_15
REMARK                            x       y       z     vdW  Elec       q    Type
REMARK                         _______ _______ _______ _____ _____    ______ ____
ROOT
ATOM      1  C   UNL     1      48.696   5.443  17.406  0.00  0.00    +0.000 A 
ATOM      2  C   UNL     1      49.159   5.749  16.135  0.00  0.00    +0.000 A 
ATOM      3  N   UNL     1      48.973   7.086  15.890  0.00  0.00    +0.000 N 
ATOM      4  C   UNL     1      48.492   7.705  17.022  0.00  0.00    +0.000 A 
ATOM      5  C   UNL     1      48.198   9.057  17.277  0.00  0.00    +0.000 A 
ATOM      6  C   UNL     1      47.682   9.402  18.527  0.00  0.00    +0.000 A 
ATOM      7  C   UNL     1      47.461   8.435  19.494  0.00  0.00    +0.000 A 
ATOM      8  C   UNL     1      47.759   7.094  19.232  0.00  0.00    +0.000 A 
ATOM      9  C   UNL     1      48.288   6.704  17.982  0.00  0.00    +0.000 A 
ENDROOT
BRANCH   1  11
ATOM     10  C   UNL     1      49.789   3.149  17.531  0.00  0.00    +0.000 C 
ATOM     11  C   UNL     1      48.631   4.046  18.037  0.00  0.00    +0.000 C 
ATOM     12  C   UNL     1      47.311   3.338  17.673  0.00  0.00    +0.000 C 
ATOM     13  C   UNL     1      48.750   4.115  19.572  0.00  0.00    +0.000 C 
ENDBRANCH   1  11
BRANCH   3  14
ATOM     14  C   UNL     1      49.233   7.725  14.600  0.00  0.00    +0.000 C 
BRANCH  14  15
ATOM     15  C   UNL     1      48.030   7.614  13.704  0.00  0.00    +0.000 A 
ATOM     16  C   UNL     1      47.038   8.595  13.677  0.00  0.00    +0.000 A 
ATOM     17  C   UNL     1      45.861   8.377  12.960  0.00  0.00    +0.000 A 
ATOM     18  C   UNL     1      45.709   7.180  12.267  0.00  0.00    +0.000 A 
ATOM     19  N   UNL     1      46.685   6.245  12.222  0.00  0.00    +0.000 NA
ATOM     20  C   UNL     1      47.814   6.476  12.934  0.00  0.00    +0.000 A 
BRANCH  18  21
ATOM     21  C   UNL     1      44.403   6.843  11.591  0.00  0.00    +0.000 C 
BRANCH  21  22
ATOM     22  C   UNL     1      43.839   5.516  12.110  0.00  0.00    +0.000 C 
BRANCH  22  23
ATOM     23  N   UNL     1      42.962   5.717  13.268  0.00  0.00    +0.000 NA
ATOM     24  H   UNL     1      42.249   6.412  13.048  0.00  0.00    +0.000 HD
ATOM     25  H   UNL     1      43.510   6.100  14.039  0.00  0.00    +0.000 HD
ENDBRANCH  22  23
ENDBRANCH  21  22
ENDBRANCH  18  21
ENDBRANCH  14  15
ENDBRANCH   3  14
TORSDOF 6
ENDMDL
