MODEL 1
REMARK VINA RESULT:    -7.928      0.000      0.000
REMARK INTER + INTRA:         -12.097
REMARK INTER:                 -11.172
REMARK INTRA:                  -0.925
REMARK UNBOUND:                -0.925
REMARK  Name = 
REMARK  11 active torsions:
REMARK  status: ('A' for Active; 'I' for Inactive)
REMARK    1  A    between atoms: C_1  and  C_2
REMARK    2  A    between atoms: C_2  and  C_3
REMARK    3  A    between atoms: C_2  and  N_4
REMARK    4  A    between atoms: N_7  and  C_8
REMARK    5  A    between atoms: C_12  and  C_13
REMARK    6  A    between atoms: C_13  and  C_14
REMARK    7  A    between atoms: C_13  and  C_15
REMARK    8  A    between atoms: C_13  and  C_16
REMARK    9  A    between atoms: C_16  and  N_17
REMARK   10  A    between atoms: N_17  and  C_18
REMARK   11  A    between atoms: C_21  and  C_22
REMARK                            x       y       z     vdW  Elec       q    Type
REMARK                         _______ _______ _______ _____ _____    ______ ____
ROOT
ATOM      1  C   UNL     1      43.414   5.165  12.172  0.00  0.00    +0.000 C 
ATOM      2  C   UNL     1      43.014   4.408  13.463  0.00  0.00    +0.000 C 
ATOM      3  C   UNL     1      42.241   6.089  11.764  0.00  0.00    +0.000 C 
ENDROOT
BRANCH   1   8
ATOM      4  C   UNL     1      46.853   6.203  13.609  0.00  0.00    +0.000 A 
ATOM      5  C   UNL     1      46.884   7.491  13.065  0.00  0.00    +0.000 A 
ATOM      6  N   UNL     1      45.946   8.038  12.261  0.00  0.00    +0.000 NA
ATOM      7  C   UNL     1      44.883   7.267  11.976  0.00  0.00    +0.000 A 
ATOM      8  C   UNL     1      44.671   5.988  12.484  0.00  0.00    +0.000 A 
ATOM      9  C   UNL     1      45.703   5.467  13.299  0.00  0.00    +0.000 A 
BRANCH   4  13
ATOM     10  N   UNL     1      48.379   5.216  17.356  0.00  0.00    +0.000 NA
ATOM     11  C   UNL     1      47.249   4.632  16.583  0.00  0.00    +0.000 C 
ATOM     12  C   UNL     1      47.612   4.403  15.103  0.00  0.00    +0.000 C 
ATOM     13  N   UNL     1      47.837   5.696  14.450  0.00  0.00    +0.000 N 
ATOM     14  C   UNL     1      48.768   6.608  15.164  0.00  0.00    +0.000 C 
ATOM     15  C   UNL     1      48.641   6.541  16.724  0.00  0.00    +0.000 C 
BRANCH  10  17
ATOM     16  C   UNL     1      50.736   4.833  18.225  0.00  0.00    +0.000 C 
ATOM     17  C   UNL     1      49.552   4.305  17.401  0.00  0.00    +0.000 C 
ATOM     18  C   UNL     1      49.184   2.929  17.998  0.00  0.00    +0.000 C 
ENDBRANCH  10  17
ENDBRANCH   4  13
ENDBRANCH   1   8
BRANCH   1  19
ATOM     19  C   UNL     1      43.592   4.082  11.055  0.00  0.00    +0.000 C 
BRANCH  19  20
ATOM     20  N   UNL     1      43.930   4.651   9.742  0.00  0.00    +0.000 N 
ATOM     21  H   UNL     1      44.031   5.666   9.735  0.00  0.00    +0.000 HD
BRANCH  20  22
ATOM     22  C   UNL     1      44.914   4.009   8.987  0.00  0.00    +0.000 A 
ATOM     23  C   UNL     1      45.026   2.614   8.920  0.00  0.00    +0.000 A 
ATOM     24  C   UNL     1      45.964   2.011   8.091  0.00  0.00    +0.000 A 
ATOM     25  C   UNL     1      46.786   2.824   7.319  0.00  0.00    +0.000 A 
ATOM     26  N   UNL     1      46.725   4.183   7.334  0.00  0.00    +0.000 NA
ATOM     27  C   UNL     1      45.786   4.725   8.153  0.00  0.00    +0.000 A 
BRANCH  25  28
ATOM     28  C   UNL     1      47.785   2.200   6.397  0.00  0.00    +0.000 C 
ATOM     29  N   UNL     1      48.050   2.905   5.250  0.00  0.00    +0.000 N 
ATOM     30  O   UNL     1      48.335   1.136   6.638  0.00  0.00    +0.000 OA
ATOM     31  H   UNL     1      47.549   3.767   5.076  0.00  0.00    +0.000 HD
ATOM     32  H   UNL     1      48.684   2.524   4.564  0.00  0.00    +0.000 HD
ENDBRANCH  25  28
ENDBRANCH  20  22
ENDBRANCH  19  20
ENDBRANCH   1  19
TORSDOF 7
ENDMDL
MODEL 2
REMARK VINA RESULT:    -7.700      1.896      2.464
REMARK INTER + INTRA:         -11.777
REMARK INTER:                 -10.910
REMARK INTRA:                  -0.867
REMARK UNBOUND:                -0.925
REMARK  Name = 
REMARK  11 active torsions:
REMARK  status: ('A' for Active; 'I' for Inactive)
REMARK    1  A    between atoms: C_1  and  C_2
REMARK    2  A    between atoms: C_2  and  C_3
REMARK    3  A    between atoms: C_2  and  N_4
REMARK    4  A    between atoms: N_7  and  C_8
REMARK    5  A    between atoms: C_12  and  C_13
REMARK    6  A    between atoms: C_13  and  C_14
REMARK    7  A    between atoms: C_13  and  C_15
REMARK    8  A    between atoms: C_13  and  C_16
REMARK    9  A    between atoms: C_16  and  N_17
REMARK   10  A    between atoms: N_17  and  C_18
REMARK   11  A    between atoms: C_21  and  C_22
REMARK                            x       y       z     vdW  Elec       q    Type
REMARK                         _______ _______ _______ _____ _____    ______ ____
ROOT
ATOM      1  C   UNL     1      44.176   4.814  12.171  0.00  0.00    +0.000 C 
ATOM      2  C   UNL     1      45.003   3.564  12.563  0.00  0.00    +0.000 C 
ATOM      3  C   UNL     1      43.031   4.984  13.198  0.00  0.00    +0.000 C 
ENDROOT
BRANCH   1   8
ATOM      4  C   UNL     1      47.305   7.011  12.765  0.00  0.00    +0.000 A 
ATOM      5  C   UNL     1      46.765   8.209  12.289  0.00  0.00    +0.000 A 
ATOM      6  N   UNL     1      45.530   8.374  11.765  0.00  0.00    +0.000 NA
ATOM      7  C   UNL     1      44.754   7.278  11.715  0.00  0.00    +0.000 A 
ATOM      8  C   UNL     1      45.118   6.025  12.202  0.00  0.00    +0.000 A 
ATOM      9  C   UNL     1      46.431   5.918  12.714  0.00  0.00    +0.000 A 
BRANCH   4  13
ATOM     10  N   UNL     1      50.457   8.381  15.117  0.00  0.00    +0.000 NA
ATOM     11  C   UNL     1      49.100   7.902  15.496  0.00  0.00    +0.000 C 
ATOM     12  C   UNL     1      48.706   6.614  14.748  0.00  0.00    +0.000 C 
ATOM     13  N   UNL     1      48.577   6.901  13.315  0.00  0.00    +0.000 N 
ATOM     14  C   UNL     1      49.729   7.620  12.711  0.00  0.00    +0.000 C 
ATOM     15  C   UNL     1      50.371   8.689  13.661  0.00  0.00    +0.000 C 
BRANCH  10  17
ATOM     16  C   UNL     1      52.948   7.892  15.230  0.00  0.00    +0.000 C 
ATOM     17  C   UNL     1      51.515   7.403  15.484  0.00  0.00    +0.000 C 
ATOM     18  C   UNL     1      51.443   7.019  16.979  0.00  0.00    +0.000 C 
ENDBRANCH  10  17
ENDBRANCH   4  13
ENDBRANCH   1   8
BRANCH   1  19
ATOM     19  C   UNL     1      43.536   4.508  10.775  0.00  0.00    +0.000 C 
BRANCH  19  20
ATOM     20  N   UNL     1      43.776   3.131  10.315  0.00  0.00    +0.000 N 
ATOM     21  H   UNL     1      42.933   2.563  10.229  0.00  0.00    +0.000 HD
BRANCH  20  22
ATOM     22  C   UNL     1      44.661   2.945   9.251  0.00  0.00    +0.000 A 
ATOM     23  C   UNL     1      45.084   3.995   8.426  0.00  0.00    +0.000 A 
ATOM     24  C   UNL     1      46.032   3.786   7.432  0.00  0.00    +0.000 A 
ATOM     25  C   UNL     1      46.561   2.510   7.278  0.00  0.00    +0.000 A 
ATOM     26  N   UNL     1      46.198   1.449   8.050  0.00  0.00    +0.000 NA
ATOM     27  C   UNL     1      45.275   1.706   9.014  0.00  0.00    +0.000 A 
BRANCH  25  28
ATOM     28  C   UNL     1      47.603   2.264   6.234  0.00  0.00    +0.000 C 
ATOM     29  N   UNL     1      47.644   3.181   5.214  0.00  0.00    +0.000 N 
ATOM     30  O   UNL     1      48.372   1.315   6.276  0.00  0.00    +0.000 OA
ATOM     31  H   UNL     1      46.968   3.934   5.203  0.00  0.00    +0.000 HD
ATOM     32  H   UNL     1      48.295   3.056   4.455  0.00  0.00    +0.000 HD
ENDBRANCH  25  28
ENDBRANCH  20  22
ENDBRANCH  19  20
ENDBRANCH   1  19
TORSDOF 7
ENDMDL
MODEL 3
REMARK VINA RESULT:    -7.591      2.219      3.771
REMARK INTER + INTRA:         -11.622
REMARK INTER:                 -10.589
REMARK INTRA:                  -1.033
REMARK UNBOUND:                -0.925
REMARK  Name = 
REMARK  11 active torsions:
REMARK  status: ('A' for Active; 'I' for Inactive)
REMARK    1  A    between atoms: C_1  and  C_2
REMARK    2  A    between atoms: C_2  and  C_3
REMARK    3  A    between atoms: C_2  and  N_4
REMARK    4  A    between atoms: N_7  and  C_8
REMARK    5  A    between atoms: C_12  and  C_13
REMARK    6  A    between atoms: C_13  and  C_14
REMARK    7  A    between atoms: C_13  and  C_15
REMARK    8  A    between atoms: C_13  and  C_16
REMARK    9  A    between atoms: C_16  and  N_17
REMARK   10  A    between atoms: N_17  and  C_18
REMARK   11  A    between atoms: C_21  and  C_22
REMARK                            x       y       z     vdW  Elec       q    Type
REMARK                         _______ _______ _______ _____ _____    ______ ____
ROOT
ATOM      1  C   UNL     1      43.918   5.090  12.148  0.00  0.00    +0.000 C 
ATOM      2  C   UNL     1      42.881   5.085  13.299  0.00  0.00    +0.000 C 
ATOM      3  C   UNL     1      43.646   6.321  11.252  0.00  0.00    +0.000 C 
ENDROOT
BRANCH   1   8
ATOM      4  C   UNL     1      47.293   6.500  13.410  0.00  0.00    +0.000 A 
ATOM      5  C   UNL     1      47.823   5.289  13.866  0.00  0.00    +0.000 A 
ATOM      6  N   UNL     1      47.201   4.089  13.849  0.00  0.00    +0.000 NA
ATOM      7  C   UNL     1      45.962   4.069  13.329  0.00  0.00    +0.000 A 
ATOM      8  C   UNL     1      45.314   5.173  12.779  0.00  0.00    +0.000 A 
ATOM      9  C   UNL     1      46.012   6.400  12.852  0.00  0.00    +0.000 A 
BRANCH   4  13
ATOM     10  N   UNL     1      50.560   8.913  12.491  0.00  0.00    +0.000 NA
ATOM     11  C   UNL     1      49.520   8.311  11.614  0.00  0.00    +0.000 C 
ATOM     12  C   UNL     1      48.101   8.477  12.191  0.00  0.00    +0.000 C 
ATOM     13  N   UNL     1      47.986   7.704  13.432  0.00  0.00    +0.000 N 
ATOM     14  C   UNL     1      49.070   7.937  14.422  0.00  0.00    +0.000 C 
ATOM     15  C   UNL     1      50.480   8.151  13.771  0.00  0.00    +0.000 C 
BRANCH  10  17
ATOM     16  C   UNL     1      51.192  11.011  13.779  0.00  0.00    +0.000 C 
ATOM     17  C   UNL     1      50.388  10.383  12.631  0.00  0.00    +0.000 C 
ATOM     18  C   UNL     1      50.805  11.130  11.346  0.00  0.00    +0.000 C 
ENDBRANCH  10  17
ENDBRANCH   4  13
ENDBRANCH   1   8
BRANCH   1  19
ATOM     19  C   UNL     1      43.649   3.802  11.299  0.00  0.00    +0.000 C 
BRANCH  19  20
ATOM     20  N   UNL     1      43.611   4.057   9.852  0.00  0.00    +0.000 N 
ATOM     21  H   UNL     1      43.345   5.009   9.598  0.00  0.00    +0.000 HD
BRANCH  20  22
ATOM     22  C   UNL     1      44.665   3.569   9.076  0.00  0.00    +0.000 A 
ATOM     23  C   UNL     1      45.031   2.217   9.062  0.00  0.00    +0.000 A 
ATOM     24  C   UNL     1      46.029   1.756   8.212  0.00  0.00    +0.000 A 
ATOM     25  C   UNL     1      46.653   2.666   7.366  0.00  0.00    +0.000 A 
ATOM     26  N   UNL     1      46.340   3.990   7.326  0.00  0.00    +0.000 NA
ATOM     27  C   UNL     1      45.352   4.391   8.168  0.00  0.00    +0.000 A 
BRANCH  25  28
ATOM     28  C   UNL     1      47.710   2.190   6.422  0.00  0.00    +0.000 C 
ATOM     29  N   UNL     1      47.933   2.993   5.332  0.00  0.00    +0.000 N 
ATOM     30  O   UNL     1      48.340   1.158   6.598  0.00  0.00    +0.000 OA
ATOM     31  H   UNL     1      47.366   3.823   5.209  0.00  0.00    +0.000 HD
ATOM     32  H   UNL     1      48.604   2.713   4.633  0.00  0.00    +0.000 HD
ENDBRANCH  25  28
ENDBRANCH  20  22
ENDBRANCH  19  20
ENDBRANCH   1  19
TORSDOF 7
ENDMDL
MODEL 4
REMARK VINA RESULT:    -6.409      2.995      7.961
REMARK INTER + INTRA:          -9.957
REMARK INTER:                  -8.930
REMARK INTRA:                  -1.027
REMARK UNBOUND:                -0.925
REMARK  Name = 
REMARK  11 active torsions:
REMARK  status: ('A' for Active; 'I' for Inactive)
REMARK    1  A    between atoms: C_1  and  C_2
REMARK    2  A    between atoms: C_2  and  C_3
REMARK    3  A    between atoms: C_2  and  N_4
REMARK    4  A    between atoms: N_7  and  C_8
REMARK    5  A    between atoms: C_12  and  C_13
REMARK    6  A    between atoms: C_13  and  C_14
REMARK    7  A    between atoms: C_13  and  C_15
REMARK    8  A    between atoms: C_13  and  C_16
REMARK    9  A    between atoms: C_16  and  N_17
REMARK   10  A    between atoms: N_17  and  C_18
REMARK   11  A    between atoms: C_21  and  C_22
REMARK                            x       y       z     vdW  Elec       q    Type
REMARK                         _______ _______ _______ _____ _____    ______ ____
ROOT
ATOM      1  C   UNL     1      48.853   9.953  12.800  0.00  0.00    +0.000 C 
ATOM      2  C   UNL     1      49.827   9.223  11.841  0.00  0.00    +0.000 C 
ATOM      3  C   UNL     1      49.059  11.478  12.637  0.00  0.00    +0.000 C 
ENDROOT
BRANCH   1   8
ATOM      4  C   UNL     1      45.732   7.804  12.016  0.00  0.00    +0.000 A 
ATOM      5  C   UNL     1      44.884   8.857  11.661  0.00  0.00    +0.000 A 
ATOM      6  N   UNL     1      45.194  10.173  11.687  0.00  0.00    +0.000 NA
ATOM      7  C   UNL     1      46.441  10.483  12.080  0.00  0.00    +0.000 A 
ATOM      8  C   UNL     1      47.424   9.552  12.407  0.00  0.00    +0.000 A 
ATOM      9  C   UNL     1      47.026   8.196  12.382  0.00  0.00    +0.000 A 
BRANCH   4  13
ATOM     10  N   UNL     1      43.948   4.535  10.152  0.00  0.00    +0.000 NA
ATOM     11  C   UNL     1      45.160   5.317   9.788  0.00  0.00    +0.000 C 
ATOM     12  C   UNL     1      46.067   5.587  11.005  0.00  0.00    +0.000 C 
ATOM     13  N   UNL     1      45.369   6.464  11.950  0.00  0.00    +0.000 N 
ATOM     14  C   UNL     1      43.992   6.033  12.308  0.00  0.00    +0.000 C 
ATOM     15  C   UNL     1      43.202   5.395  11.115  0.00  0.00    +0.000 C 
BRANCH  10  17
ATOM     16  C   UNL     1      43.260   2.588  11.634  0.00  0.00    +0.000 C 
ATOM     17  C   UNL     1      44.292   3.182  10.663  0.00  0.00    +0.000 C 
ATOM     18  C   UNL     1      44.449   2.161   9.515  0.00  0.00    +0.000 C 
ENDBRANCH  10  17
ENDBRANCH   4  13
ENDBRANCH   1   8
BRANCH   1  19
ATOM     19  C   UNL     1      49.277   9.557  14.254  0.00  0.00    +0.000 C 
BRANCH  19  20
ATOM     20  N   UNL     1      50.013   8.286  14.319  0.00  0.00    +0.000 N 
ATOM     21  H   UNL     1      51.018   8.387  14.457  0.00  0.00    +0.000 HD
BRANCH  20  22
ATOM     22  C   UNL     1      49.466   7.255  15.088  0.00  0.00    +0.000 A 
ATOM     23  C   UNL     1      49.713   7.123  16.461  0.00  0.00    +0.000 A 
ATOM     24  C   UNL     1      49.082   6.136  17.209  0.00  0.00    +0.000 A 
ATOM     25  C   UNL     1      48.191   5.285  16.565  0.00  0.00    +0.000 A 
ATOM     26  N   UNL     1      47.903   5.364  15.238  0.00  0.00    +0.000 NA
ATOM     27  C   UNL     1      48.537   6.351  14.552  0.00  0.00    +0.000 A 
BRANCH  25  28
ATOM     28  C   UNL     1      47.478   4.232  17.353  0.00  0.00    +0.000 C 
ATOM     29  N   UNL     1      47.771   4.198  18.693  0.00  0.00    +0.000 N 
ATOM     30  O   UNL     1      46.686   3.451  16.849  0.00  0.00    +0.000 OA
ATOM     31  H   UNL     1      48.457   4.845  19.063  0.00  0.00    +0.000 HD
ATOM     32  H   UNL     1      47.357   3.488  19.278  0.00  0.00    +0.000 HD
ENDBRANCH  25  28
ENDBRANCH  20  22
ENDBRANCH  19  20
ENDBRANCH   1  19
TORSDOF 7
ENDMDL
MODEL 5
REMARK VINA RESULT:    -6.391      3.692      8.123
REMARK INTER + INTRA:          -9.932
REMARK INTER:                  -8.539
REMARK INTRA:                  -1.392
REMARK UNBOUND:                -0.925
REMARK  Name = 
REMARK  11 active torsions:
REMARK  status: ('A' for Active; 'I' for Inactive)
REMARK    1  A    between atoms: C_1  and  C_2
REMARK    2  A    between atoms: C_2  and  C_3
REMARK    3  A    between atoms: C_2  and  N_4
REMARK    4  A    between atoms: N_7  and  C_8
REMARK    5  A    between atoms: C_12  and  C_13
REMARK    6  A    between atoms: C_13  and  C_14
REMARK    7  A    between atoms: C_13  and  C_15
REMARK    8  A    between atoms: C_13  and  C_16
REMARK    9  A    between atoms: C_16  and  N_17
REMARK   10  A    between atoms: N_17  and  C_18
REMARK   11  A    between atoms: C_21  and  C_22
REMARK                            x       y       z     vdW  Elec       q    Type
REMARK                         _______ _______ _______ _____ _____    ______ ____
ROOT
ATOM      1  C   UNL     1      49.360   9.223  16.127  0.00  0.00    +0.000 C 
ATOM      2  C   UNL     1      49.886  10.673  15.987  0.00  0.00    +0.000 C 
ATOM      3  C   UNL     1      47.897   9.280  16.628  0.00  0.00    +0.000 C 
ENDROOT
BRANCH   1   8
ATOM      4  C   UNL     1      48.441   7.115  13.015  0.00  0.00    +0.000 A 
ATOM      5  C   UNL     1      49.611   7.361  12.291  0.00  0.00    +0.000 A 
ATOM      6  N   UNL     1      50.633   8.158  12.675  0.00  0.00    +0.000 NA
ATOM      7  C   UNL     1      50.507   8.752  13.873  0.00  0.00    +0.000 A 
ATOM      8  C   UNL     1      49.435   8.564  14.743  0.00  0.00    +0.000 A 
ATOM      9  C   UNL     1      48.390   7.738  14.268  0.00  0.00    +0.000 A 
BRANCH   4  13
ATOM     10  N   UNL     1      44.597   5.526  13.218  0.00  0.00    +0.000 NA
ATOM     11  C   UNL     1      45.066   6.887  12.842  0.00  0.00    +0.000 C 
ATOM     12  C   UNL     1      46.273   6.845  11.885  0.00  0.00    +0.000 C 
ATOM     13  N   UNL     1      47.428   6.268  12.581  0.00  0.00    +0.000 N 
ATOM     14  C   UNL     1      47.165   4.981  13.277  0.00  0.00    +0.000 C 
ATOM     15  C   UNL     1      45.745   4.901  13.935  0.00  0.00    +0.000 C 
BRANCH  10  17
ATOM     16  C   UNL     1      43.864   3.269  12.310  0.00  0.00    +0.000 C 
ATOM     17  C   UNL     1      44.107   4.761  12.041  0.00  0.00    +0.000 C 
ATOM     18  C   UNL     1      42.776   5.331  11.504  0.00  0.00    +0.000 C 
ENDBRANCH  10  17
ENDBRANCH   4  13
ENDBRANCH   1   8
BRANCH   1  19
ATOM     19  C   UNL     1      50.228   8.537  17.235  0.00  0.00    +0.000 C 
BRANCH  19  20
ATOM     20  N   UNL     1      49.454   7.644  18.110  0.00  0.00    +0.000 N 
ATOM     21  H   UNL     1      48.490   7.939  18.267  0.00  0.00    +0.000 HD
BRANCH  20  22
ATOM     22  C   UNL     1      49.567   6.268  17.901  0.00  0.00    +0.000 A 
ATOM     23  C   UNL     1      48.477   5.395  18.005  0.00  0.00    +0.000 A 
ATOM     24  C   UNL     1      48.612   4.044  17.705  0.00  0.00    +0.000 A 
ATOM     25  C   UNL     1      49.854   3.578  17.289  0.00  0.00    +0.000 A 
ATOM     26  N   UNL     1      50.950   4.375  17.161  0.00  0.00    +0.000 NA
ATOM     27  C   UNL     1      50.766   5.688  17.457  0.00  0.00    +0.000 A 
BRANCH  25  28
ATOM     28  C   UNL     1      50.019   2.135  16.933  0.00  0.00    +0.000 C 
ATOM     29  N   UNL     1      50.847   1.415  17.756  0.00  0.00    +0.000 N 
ATOM     30  O   UNL     1      49.460   1.621  15.976  0.00  0.00    +0.000 OA
ATOM     31  H   UNL     1      51.315   1.889  18.520  0.00  0.00    +0.000 HD
ATOM     32  H   UNL     1      51.036   0.446  17.553  0.00  0.00    +0.000 HD
ENDBRANCH  25  28
ENDBRANCH  20  22
ENDBRANCH  19  20
ENDBRANCH   1  19
TORSDOF 7
ENDMDL
MODEL 6
REMARK VINA RESULT:    -6.043      2.951      4.882
REMARK INTER + INTRA:          -9.441
REMARK INTER:                  -8.565
REMARK INTRA:                  -0.876
REMARK UNBOUND:                -0.925
REMARK  Name = 
REMARK  11 active torsions:
REMARK  status: ('A' for Active; 'I' for Inactive)
REMARK    1  A    between atoms: C_1  and  C_2
REMARK    2  A    between atoms: C_2  and  C_3
REMARK    3  A    between atoms: C_2  and  N_4
REMARK    4  A    between atoms: N_7  and  C_8
REMARK    5  A    between atoms: C_12  and  C_13
REMARK    6  A    between atoms: C_13  and  C_14
REMARK    7  A    between atoms: C_13  and  C_15
REMARK    8  A    between atoms: C_13  and  C_16
REMARK    9  A    between atoms: C_16  and  N_17
REMARK   10  A    between atoms: N_17  and  C_18
REMARK   11  A    between atoms: C_21  and  C_22
REMARK                            x       y       z     vdW  Elec       q    Type
REMARK                         _______ _______ _______ _____ _____    ______ ____
ROOT
ATOM      1  C   UNL     1      48.055   9.196  12.373  0.00  0.00    +0.000 C 
ATOM      2  C   UNL     1      48.405  10.396  11.459  0.00  0.00    +0.000 C 
ATOM      3  C   UNL     1      48.693   7.921  11.771  0.00  0.00    +0.000 C 
ENDROOT
BRANCH   1   8
ATOM      4  C   UNL     1      49.356   8.688  15.981  0.00  0.00    +0.000 A 
ATOM      5  C   UNL     1      49.614  10.034  16.260  0.00  0.00    +0.000 A 
ATOM      6  N   UNL     1      49.454  11.070  15.407  0.00  0.00    +0.000 NA
ATOM      7  C   UNL     1      48.991  10.765  14.182  0.00  0.00    +0.000 A 
ATOM      8  C   UNL     1      48.630   9.486  13.766  0.00  0.00    +0.000 A 
ATOM      9  C   UNL     1      48.845   8.447  14.700  0.00  0.00    +0.000 A 
BRANCH   4  13
ATOM     10  N   UNL     1      48.010   5.377  18.117  0.00  0.00    +0.000 NA
ATOM     11  C   UNL     1      48.299   5.545  16.667  0.00  0.00    +0.000 C 
ATOM     12  C   UNL     1      49.629   6.283  16.420  0.00  0.00    +0.000 C 
ATOM     13  N   UNL     1      49.518   7.663  16.905  0.00  0.00    +0.000 N 
ATOM     14  C   UNL     1      49.000   7.803  18.292  0.00  0.00    +0.000 C 
ATOM     15  C   UNL     1      47.886   6.763  18.654  0.00  0.00    +0.000 C 
BRANCH  10  17
ATOM     16  C   UNL     1      48.831   4.392  20.311  0.00  0.00    +0.000 C 
ATOM     17  C   UNL     1      49.031   4.536  18.795  0.00  0.00    +0.000 C 
ATOM     18  C   UNL     1      49.062   3.103  18.221  0.00  0.00    +0.000 C 
ENDBRANCH  10  17
ENDBRANCH   4  13
ENDBRANCH   1   8
BRANCH   1  19
ATOM     19  C   UNL     1      46.498   9.033  12.320  0.00  0.00    +0.000 C 
BRANCH  19  20
ATOM     20  N   UNL     1      45.989   8.012  13.248  0.00  0.00    +0.000 N 
ATOM     21  H   UNL     1      45.322   8.363  13.935  0.00  0.00    +0.000 HD
BRANCH  20  22
ATOM     22  C   UNL     1      45.611   6.777  12.715  0.00  0.00    +0.000 A 
ATOM     23  C   UNL     1      45.969   5.558  13.304  0.00  0.00    +0.000 A 
ATOM     24  C   UNL     1      45.502   4.353  12.793  0.00  0.00    +0.000 A 
ATOM     25  C   UNL     1      44.660   4.384  11.686  0.00  0.00    +0.000 A 
ATOM     26  N   UNL     1      44.270   5.534  11.072  0.00  0.00    +0.000 NA
ATOM     27  C   UNL     1      44.745   6.685  11.614  0.00  0.00    +0.000 A 
BRANCH  25  28
ATOM     28  C   UNL     1      44.121   3.103  11.134  0.00  0.00    +0.000 C 
ATOM     29  N   UNL     1      44.926   2.469  10.221  0.00  0.00    +0.000 N 
ATOM     30  O   UNL     1      43.039   2.642  11.466  0.00  0.00    +0.000 OA
ATOM     31  H   UNL     1      45.800   2.902   9.952  0.00  0.00    +0.000 HD
ATOM     32  H   UNL     1      44.608   1.620   9.778  0.00  0.00    +0.000 HD
ENDBRANCH  25  28
ENDBRANCH  20  22
ENDBRANCH  19  20
ENDBRANCH   1  19
TORSDOF 7
ENDMDL
MODEL 7
REMARK VINA RESULT:    -5.981      3.654      8.769
REMARK INTER + INTRA:          -9.354
REMARK INTER:                  -8.566
REMARK INTRA:                  -0.788
REMARK UNBOUND:                -0.925
REMARK  Name = 
REMARK  11 active torsions:
REMARK  status: ('A' for Active; 'I' for Inactive)
REMARK    1  A    between atoms: C_1  and  C_2
REMARK    2  A    between atoms: C_2  and  C_3
REMARK    3  A    between atoms: C_2  and  N_4
REMARK    4  A    between atoms: N_7  and  C_8
REMARK    5  A    between atoms: C_12  and  C_13
REMARK    6  A    between atoms: C_13  and  C_14
REMARK    7  A    between atoms: C_13  and  C_15
REMARK    8  A    between atoms: C_13  and  C_16
REMARK    9  A    between atoms: C_16  and  N_17
REMARK   10  A    between atoms: N_17  and  C_18
REMARK   11  A    between atoms: C_21  and  C_22
REMARK                            x       y       z     vdW  Elec       q    Type
REMARK                         _______ _______ _______ _____ _____    ______ ____
ROOT
ATOM      1  C   UNL     1      49.763   7.161  16.920  0.00  0.00    +0.000 C 
ATOM      2  C   UNL     1      50.659   8.368  17.290  0.00  0.00    +0.000 C 
ATOM      3  C   UNL     1      48.785   6.901  18.090  0.00  0.00    +0.000 C 
ENDROOT
BRANCH   1   8
ATOM      4  C   UNL     1      47.608   6.842  13.721  0.00  0.00    +0.000 A 
ATOM      5  C   UNL     1      47.674   8.185  13.337  0.00  0.00    +0.000 A 
ATOM      6  N   UNL     1      48.295   9.178  14.013  0.00  0.00    +0.000 NA
ATOM      7  C   UNL     1      48.916   8.825  15.151  0.00  0.00    +0.000 A 
ATOM      8  C   UNL     1      48.996   7.523  15.640  0.00  0.00    +0.000 A 
ATOM      9  C   UNL     1      48.304   6.539  14.898  0.00  0.00    +0.000 A 
BRANCH   4  13
ATOM     10  N   UNL     1      44.306   5.223  11.768  0.00  0.00    +0.000 NA
ATOM     11  C   UNL     1      45.134   6.417  11.448  0.00  0.00    +0.000 C 
ATOM     12  C   UNL     1      46.643   6.131  11.574  0.00  0.00    +0.000 C 
ATOM     13  N   UNL     1      46.973   5.857  12.976  0.00  0.00    +0.000 N 
ATOM     14  C   UNL     1      46.110   4.843  13.639  0.00  0.00    +0.000 C 
ATOM     15  C   UNL     1      44.609   4.909  13.194  0.00  0.00    +0.000 C 
BRANCH  10  17
ATOM     16  C   UNL     1      43.754   2.827  11.125  0.00  0.00    +0.000 C 
ATOM     17  C   UNL     1      44.550   4.105  10.820  0.00  0.00    +0.000 C 
ATOM     18  C   UNL     1      44.199   4.502   9.369  0.00  0.00    +0.000 C 
ENDBRANCH  10  17
ENDBRANCH   4  13
ENDBRANCH   1   8
BRANCH   1  19
ATOM     19  C   UNL     1      50.712   5.921  16.795  0.00  0.00    +0.000 C 
BRANCH  19  20
ATOM     20  N   UNL     1      50.247   4.754  17.559  0.00  0.00    +0.000 N 
ATOM     21  H   UNL     1      49.260   4.533  17.433  0.00  0.00    +0.000 HD
BRANCH  20  22
ATOM     22  C   UNL     1      51.057   3.616  17.566  0.00  0.00    +0.000 A 
ATOM     23  C   UNL     1      52.390   3.638  17.994  0.00  0.00    +0.000 A 
ATOM     24  C   UNL     1      53.137   2.468  18.067  0.00  0.00    +0.000 A 
ATOM     25  C   UNL     1      52.528   1.269  17.715  0.00  0.00    +0.000 A 
ATOM     26  N   UNL     1      51.235   1.179  17.298  0.00  0.00    +0.000 NA
ATOM     27  C   UNL     1      50.544   2.347  17.251  0.00  0.00    +0.000 A 
BRANCH  25  28
ATOM     28  C   UNL     1      53.300  -0.007  17.812  0.00  0.00    +0.000 C 
ATOM     29  N   UNL     1      53.890  -0.429  16.647  0.00  0.00    +0.000 N 
ATOM     30  O   UNL     1      53.407  -0.639  18.852  0.00  0.00    +0.000 OA
ATOM     31  H   UNL     1      53.751   0.109  15.802  0.00  0.00    +0.000 HD
ATOM     32  H   UNL     1      54.395  -1.303  16.630  0.00  0.00    +0.000 HD
ENDBRANCH  25  28
ENDBRANCH  20  22
ENDBRANCH  19  20
ENDBRANCH   1  19
TORSDOF 7
ENDMDL
MODEL 8
REMARK VINA RESULT:    -5.803      2.630      6.290
REMARK INTER + INTRA:          -9.103
REMARK INTER:                  -8.512
REMARK INTRA:                  -0.591
REMARK UNBOUND:                -0.925
REMARK  Name = 
REMARK  11 active torsions:
REMARK  status: ('A' for Active; 'I' for Inactive)
REMARK    1  A    between atoms: C_1  and  C_2
REMARK    2  A    between atoms: C_2  and  C_3
REMARK    3  A    between atoms: C_2  and  N_4
REMARK    4  A    between atoms: N_7  and  C_8
REMARK    5  A    between atoms: C_12  and  C_13
REMARK    6  A    between atoms: C_13  and  C_14
REMARK    7  A    between atoms: C_13  and  C_15
REMARK    8  A    between atoms: C_13  and  C_16
REMARK    9  A    between atoms: C_16  and  N_17
REMARK   10  A    between atoms: N_17  and  C_18
REMARK   11  A    between atoms: C_21  and  C_22
REMARK                            x       y       z     vdW  Elec       q    Type
REMARK                         _______ _______ _______ _____ _____    ______ ____
ROOT
ATOM      1  C   UNL     1      48.226   4.471  17.062  0.00  0.00    +0.000 C 
ATOM      2  C   UNL     1      48.807   3.187  17.704  0.00  0.00    +0.000 C 
ATOM      3  C   UNL     1      47.284   5.147  18.087  0.00  0.00    +0.000 C 
ENDROOT
BRANCH   1   8
ATOM      4  C   UNL     1      50.306   7.327  15.483  0.00  0.00    +0.000 A 
ATOM      5  C   UNL     1      51.528   6.996  16.075  0.00  0.00    +0.000 A 
ATOM      6  N   UNL     1      51.742   5.988  16.951  0.00  0.00    +0.000 NA
ATOM      7  C   UNL     1      50.674   5.234  17.262  0.00  0.00    +0.000 A 
ATOM      8  C   UNL     1      49.404   5.393  16.715  0.00  0.00    +0.000 A 
ATOM      9  C   UNL     1      49.245   6.480  15.825  0.00  0.00    +0.000 A 
BRANCH   4  13
ATOM     10  N   UNL     1      48.946   8.917  11.882  0.00  0.00    +0.000 NA
ATOM     11  C   UNL     1      48.198   8.439  13.077  0.00  0.00    +0.000 C 
ATOM     12  C   UNL     1      48.814   8.951  14.393  0.00  0.00    +0.000 C 
ATOM     13  N   UNL     1      50.146   8.362  14.570  0.00  0.00    +0.000 N 
ATOM     14  C   UNL     1      51.048   8.485  13.395  0.00  0.00    +0.000 C 
ATOM     15  C   UNL     1      50.313   8.337  12.019  0.00  0.00    +0.000 C 
BRANCH  10  17
ATOM     16  C   UNL     1      49.866  10.971  10.702  0.00  0.00    +0.000 C 
ATOM     17  C   UNL     1      48.908  10.398  11.757  0.00  0.00    +0.000 C 
ATOM     18  C   UNL     1      47.497  10.903  11.385  0.00  0.00    +0.000 C 
ENDBRANCH  10  17
ENDBRANCH   4  13
ENDBRANCH   1   8
BRANCH   1  19
ATOM     19  C   UNL     1      47.364   4.010  15.839  0.00  0.00    +0.000 C 
BRANCH  19  20
ATOM     20  N   UNL     1      46.780   5.128  15.084  0.00  0.00    +0.000 N 
ATOM     21  H   UNL     1      47.388   5.943  14.999  0.00  0.00    +0.000 HD
BRANCH  20  22
ATOM     22  C   UNL     1      46.110   4.832  13.894  0.00  0.00    +0.000 A 
ATOM     23  C   UNL     1      45.472   5.811  13.122  0.00  0.00    +0.000 A 
ATOM     24  C   UNL     1      44.890   5.490  11.901  0.00  0.00    +0.000 A 
ATOM     25  C   UNL     1      44.964   4.175  11.456  0.00  0.00    +0.000 A 
ATOM     26  N   UNL     1      45.575   3.180  12.155  0.00  0.00    +0.000 NA
ATOM     27  C   UNL     1      46.136   3.544  13.337  0.00  0.00    +0.000 A 
BRANCH  25  28
ATOM     28  C   UNL     1      44.371   3.810  10.132  0.00  0.00    +0.000 C 
ATOM     29  N   UNL     1      44.514   4.750   9.143  0.00  0.00    +0.000 N 
ATOM     30  O   UNL     1      43.797   2.750   9.933  0.00  0.00    +0.000 OA
ATOM     31  H   UNL     1      44.969   5.628   9.360  0.00  0.00    +0.000 HD
ATOM     32  H   UNL     1      44.104   4.588   8.236  0.00  0.00    +0.000 HD
ENDBRANCH  25  28
ENDBRANCH  20  22
ENDBRANCH  19  20
ENDBRANCH   1  19
TORSDOF 7
ENDMDL
MODEL 9
REMARK VINA RESULT:    -5.618      3.237      8.140
REMARK INTER + INTRA:          -8.843
REMARK INTER:                  -7.806
REMARK INTRA:                  -1.036
REMARK UNBOUND:                -0.925
REMARK  Name = 
REMARK  11 active torsions:
REMARK  status: ('A' for Active; 'I' for Inactive)
REMARK    1  A    between atoms: C_1  and  C_2
REMARK    2  A    between atoms: C_2  and  C_3
REMARK    3  A    between atoms: C_2  and  N_4
REMARK    4  A    between atoms: N_7  and  C_8
REMARK    5  A    between atoms: C_12  and  C_13
REMARK    6  A    between atoms: C_13  and  C_14
REMARK    7  A    between atoms: C_13  and  C_15
REMARK    8  A    between atoms: C_13  and  C_16
REMARK    9  A    between atoms: C_16  and  N_17
REMARK   10  A    between atoms: N_17  and  C_18
REMARK   11  A    between atoms: C_21  and  C_22
REMARK                            x       y       z     vdW  Elec       q    Type
REMARK                         _______ _______ _______ _____ _____    ______ ____
ROOT
ATOM      1  C   UNL     1      50.325   9.401  14.458  0.00  0.00    +0.000 C 
ATOM      2  C   UNL     1      51.357   8.398  13.887  0.00  0.00    +0.000 C 
ATOM      3  C   UNL     1      50.918  10.826  14.354  0.00  0.00    +0.000 C 
ENDROOT
BRANCH   1   8
ATOM      4  C   UNL     1      47.305   7.886  12.572  0.00  0.00    +0.000 A 
ATOM      5  C   UNL     1      46.788   9.090  12.084  0.00  0.00    +0.000 A 
ATOM      6  N   UNL     1      47.277  10.325  12.329  0.00  0.00    +0.000 NA
ATOM      7  C   UNL     1      48.373  10.388  13.105  0.00  0.00    +0.000 A 
ATOM      8  C   UNL     1      49.045   9.282  13.620  0.00  0.00    +0.000 A 
ATOM      9  C   UNL     1      48.465   8.022  13.345  0.00  0.00    +0.000 A 
BRANCH   4  13
ATOM     10  N   UNL     1      44.134   5.272  11.904  0.00  0.00    +0.000 NA
ATOM     11  C   UNL     1      44.620   6.431  11.108  0.00  0.00    +0.000 C 
ATOM     12  C   UNL     1      46.154   6.431  10.957  0.00  0.00    +0.000 C 
ATOM     13  N   UNL     1      46.774   6.638  12.270  0.00  0.00    +0.000 N 
ATOM     14  C   UNL     1      46.275   5.745  13.349  0.00  0.00    +0.000 C 
ATOM     15  C   UNL     1      44.740   5.443  13.256  0.00  0.00    +0.000 C 
BRANCH  10  17
ATOM     16  C   UNL     1      43.679   2.773  11.822  0.00  0.00    +0.000 C 
ATOM     17  C   UNL     1      44.440   3.975  11.245  0.00  0.00    +0.000 C 
ATOM     18  C   UNL     1      44.117   4.012   9.735  0.00  0.00    +0.000 C 
ENDBRANCH  10  17
ENDBRANCH   4  13
ENDBRANCH   1   8
BRANCH   1  19
ATOM     19  C   UNL     1      50.157   9.055  15.976  0.00  0.00    +0.000 C 
BRANCH  19  20
ATOM     20  N   UNL     1      50.965   7.902  16.402  0.00  0.00    +0.000 N 
ATOM     21  H   UNL     1      51.664   8.117  17.113  0.00  0.00    +0.000 HD
BRANCH  20  22
ATOM     22  C   UNL     1      50.303   6.697  16.646  0.00  0.00    +0.000 A 
ATOM     23  C   UNL     1      48.936   6.521  16.397  0.00  0.00    +0.000 A 
ATOM     24  C   UNL     1      48.331   5.282  16.572  0.00  0.00    +0.000 A 
ATOM     25  C   UNL     1      49.117   4.214  16.991  0.00  0.00    +0.000 A 
ATOM     26  N   UNL     1      50.450   4.317  17.244  0.00  0.00    +0.000 NA
ATOM     27  C   UNL     1      50.997   5.545  17.050  0.00  0.00    +0.000 A 
BRANCH  25  28
ATOM     28  C   UNL     1      48.496   2.864  17.160  0.00  0.00    +0.000 C 
ATOM     29  N   UNL     1      47.435   2.806  18.027  0.00  0.00    +0.000 N 
ATOM     30  O   UNL     1      48.898   1.872  16.570  0.00  0.00    +0.000 OA
ATOM     31  H   UNL     1      47.155   3.646  18.518  0.00  0.00    +0.000 HD
ATOM     32  H   UNL     1      46.993   1.920  18.219  0.00  0.00    +0.000 HD
ENDBRANCH  25  28
ENDBRANCH  20  22
ENDBRANCH  19  20
ENDBRANCH   1  19
TORSDOF 7
ENDMDL
