MODEL 1
REMARK VINA RESULT:    -8.012      0.000      0.000
REMARK INTER + INTRA:         -10.082
REMARK INTER:                  -9.885
REMARK INTRA:                  -0.197
REMARK UNBOUND:                -0.197
REMARK  Name = 
REMARK  6 active torsions:
REMARK  status: ('A' for Active; 'I' for Inactive)
REMARK    1  A    between atoms: C_1  and  C_2
REMARK    2  A    between atoms: C_2  and  C_3
REMARK    3  A    between atoms: C_2  and  O_4
REMARK    4  A    between atoms: C_2  and  C_14
REMARK    5  A    between atoms: O_4  and  C_5
REMARK    6  A    between atoms: C_8  and  C_9
REMARK                            x       y       z     vdW  Elec       q    Type
REMARK                         _______ _______ _______ _____ _____    ______ ____
ROOT
ATOM      1  C   UNL     1      44.523   3.533   9.195  0.00  0.00    +0.000 A 
ATOM      2  C   UNL     1      45.235   4.403   8.391  0.00  0.00    +0.000 A 
ATOM      3  N   UNL     1      46.246   4.037   7.567  0.00  0.00    +0.000 NA
ATOM      4  C   UNL     1      46.555   2.719   7.586  0.00  0.00    +0.000 A 
ATOM      5  N   UNL     1      45.973   1.792   8.361  0.00  0.00    +0.000 NA
ATOM      6  C   UNL     1      44.977   2.233   9.159  0.00  0.00    +0.000 A 
ENDROOT
BRANCH   4   7
ATOM      7  C   UNL     1      47.632   2.245   6.635  0.00  0.00    +0.000 C 
ATOM      8  N   UNL     1      47.824   3.017   5.515  0.00  0.00    +0.000 N 
ATOM      9  O   UNL     1      48.306   1.237   6.815  0.00  0.00    +0.000 OA
ATOM     10  H   UNL     1      47.256   3.838   5.353  0.00  0.00    +0.000 HD
ATOM     11  H   UNL     1      48.520   2.729   4.841  0.00  0.00    +0.000 HD
ENDBRANCH   4   7
BRANCH   1  12
ATOM     12  O   UNL     1      43.501   4.042   9.932  0.00  0.00    +0.000 OA
BRANCH  12  14
ATOM     13  C   UNL     1      42.588   5.279  11.904  0.00  0.00    +0.000 C 
ATOM     14  C   UNL     1      43.619   4.264  11.361  0.00  0.00    +0.000 C 
ATOM     15  C   UNL     1      43.494   2.920  12.106  0.00  0.00    +0.000 C 
BRANCH  14  16
ATOM     16  C   UNL     1      45.067   4.868  11.608  0.00  0.00    +0.000 C 
ATOM     17  C   UNL     1      45.634   4.453  12.987  0.00  0.00    +0.000 C 
ATOM     18  C   UNL     1      46.980   5.097  13.312  0.00  0.00    +0.000 C 
ATOM     19  C   UNL     1      46.916   6.612  13.188  0.00  0.00    +0.000 C 
ATOM     20  C   UNL     1      46.482   7.003  11.785  0.00  0.00    +0.000 C 
ATOM     21  C   UNL     1      45.122   6.404  11.437  0.00  0.00    +0.000 C 
ENDBRANCH  14  16
ENDBRANCH  12  14
ENDBRANCH   1  12
TORSDOF 4
ENDMDL
MODEL 2
REMARK VINA RESULT:    -6.856      4.106      6.359
REMARK INTER + INTRA:          -8.656
REMARK INTER:                  -8.583
REMARK INTRA:                  -0.073
REMARK UNBOUND:                -0.197
REMARK  Name = 
REMARK  6 active torsions:
REMARK  status: ('A' for Active; 'I' for Inactive)
REMARK    1  A    between atoms: C_1  and  C_2
REMARK    2  A    between atoms: C_2  and  C_3
REMARK    3  A    between atoms: C_2  and  O_4
REMARK    4  A    between atoms: C_2  and  C_14
REMARK    5  A    between atoms: O_4  and  C_5
REMARK    6  A    between atoms: C_8  and  C_9
REMARK                            x       y       z     vdW  Elec       q    Type
REMARK                         _______ _______ _______ _____ _____    ______ ____
ROOT
ATOM      1  C   UNL     1      46.681   5.021  13.067  0.00  0.00    +0.000 A 
ATOM      2  C   UNL     1      46.751   3.653  13.260  0.00  0.00    +0.000 A 
ATOM      3  N   UNL     1      47.206   3.056  14.387  0.00  0.00    +0.000 NA
ATOM      4  C   UNL     1      47.631   3.903  15.355  0.00  0.00    +0.000 A 
ATOM      5  N   UNL     1      47.661   5.241  15.262  0.00  0.00    +0.000 NA
ATOM      6  C   UNL     1      47.196   5.763  14.107  0.00  0.00    +0.000 A 
ENDROOT
BRANCH   4   7
ATOM      7  C   UNL     1      48.087   3.293  16.661  0.00  0.00    +0.000 C 
ATOM      8  N   UNL     1      47.088   2.901  17.520  0.00  0.00    +0.000 N 
ATOM      9  O   UNL     1      49.263   3.147  16.972  0.00  0.00    +0.000 OA
ATOM     10  H   UNL     1      46.116   3.038  17.274  0.00  0.00    +0.000 HD
ATOM     11  H   UNL     1      47.345   2.504  18.413  0.00  0.00    +0.000 HD
ENDBRANCH   4   7
BRANCH   1  12
ATOM     12  O   UNL     1      46.154   5.471  11.899  0.00  0.00    +0.000 OA
BRANCH  12  14
ATOM     13  C   UNL     1      43.930   4.673  12.719  0.00  0.00    +0.000 C 
ATOM     14  C   UNL     1      44.732   5.404  11.618  0.00  0.00    +0.000 C 
ATOM     15  C   UNL     1      44.179   6.827  11.405  0.00  0.00    +0.000 C 
BRANCH  14  16
ATOM     16  C   UNL     1      44.574   4.574  10.274  0.00  0.00    +0.000 C 
ATOM     17  C   UNL     1      44.540   3.049  10.542  0.00  0.00    +0.000 C 
ATOM     18  C   UNL     1      44.495   2.206   9.269  0.00  0.00    +0.000 C 
ATOM     19  C   UNL     1      45.635   2.564   8.327  0.00  0.00    +0.000 C 
ATOM     20  C   UNL     1      45.576   4.039   7.970  0.00  0.00    +0.000 C 
ATOM     21  C   UNL     1      45.652   4.916   9.218  0.00  0.00    +0.000 C 
ENDBRANCH  14  16
ENDBRANCH  12  14
ENDBRANCH   1  12
TORSDOF 4
ENDMDL
MODEL 3
REMARK VINA RESULT:    -6.250      3.988      6.532
REMARK INTER + INTRA:          -7.909
REMARK INTER:                  -7.608
REMARK INTRA:                  -0.300
REMARK UNBOUND:                -0.197
REMARK  Name = 
REMARK  6 active torsions:
REMARK  status: ('A' for Active; 'I' for Inactive)
REMARK    1  A    between atoms: C_1  and  C_2
REMARK    2  A    between atoms: C_2  and  C_3
REMARK    3  A    between atoms: C_2  and  O_4
REMARK    4  A    between atoms: C_2  and  C_14
REMARK    5  A    between atoms: O_4  and  C_5
REMARK    6  A    between atoms: C_8  and  C_9
REMARK                            x       y       z     vdW  Elec       q    Type
REMARK                         _______ _______ _______ _____ _____    ______ ____
ROOT
ATOM      1  C   UNL     1      46.014   7.007  11.685  0.00  0.00    +0.000 A 
ATOM      2  C   UNL     1      47.316   6.653  11.986  0.00  0.00    +0.000 A 
ATOM      3  N   UNL     1      48.058   7.210  12.974  0.00  0.00    +0.000 NA
ATOM      4  C   UNL     1      47.440   8.192  13.672  0.00  0.00    +0.000 A 
ATOM      5  N   UNL     1      46.203   8.656  13.439  0.00  0.00    +0.000 NA
ATOM      6  C   UNL     1      45.528   8.055  12.435  0.00  0.00    +0.000 A 
ENDROOT
BRANCH   4   7
ATOM      7  C   UNL     1      48.198   8.802  14.830  0.00  0.00    +0.000 C 
ATOM      8  N   UNL     1      48.323  10.170  14.809  0.00  0.00    +0.000 N 
ATOM      9  O   UNL     1      48.689   8.149  15.744  0.00  0.00    +0.000 OA
ATOM     10  H   UNL     1      47.936  10.710  14.046  0.00  0.00    +0.000 HD
ATOM     11  H   UNL     1      48.838  10.621  15.552  0.00  0.00    +0.000 HD
ENDBRANCH   4   7
BRANCH   1  12
ATOM     12  O   UNL     1      45.383   6.323  10.696  0.00  0.00    +0.000 OA
BRANCH  12  14
ATOM     13  C   UNL     1      45.000   4.357  12.193  0.00  0.00    +0.000 C 
ATOM     14  C   UNL     1      44.533   5.180  10.970  0.00  0.00    +0.000 C 
ATOM     15  C   UNL     1      43.078   5.650  11.161  0.00  0.00    +0.000 C 
BRANCH  14  16
ATOM     16  C   UNL     1      44.617   4.237   9.694  0.00  0.00    +0.000 C 
ATOM     17  C   UNL     1      44.755   2.747  10.090  0.00  0.00    +0.000 C 
ATOM     18  C   UNL     1      44.946   1.814   8.896  0.00  0.00    +0.000 C 
ATOM     19  C   UNL     1      46.115   2.253   8.029  0.00  0.00    +0.000 C 
ATOM     20  C   UNL     1      45.900   3.676   7.542  0.00  0.00    +0.000 C 
ATOM     21  C   UNL     1      45.739   4.645   8.711  0.00  0.00    +0.000 C 
ENDBRANCH  14  16
ENDBRANCH  12  14
ENDBRANCH   1  12
TORSDOF 4
ENDMDL
MODEL 4
REMARK VINA RESULT:    -6.143      3.595      5.893
REMARK INTER + INTRA:          -7.776
REMARK INTER:                  -7.784
REMARK INTRA:                   0.008
REMARK UNBOUND:                -0.197
REMARK  Name = 
REMARK  6 active torsions:
REMARK  status: ('A' for Active; 'I' for Inactive)
REMARK    1  A    between atoms: C_1  and  C_2
REMARK    2  A    between atoms: C_2  and  C_3
REMARK    3  A    between atoms: C_2  and  O_4
REMARK    4  A    between atoms: C_2  and  C_14
REMARK    5  A    between atoms: O_4  and  C_5
REMARK    6  A    between atoms: C_8  and  C_9
REMARK                            x       y       z     vdW  Elec       q    Type
REMARK                         _______ _______ _______ _____ _____    ______ ____
ROOT
ATOM      1  C   UNL     1      45.581   4.570  13.099  0.00  0.00    +0.000 A 
ATOM      2  C   UNL     1      46.838   4.165  13.508  0.00  0.00    +0.000 A 
ATOM      3  N   UNL     1      47.856   5.004  13.815  0.00  0.00    +0.000 NA
ATOM      4  C   UNL     1      47.576   6.321  13.676  0.00  0.00    +0.000 A 
ATOM      5  N   UNL     1      46.415   6.831  13.238  0.00  0.00    +0.000 NA
ATOM      6  C   UNL     1      45.450   5.932  12.946  0.00  0.00    +0.000 A 
ENDROOT
BRANCH   4   7
ATOM      7  C   UNL     1      48.655   7.305  14.070  0.00  0.00    +0.000 C 
ATOM      8  N   UNL     1      48.297   8.632  14.037  0.00  0.00    +0.000 N 
ATOM      9  O   UNL     1      49.790   6.979  14.397  0.00  0.00    +0.000 OA
ATOM     10  H   UNL     1      47.367   8.906  13.748  0.00  0.00    +0.000 HD
ATOM     11  H   UNL     1      48.991   9.327  14.274  0.00  0.00    +0.000 HD
ENDBRANCH   4   7
BRANCH   1  12
ATOM     12  O   UNL     1      44.647   3.610  12.873  0.00  0.00    +0.000 OA
BRANCH  12  14
ATOM     13  C   UNL     1      43.073   2.234  11.500  0.00  0.00    +0.000 C 
ATOM     14  C   UNL     1      43.924   3.518  11.618  0.00  0.00    +0.000 C 
ATOM     15  C   UNL     1      43.041   4.768  11.437  0.00  0.00    +0.000 C 
BRANCH  14  16
ATOM     16  C   UNL     1      45.019   3.478  10.467  0.00  0.00    +0.000 C 
ATOM     17  C   UNL     1      44.992   4.764   9.605  0.00  0.00    +0.000 C 
ATOM     18  C   UNL     1      45.956   4.725   8.421  0.00  0.00    +0.000 C 
ATOM     19  C   UNL     1      45.728   3.492   7.560  0.00  0.00    +0.000 C 
ATOM     20  C   UNL     1      45.888   2.233   8.396  0.00  0.00    +0.000 C 
ATOM     21  C   UNL     1      44.915   2.221   9.573  0.00  0.00    +0.000 C 
ENDBRANCH  14  16
ENDBRANCH  12  14
ENDBRANCH   1  12
TORSDOF 4
ENDMDL
MODEL 5
REMARK VINA RESULT:    -5.695      4.076      6.372
REMARK INTER + INTRA:          -7.224
REMARK INTER:                  -7.707
REMARK INTRA:                   0.483
REMARK UNBOUND:                -0.197
REMARK  Name = 
REMARK  6 active torsions:
REMARK  status: ('A' for Active; 'I' for Inactive)
REMARK    1  A    between atoms: C_1  and  C_2
REMARK    2  A    between atoms: C_2  and  C_3
REMARK    3  A    between atoms: C_2  and  O_4
REMARK    4  A    between atoms: C_2  and  C_14
REMARK    5  A    between atoms: O_4  and  C_5
REMARK    6  A    between atoms: C_8  and  C_9
REMARK                            x       y       z     vdW  Elec       q    Type
REMARK                         _______ _______ _______ _____ _____    ______ ____
ROOT
ATOM      1  C   UNL     1      46.354   4.928  12.984  0.00  0.00    +0.000 A 
ATOM      2  C   UNL     1      46.633   4.553  14.285  0.00  0.00    +0.000 A 
ATOM      3  N   UNL     1      47.511   5.189  15.098  0.00  0.00    +0.000 NA
ATOM      4  C   UNL     1      48.147   6.246  14.542  0.00  0.00    +0.000 A 
ATOM      5  N   UNL     1      47.999   6.670  13.278  0.00  0.00    +0.000 NA
ATOM      6  C   UNL     1      47.111   5.983  12.527  0.00  0.00    +0.000 A 
ENDROOT
BRANCH   4   7
ATOM      7  C   UNL     1      49.088   7.034  15.427  0.00  0.00    +0.000 C 
ATOM      8  N   UNL     1      48.621   7.326  16.686  0.00  0.00    +0.000 N 
ATOM      9  O   UNL     1      50.200   7.411  15.076  0.00  0.00    +0.000 OA
ATOM     10  H   UNL     1      47.696   7.034  16.972  0.00  0.00    +0.000 HD
ATOM     11  H   UNL     1      49.208   7.867  17.307  0.00  0.00    +0.000 HD
ENDBRANCH   4   7
BRANCH   1  12
ATOM     12  O   UNL     1      45.412   4.220  12.308  0.00  0.00    +0.000 OA
BRANCH  12  14
ATOM     13  C   UNL     1      42.976   4.715  12.036  0.00  0.00    +0.000 C 
ATOM     14  C   UNL     1      44.410   4.865  11.480  0.00  0.00    +0.000 C 
ATOM     15  C   UNL     1      44.765   6.354  11.303  0.00  0.00    +0.000 C 
BRANCH  14  16
ATOM     16  C   UNL     1      44.457   4.143  10.066  0.00  0.00    +0.000 C 
ATOM     17  C   UNL     1      44.616   2.609  10.210  0.00  0.00    +0.000 C 
ATOM     18  C   UNL     1      44.772   1.884   8.876  0.00  0.00    +0.000 C 
ATOM     19  C   UNL     1      45.911   2.470   8.055  0.00  0.00    +0.000 C 
ATOM     20  C   UNL     1      45.673   3.951   7.812  0.00  0.00    +0.000 C 
ATOM     21  C   UNL     1      45.544   4.716   9.127  0.00  0.00    +0.000 C 
ENDBRANCH  14  16
ENDBRANCH  12  14
ENDBRANCH   1  12
TORSDOF 4
ENDMDL
MODEL 6
REMARK VINA RESULT:    -5.486      3.272      5.412
REMARK INTER + INTRA:          -6.966
REMARK INTER:                  -6.672
REMARK INTRA:                  -0.294
REMARK UNBOUND:                -0.197
REMARK  Name = 
REMARK  6 active torsions:
REMARK  status: ('A' for Active; 'I' for Inactive)
REMARK    1  A    between atoms: C_1  and  C_2
REMARK    2  A    between atoms: C_2  and  C_3
REMARK    3  A    between atoms: C_2  and  O_4
REMARK    4  A    between atoms: C_2  and  C_14
REMARK    5  A    between atoms: O_4  and  C_5
REMARK    6  A    between atoms: C_8  and  C_9
REMARK                            x       y       z     vdW  Elec       q    Type
REMARK                         _______ _______ _______ _____ _____    ______ ____
ROOT
ATOM      1  C   UNL     1      45.349   6.463  12.639  0.00  0.00    +0.000 A 
ATOM      2  C   UNL     1      44.780   6.341  11.385  0.00  0.00    +0.000 A 
ATOM      3  N   UNL     1      44.302   5.184  10.866  0.00  0.00    +0.000 NA
ATOM      4  C   UNL     1      44.435   4.098  11.663  0.00  0.00    +0.000 A 
ATOM      5  N   UNL     1      45.016   4.084  12.872  0.00  0.00    +0.000 NA
ATOM      6  C   UNL     1      45.472   5.273  13.320  0.00  0.00    +0.000 A 
ENDROOT
BRANCH   4   7
ATOM      7  C   UNL     1      43.858   2.794  11.160  0.00  0.00    +0.000 C 
ATOM      8  N   UNL     1      44.462   2.262  10.046  0.00  0.00    +0.000 N 
ATOM      9  O   UNL     1      42.908   2.221  11.682  0.00  0.00    +0.000 OA
ATOM     10  H   UNL     1      45.233   2.742   9.601  0.00  0.00    +0.000 HD
ATOM     11  H   UNL     1      44.098   1.401   9.662  0.00  0.00    +0.000 HD
ENDBRANCH   4   7
BRANCH   1  12
ATOM     12  O   UNL     1      45.739   7.701  13.041  0.00  0.00    +0.000 OA
BRANCH  12  14
ATOM     13  C   UNL     1      47.853   7.359  11.749  0.00  0.00    +0.000 C 
ATOM     14  C   UNL     1      47.065   8.220  12.762  0.00  0.00    +0.000 C 
ATOM     15  C   UNL     1      46.957   9.674  12.263  0.00  0.00    +0.000 C 
BRANCH  14  16
ATOM     16  C   UNL     1      47.859   8.196  14.137  0.00  0.00    +0.000 C 
ATOM     17  C   UNL     1      48.529   9.559  14.437  0.00  0.00    +0.000 C 
ATOM     18  C   UNL     1      49.392   9.551  15.697  0.00  0.00    +0.000 C 
ATOM     19  C   UNL     1      50.427   8.437  15.654  0.00  0.00    +0.000 C 
ATOM     20  C   UNL     1      49.743   7.091  15.489  0.00  0.00    +0.000 C 
ATOM     21  C   UNL     1      48.896   7.051  14.219  0.00  0.00    +0.000 C 
ENDBRANCH  14  16
ENDBRANCH  12  14
ENDBRANCH   1  12
TORSDOF 4
ENDMDL
MODEL 7
REMARK VINA RESULT:    -5.485      3.209      5.305
REMARK INTER + INTRA:          -6.964
REMARK INTER:                  -6.866
REMARK INTRA:                  -0.099
REMARK UNBOUND:                -0.197
REMARK  Name = 
REMARK  6 active torsions:
REMARK  status: ('A' for Active; 'I' for Inactive)
REMARK    1  A    between atoms: C_1  and  C_2
REMARK    2  A    between atoms: C_2  and  C_3
REMARK    3  A    between atoms: C_2  and  O_4
REMARK    4  A    between atoms: C_2  and  C_14
REMARK    5  A    between atoms: O_4  and  C_5
REMARK    6  A    between atoms: C_8  and  C_9
REMARK                            x       y       z     vdW  Elec       q    Type
REMARK                         _______ _______ _______ _____ _____    ______ ____
ROOT
ATOM      1  C   UNL     1      45.750   6.450  12.438  0.00  0.00    +0.000 A 
ATOM      2  C   UNL     1      45.786   6.078  11.107  0.00  0.00    +0.000 A 
ATOM      3  N   UNL     1      45.248   4.937  10.611  0.00  0.00    +0.000 NA
ATOM      4  C   UNL     1      44.664   4.131  11.529  0.00  0.00    +0.000 A 
ATOM      5  N   UNL     1      44.615   4.360  12.850  0.00  0.00    +0.000 NA
ATOM      6  C   UNL     1      45.177   5.514  13.270  0.00  0.00    +0.000 A 
ENDROOT
BRANCH   4   7
ATOM      7  C   UNL     1      43.989   2.877  11.021  0.00  0.00    +0.000 C 
ATOM      8  N   UNL     1      44.564   2.292   9.917  0.00  0.00    +0.000 N 
ATOM      9  O   UNL     1      42.988   2.387  11.530  0.00  0.00    +0.000 OA
ATOM     10  H   UNL     1      45.378   2.705   9.483  0.00  0.00    +0.000 HD
ATOM     11  H   UNL     1      44.136   1.463   9.531  0.00  0.00    +0.000 HD
ENDBRANCH   4   7
BRANCH   1  12
ATOM     12  O   UNL     1      46.291   7.649  12.777  0.00  0.00    +0.000 OA
BRANCH  12  14
ATOM     13  C   UNL     1      47.735   8.821  14.450  0.00  0.00    +0.000 C 
ATOM     14  C   UNL     1      47.629   7.763  13.328  0.00  0.00    +0.000 C 
ATOM     15  C   UNL     1      48.096   6.386  13.841  0.00  0.00    +0.000 C 
BRANCH  14  16
ATOM     16  C   UNL     1      48.572   8.226  12.137  0.00  0.00    +0.000 C 
ATOM     17  C   UNL     1      49.882   7.404  12.090  0.00  0.00    +0.000 C 
ATOM     18  C   UNL     1      50.866   7.884  11.025  0.00  0.00    +0.000 C 
ATOM     19  C   UNL     1      51.165   9.369  11.175  0.00  0.00    +0.000 C 
ATOM     20  C   UNL     1      49.879  10.172  11.089  0.00  0.00    +0.000 C 
ATOM     21  C   UNL     1      48.881   9.741  12.161  0.00  0.00    +0.000 C 
ENDBRANCH  14  16
ENDBRANCH  12  14
ENDBRANCH   1  12
TORSDOF 4
ENDMDL
MODEL 8
REMARK VINA RESULT:    -5.191      4.613      6.620
REMARK INTER + INTRA:          -6.602
REMARK INTER:                  -6.390
REMARK INTRA:                  -0.212
REMARK UNBOUND:                -0.197
REMARK  Name = 
REMARK  6 active torsions:
REMARK  status: ('A' for Active; 'I' for Inactive)
REMARK    1  A    between atoms: C_1  and  C_2
REMARK    2  A    between atoms: C_2  and  C_3
REMARK    3  A    between atoms: C_2  and  O_4
REMARK    4  A    between atoms: C_2  and  C_14
REMARK    5  A    between atoms: O_4  and  C_5
REMARK    6  A    between atoms: C_8  and  C_9
REMARK                            x       y       z     vdW  Elec       q    Type
REMARK                         _______ _______ _______ _____ _____    ______ ____
ROOT
ATOM      1  C   UNL     1      47.073   4.541  14.203  0.00  0.00    +0.000 A 
ATOM      2  C   UNL     1      46.361   5.649  13.783  0.00  0.00    +0.000 A 
ATOM      3  N   UNL     1      45.324   5.614  12.912  0.00  0.00    +0.000 NA
ATOM      4  C   UNL     1      45.018   4.386  12.432  0.00  0.00    +0.000 A 
ATOM      5  N   UNL     1      45.669   3.249  12.723  0.00  0.00    +0.000 NA
ATOM      6  C   UNL     1      46.694   3.365  13.595  0.00  0.00    +0.000 A 
ENDROOT
BRANCH   4   7
ATOM      7  C   UNL     1      43.826   4.279  11.507  0.00  0.00    +0.000 C 
ATOM      8  N   UNL     1      43.712   5.270  10.561  0.00  0.00    +0.000 N 
ATOM      9  O   UNL     1      42.990   3.386  11.572  0.00  0.00    +0.000 OA
ATOM     10  H   UNL     1      44.390   6.020  10.518  0.00  0.00    +0.000 HD
ATOM     11  H   UNL     1      42.921   5.251   9.933  0.00  0.00    +0.000 HD
ENDBRANCH   4   7
BRANCH   1  12
ATOM     12  O   UNL     1      48.058   4.728  15.120  0.00  0.00    +0.000 OA
BRANCH  12  14
ATOM     13  C   UNL     1      46.710   4.144  17.143  0.00  0.00    +0.000 C 
ATOM     14  C   UNL     1      48.060   4.044  16.399  0.00  0.00    +0.000 C 
ATOM     15  C   UNL     1      48.454   2.568  16.195  0.00  0.00    +0.000 C 
BRANCH  14  16
ATOM     16  C   UNL     1      49.160   4.760  17.294  0.00  0.00    +0.000 C 
ATOM     17  C   UNL     1      50.332   3.808  17.634  0.00  0.00    +0.000 C 
ATOM     18  C   UNL     1      51.361   4.422  18.581  0.00  0.00    +0.000 C 
ATOM     19  C   UNL     1      50.706   4.947  19.849  0.00  0.00    +0.000 C 
ATOM     20  C   UNL     1      49.645   5.978  19.502  0.00  0.00    +0.000 C 
ATOM     21  C   UNL     1      48.579   5.389  18.582  0.00  0.00    +0.000 C 
ENDBRANCH  14  16
ENDBRANCH  12  14
ENDBRANCH   1  12
TORSDOF 4
ENDMDL
MODEL 9
REMARK VINA RESULT:    -5.163      4.448      6.959
REMARK INTER + INTRA:          -6.568
REMARK INTER:                  -6.356
REMARK INTRA:                  -0.212
REMARK UNBOUND:                -0.197
REMARK  Name = 
REMARK  6 active torsions:
REMARK  status: ('A' for Active; 'I' for Inactive)
REMARK    1  A    between atoms: C_1  and  C_2
REMARK    2  A    between atoms: C_2  and  C_3
REMARK    3  A    between atoms: C_2  and  O_4
REMARK    4  A    between atoms: C_2  and  C_14
REMARK    5  A    between atoms: O_4  and  C_5
REMARK    6  A    between atoms: C_8  and  C_9
REMARK                            x       y       z     vdW  Elec       q    Type
REMARK                         _______ _______ _______ _____ _____    ______ ____
ROOT
ATOM      1  C   UNL     1      47.722   5.965  13.382  0.00  0.00    +0.000 A 
ATOM      2  C   UNL     1      46.817   6.456  12.460  0.00  0.00    +0.000 A 
ATOM      3  N   UNL     1      45.536   6.032  12.336  0.00  0.00    +0.000 NA
ATOM      4  C   UNL     1      45.174   5.041  13.184  0.00  0.00    +0.000 A 
ATOM      5  N   UNL     1      45.977   4.450  14.082  0.00  0.00    +0.000 NA
ATOM      6  C   UNL     1      47.240   4.923  14.144  0.00  0.00    +0.000 A 
ENDROOT
BRANCH   4   7
ATOM      7  C   UNL     1      43.736   4.575  13.134  0.00  0.00    +0.000 C 
ATOM      8  N   UNL     1      42.790   5.565  13.012  0.00  0.00    +0.000 N 
ATOM      9  O   UNL     1      43.396   3.400  13.203  0.00  0.00    +0.000 OA
ATOM     10  H   UNL     1      43.066   6.537  12.975  0.00  0.00    +0.000 HD
ATOM     11  H   UNL     1      41.814   5.303  12.993  0.00  0.00    +0.000 HD
ENDBRANCH   4   7
BRANCH   1  12
ATOM     12  O   UNL     1      48.958   6.525  13.419  0.00  0.00    +0.000 OA
BRANCH  12  14
ATOM     13  C   UNL     1      50.640   8.254  14.082  0.00  0.00    +0.000 C 
ATOM     14  C   UNL     1      49.330   7.508  14.420  0.00  0.00    +0.000 C 
ATOM     15  C   UNL     1      48.175   8.509  14.616  0.00  0.00    +0.000 C 
BRANCH  14  16
ATOM     16  C   UNL     1      49.566   6.708  15.773  0.00  0.00    +0.000 C 
ATOM     17  C   UNL     1      48.672   7.242  16.919  0.00  0.00    +0.000 C 
ATOM     18  C   UNL     1      48.941   6.573  18.265  0.00  0.00    +0.000 C 
ATOM     19  C   UNL     1      50.413   6.658  18.642  0.00  0.00    +0.000 C 
ATOM     20  C   UNL     1      51.267   6.011  17.565  0.00  0.00    +0.000 C 
ATOM     21  C   UNL     1      51.049   6.677  16.209  0.00  0.00    +0.000 C 
ENDBRANCH  14  16
ENDBRANCH  12  14
ENDBRANCH   1  12
TORSDOF 4
ENDMDL
