MODEL 1
REMARK VINA RESULT:    -9.523      0.000      0.000
REMARK INTER + INTRA:         -12.588
REMARK INTER:                 -11.749
REMARK INTRA:                  -0.839
REMARK UNBOUND:                -0.839
REMARK  Name = 
REMARK  4 active torsions:
REMARK  status: ('A' for Active; 'I' for Inactive)
REMARK    1  A    between atoms: C_2  and  C_4
REMARK    2  A    between atoms: N_8  and  C_9
REMARK    3  A    between atoms: C_9  and  C_10
REMARK    4  A    between atoms: C_14  and  C_15
REMARK                            x       y       z     vdW  Elec       q    Type
REMARK                         _______ _______ _______ _____ _____    ______ ____
ROOT
ATOM      1  C   UNL     1      43.928   4.781  11.545  0.00  0.00    +0.000 C 
ATOM      2  C   UNL     1      42.703   4.903  12.444  0.00  0.00    +0.000 C 
ATOM      3  C   UNL     1      42.931   5.908  11.366  0.00  0.00    +0.000 C 
ENDROOT
BRANCH   1   8
ATOM      4  C   UNL     1      46.457   2.733   7.495  0.00  0.00    +0.000 A 
ATOM      5  C   UNL     1      46.027   4.046   7.672  0.00  0.00    +0.000 A 
ATOM      6  C   UNL     1      45.213   4.356   8.763  0.00  0.00    +0.000 A 
ATOM      7  C   UNL     1      44.836   3.353   9.648  0.00  0.00    +0.000 A 
ATOM      8  N   UNL     1      43.942   3.567  10.705  0.00  0.00    +0.000 N 
ATOM      9  N   UNL     1      45.237   2.075   9.481  0.00  0.00    +0.000 NA
ATOM     10  C   UNL     1      46.030   1.789   8.415  0.00  0.00    +0.000 A 
ATOM     11  H   UNL     1      43.918   2.684  11.214  0.00  0.00    +0.000 HD
BRANCH   4  13
ATOM     12  N   UNL     1      47.194   3.028   5.200  0.00  0.00    +0.000 N 
ATOM     13  C   UNL     1      47.299   2.313   6.359  0.00  0.00    +0.000 C 
ATOM     14  O   UNL     1      48.085   1.376   6.455  0.00  0.00    +0.000 OA
ATOM     15  H   UNL     1      47.842   2.791   4.459  0.00  0.00    +0.000 HD
ATOM     16  H   UNL     1      46.756   3.940   5.161  0.00  0.00    +0.000 HD
ENDBRANCH   4  13
ENDBRANCH   1   8
BRANCH   1  17
ATOM     17  C   UNL     1      45.301   5.115  12.125  0.00  0.00    +0.000 A 
ATOM     18  C   UNL     1      46.052   6.205  11.654  0.00  0.00    +0.000 A 
ATOM     19  C   UNL     1      47.251   6.576  12.259  0.00  0.00    +0.000 A 
ATOM     20  C   UNL     1      47.707   5.886  13.381  0.00  0.00    +0.000 A 
ATOM     21  C   UNL     1      46.982   4.806  13.912  0.00  0.00    +0.000 A 
ATOM     22  C   UNL     1      45.812   4.410  13.234  0.00  0.00    +0.000 A 
BRANCH  21  23
ATOM     23  C   UNL     1      47.364   4.168  15.188  0.00  0.00    +0.000 A 
ATOM     24  C   UNL     1      47.131   4.785  16.406  0.00  0.00    +0.000 A 
ATOM     25  C   UNL     1      47.453   4.068  17.536  0.00  0.00    +0.000 A 
ATOM     26  N   UNL     1      47.982   2.837  17.504  0.00  0.00    +0.000 NA
ATOM     27  C   UNL     1      48.173   2.324  16.281  0.00  0.00    +0.000 A 
ATOM     28  N   UNL     1      47.883   2.921  15.113  0.00  0.00    +0.000 NA
ENDBRANCH  21  23
ENDBRANCH   1  17
TORSDOF 4
ENDMDL
MODEL 2
REMARK VINA RESULT:    -9.017      2.458      3.698
REMARK INTER + INTRA:         -11.964
REMARK INTER:                 -10.870
REMARK INTRA:                  -1.094
REMARK UNBOUND:                -0.839
REMARK  Name = 
REMARK  4 active torsions:
REMARK  status: ('A' for Active; 'I' for Inactive)
REMARK    1  A    between atoms: C_2  and  C_4
REMARK    2  A    between atoms: N_8  and  C_9
REMARK    3  A    between atoms: C_9  and  C_10
REMARK    4  A    between atoms: C_14  and  C_15
REMARK                            x       y       z     vdW  Elec       q    Type
REMARK                         _______ _______ _______ _____ _____    ______ ____
ROOT
ATOM      1  C   UNL     1      43.726   5.130  11.354  0.00  0.00    +0.000 C 
ATOM      2  C   UNL     1      42.403   5.517  12.006  0.00  0.00    +0.000 C 
ATOM      3  C   UNL     1      43.006   6.408  10.973  0.00  0.00    +0.000 C 
ENDROOT
BRANCH   1   8
ATOM      4  C   UNL     1      46.440   2.536   7.763  0.00  0.00    +0.000 A 
ATOM      5  C   UNL     1      46.204   3.906   7.846  0.00  0.00    +0.000 A 
ATOM      6  C   UNL     1      45.305   4.386   8.800  0.00  0.00    +0.000 A 
ATOM      7  C   UNL     1      44.652   3.495   9.642  0.00  0.00    +0.000 A 
ATOM      8  N   UNL     1      43.665   3.892  10.553  0.00  0.00    +0.000 N 
ATOM      9  N   UNL     1      44.865   2.164   9.565  0.00  0.00    +0.000 NA
ATOM     10  C   UNL     1      45.743   1.712   8.632  0.00  0.00    +0.000 A 
ATOM     11  H   UNL     1      43.429   3.047  11.073  0.00  0.00    +0.000 HD
BRANCH   4  13
ATOM     12  N   UNL     1      48.447   2.673   6.403  0.00  0.00    +0.000 N 
ATOM     13  C   UNL     1      47.355   1.940   6.772  0.00  0.00    +0.000 C 
ATOM     14  O   UNL     1      47.163   0.818   6.314  0.00  0.00    +0.000 OA
ATOM     15  H   UNL     1      49.117   2.217   5.796  0.00  0.00    +0.000 HD
ATOM     16  H   UNL     1      48.769   3.474   6.933  0.00  0.00    +0.000 HD
ENDBRANCH   4  13
ENDBRANCH   1   8
BRANCH   1  17
ATOM     17  C   UNL     1      45.010   5.242  12.174  0.00  0.00    +0.000 A 
ATOM     18  C   UNL     1      45.448   4.194  13.001  0.00  0.00    +0.000 A 
ATOM     19  C   UNL     1      46.674   4.252  13.659  0.00  0.00    +0.000 A 
ATOM     20  C   UNL     1      47.513   5.349  13.470  0.00  0.00    +0.000 A 
ATOM     21  C   UNL     1      47.139   6.412  12.632  0.00  0.00    +0.000 A 
ATOM     22  C   UNL     1      45.863   6.357  12.039  0.00  0.00    +0.000 A 
BRANCH  21  23
ATOM     23  C   UNL     1      48.078   7.502  12.296  0.00  0.00    +0.000 A 
ATOM     24  C   UNL     1      49.429   7.260  12.098  0.00  0.00    +0.000 A 
ATOM     25  C   UNL     1      50.199   8.333  11.710  0.00  0.00    +0.000 A 
ATOM     26  N   UNL     1      49.712   9.568  11.535  0.00  0.00    +0.000 NA
ATOM     27  C   UNL     1      48.396   9.704  11.752  0.00  0.00    +0.000 A 
ATOM     28  N   UNL     1      47.545   8.731  12.116  0.00  0.00    +0.000 NA
ENDBRANCH  21  23
ENDBRANCH   1  17
TORSDOF 4
ENDMDL
MODEL 3
REMARK VINA RESULT:    -6.781      3.839      8.333
REMARK INTER + INTRA:          -9.205
REMARK INTER:                  -8.261
REMARK INTRA:                  -0.944
REMARK UNBOUND:                -0.839
REMARK  Name = 
REMARK  4 active torsions:
REMARK  status: ('A' for Active; 'I' for Inactive)
REMARK    1  A    between atoms: C_2  and  C_4
REMARK    2  A    between atoms: N_8  and  C_9
REMARK    3  A    between atoms: C_9  and  C_10
REMARK    4  A    between atoms: C_14  and  C_15
REMARK                            x       y       z     vdW  Elec       q    Type
REMARK                         _______ _______ _______ _____ _____    ______ ____
ROOT
ATOM      1  C   UNL     1      48.910   7.915  12.568  0.00  0.00    +0.000 C 
ATOM      2  C   UNL     1      49.884   8.187  11.427  0.00  0.00    +0.000 C 
ATOM      3  C   UNL     1      49.502   9.293  12.351  0.00  0.00    +0.000 C 
ENDROOT
BRANCH   1   8
ATOM      4  C   UNL     1      48.443   6.806  17.621  0.00  0.00    +0.000 A 
ATOM      5  C   UNL     1      48.546   8.055  17.017  0.00  0.00    +0.000 A 
ATOM      6  C   UNL     1      48.835   8.132  15.653  0.00  0.00    +0.000 A 
ATOM      7  C   UNL     1      49.024   6.965  14.923  0.00  0.00    +0.000 A 
ATOM      8  N   UNL     1      49.415   6.963  13.577  0.00  0.00    +0.000 N 
ATOM      9  N   UNL     1      48.937   5.747  15.500  0.00  0.00    +0.000 NA
ATOM     10  C   UNL     1      48.655   5.690  16.828  0.00  0.00    +0.000 A 
ATOM     11  H   UNL     1      49.399   5.982  13.299  0.00  0.00    +0.000 HD
BRANCH   4  13
ATOM     12  N   UNL     1      47.253   5.680  19.414  0.00  0.00    +0.000 N 
ATOM     13  C   UNL     1      48.165   6.633  19.060  0.00  0.00    +0.000 C 
ATOM     14  O   UNL     1      48.748   7.297  19.911  0.00  0.00    +0.000 OA
ATOM     15  H   UNL     1      47.139   5.505  20.405  0.00  0.00    +0.000 HD
ATOM     16  H   UNL     1      46.946   4.956  18.775  0.00  0.00    +0.000 HD
ENDBRANCH   4  13
ENDBRANCH   1   8
BRANCH   1  17
ATOM     17  C   UNL     1      47.434   7.702  12.239  0.00  0.00    +0.000 A 
ATOM     18  C   UNL     1      46.489   8.729  12.400  0.00  0.00    +0.000 A 
ATOM     19  C   UNL     1      45.166   8.569  11.995  0.00  0.00    +0.000 A 
ATOM     20  C   UNL     1      44.766   7.386  11.377  0.00  0.00    +0.000 A 
ATOM     21  C   UNL     1      45.675   6.336  11.164  0.00  0.00    +0.000 A 
ATOM     22  C   UNL     1      46.987   6.501  11.651  0.00  0.00    +0.000 A 
BRANCH  21  23
ATOM     23  C   UNL     1      45.311   5.143  10.372  0.00  0.00    +0.000 A 
ATOM     24  C   UNL     1      44.559   4.114  10.915  0.00  0.00    +0.000 A 
ATOM     25  C   UNL     1      44.209   3.088  10.067  0.00  0.00    +0.000 A 
ATOM     26  N   UNL     1      44.568   3.040   8.777  0.00  0.00    +0.000 NA
ATOM     27  C   UNL     1      45.296   4.079   8.343  0.00  0.00    +0.000 A 
ATOM     28  N   UNL     1      45.682   5.139   9.071  0.00  0.00    +0.000 NA
ENDBRANCH  21  23
ENDBRANCH   1  17
TORSDOF 4
ENDMDL
MODEL 4
REMARK VINA RESULT:    -6.532      2.884      4.609
REMARK INTER + INTRA:          -8.898
REMARK INTER:                  -8.512
REMARK INTRA:                  -0.386
REMARK UNBOUND:                -0.839
REMARK  Name = 
REMARK  4 active torsions:
REMARK  status: ('A' for Active; 'I' for Inactive)
REMARK    1  A    between atoms: C_2  and  C_4
REMARK    2  A    between atoms: N_8  and  C_9
REMARK    3  A    between atoms: C_9  and  C_10
REMARK    4  A    between atoms: C_14  and  C_15
REMARK                            x       y       z     vdW  Elec       q    Type
REMARK                         _______ _______ _______ _____ _____    ______ ____
ROOT
ATOM      1  C   UNL     1      47.467   8.357  13.119  0.00  0.00    +0.000 C 
ATOM      2  C   UNL     1      47.763   9.665  12.393  0.00  0.00    +0.000 C 
ATOM      3  C   UNL     1      48.378   8.395  11.908  0.00  0.00    +0.000 C 
ENDROOT
BRANCH   1   8
ATOM      4  C   UNL     1      44.492   4.511  11.290  0.00  0.00    +0.000 A 
ATOM      5  C   UNL     1      45.568   5.141  10.670  0.00  0.00    +0.000 A 
ATOM      6  C   UNL     1      46.131   6.272  11.265  0.00  0.00    +0.000 A 
ATOM      7  C   UNL     1      45.607   6.757  12.457  0.00  0.00    +0.000 A 
ATOM      8  N   UNL     1      46.053   7.940  13.059  0.00  0.00    +0.000 N 
ATOM      9  N   UNL     1      44.558   6.160  13.062  0.00  0.00    +0.000 NA
ATOM     10  C   UNL     1      44.020   5.061  12.471  0.00  0.00    +0.000 A 
ATOM     11  H   UNL     1      45.544   7.996  13.942  0.00  0.00    +0.000 HD
BRANCH   4  13
ATOM     12  N   UNL     1      44.144   2.977   9.439  0.00  0.00    +0.000 N 
ATOM     13  C   UNL     1      43.822   3.327  10.720  0.00  0.00    +0.000 C 
ATOM     14  O   UNL     1      43.027   2.662  11.377  0.00  0.00    +0.000 OA
ATOM     15  H   UNL     1      43.750   2.111   9.092  0.00  0.00    +0.000 HD
ATOM     16  H   UNL     1      44.962   3.340   8.966  0.00  0.00    +0.000 HD
ENDBRANCH   4  13
ENDBRANCH   1   8
BRANCH   1  17
ATOM     17  C   UNL     1      48.097   8.118  14.490  0.00  0.00    +0.000 A 
ATOM     18  C   UNL     1      48.251   9.161  15.419  0.00  0.00    +0.000 A 
ATOM     19  C   UNL     1      48.722   8.920  16.708  0.00  0.00    +0.000 A 
ATOM     20  C   UNL     1      49.011   7.617  17.112  0.00  0.00    +0.000 A 
ATOM     21  C   UNL     1      48.848   6.534  16.233  0.00  0.00    +0.000 A 
ATOM     22  C   UNL     1      48.441   6.819  14.915  0.00  0.00    +0.000 A 
BRANCH  21  23
ATOM     23  C   UNL     1      48.995   5.136  16.689  0.00  0.00    +0.000 A 
ATOM     24  C   UNL     1      47.936   4.244  16.647  0.00  0.00    +0.000 A 
ATOM     25  C   UNL     1      48.204   2.946  17.020  0.00  0.00    +0.000 A 
ATOM     26  N   UNL     1      49.410   2.528  17.425  0.00  0.00    +0.000 NA
ATOM     27  C   UNL     1      50.370   3.463  17.435  0.00  0.00    +0.000 A 
ATOM     28  N   UNL     1      50.232   4.750  17.078  0.00  0.00    +0.000 NA
ENDBRANCH  21  23
ENDBRANCH   1  17
TORSDOF 4
ENDMDL
MODEL 5
REMARK VINA RESULT:    -6.524      2.966      7.617
REMARK INTER + INTRA:          -8.888
REMARK INTER:                  -8.924
REMARK INTRA:                   0.036
REMARK UNBOUND:                -0.839
REMARK  Name = 
REMARK  4 active torsions:
REMARK  status: ('A' for Active; 'I' for Inactive)
REMARK    1  A    between atoms: C_2  and  C_4
REMARK    2  A    between atoms: N_8  and  C_9
REMARK    3  A    between atoms: C_9  and  C_10
REMARK    4  A    between atoms: C_14  and  C_15
REMARK                            x       y       z     vdW  Elec       q    Type
REMARK                         _______ _______ _______ _____ _____    ______ ____
ROOT
ATOM      1  C   UNL     1      48.569   7.731  12.761  0.00  0.00    +0.000 C 
ATOM      2  C   UNL     1      49.696   7.078  11.968  0.00  0.00    +0.000 C 
ATOM      3  C   UNL     1      49.478   8.550  11.867  0.00  0.00    +0.000 C 
ENDROOT
BRANCH   1   8
ATOM      4  C   UNL     1      48.010   4.354  16.669  0.00  0.00    +0.000 A 
ATOM      5  C   UNL     1      47.166   4.565  15.582  0.00  0.00    +0.000 A 
ATOM      6  C   UNL     1      47.411   5.642  14.728  0.00  0.00    +0.000 A 
ATOM      7  C   UNL     1      48.484   6.489  14.978  0.00  0.00    +0.000 A 
ATOM      8  N   UNL     1      48.732   7.645  14.225  0.00  0.00    +0.000 N 
ATOM      9  N   UNL     1      49.303   6.300  16.033  0.00  0.00    +0.000 NA
ATOM     10  C   UNL     1      49.052   5.248  16.856  0.00  0.00    +0.000 A 
ATOM     11  H   UNL     1      49.612   8.012  14.588  0.00  0.00    +0.000 HD
BRANCH   4  13
ATOM     12  N   UNL     1      48.784   3.062  18.574  0.00  0.00    +0.000 N 
ATOM     13  C   UNL     1      47.812   3.256  17.635  0.00  0.00    +0.000 C 
ATOM     14  O   UNL     1      46.801   2.560  17.616  0.00  0.00    +0.000 OA
ATOM     15  H   UNL     1      48.594   2.370  19.288  0.00  0.00    +0.000 HD
ATOM     16  H   UNL     1      49.492   3.757  18.776  0.00  0.00    +0.000 HD
ENDBRANCH   4  13
ENDBRANCH   1   8
BRANCH   1  17
ATOM     17  C   UNL     1      47.127   7.503  12.312  0.00  0.00    +0.000 A 
ATOM     18  C   UNL     1      46.155   8.512  12.421  0.00  0.00    +0.000 A 
ATOM     19  C   UNL     1      44.871   8.342  11.909  0.00  0.00    +0.000 A 
ATOM     20  C   UNL     1      44.541   7.167  11.234  0.00  0.00    +0.000 A 
ATOM     21  C   UNL     1      45.482   6.137  11.070  0.00  0.00    +0.000 A 
ATOM     22  C   UNL     1      46.748   6.310  11.663  0.00  0.00    +0.000 A 
BRANCH  21  23
ATOM     23  C   UNL     1      45.202   4.959  10.224  0.00  0.00    +0.000 A 
ATOM     24  C   UNL     1      45.692   4.861   8.931  0.00  0.00    +0.000 A 
ATOM     25  C   UNL     1      45.439   3.686   8.261  0.00  0.00    +0.000 A 
ATOM     26  N   UNL     1      44.745   2.668   8.788  0.00  0.00    +0.000 NA
ATOM     27  C   UNL     1      44.310   2.857  10.042  0.00  0.00    +0.000 A 
ATOM     28  N   UNL     1      44.510   3.948  10.798  0.00  0.00    +0.000 NA
ENDBRANCH  21  23
ENDBRANCH   1  17
TORSDOF 4
ENDMDL
