MODEL 1
REMARK VINA RESULT:    -8.222      0.000      0.000
REMARK INTER + INTRA:         -12.024
REMARK INTER:                 -11.107
REMARK INTRA:                  -0.917
REMARK UNBOUND:                -0.917
REMARK  Name = 
REMARK  7 active torsions:
REMARK  status: ('A' for Active; 'I' for Inactive)
REMARK    1  A    between atoms: C_1  and  C_2
REMARK    2  A    between atoms: C_2  and  N_3
REMARK    3  A    between atoms: C_2  and  C_11
REMARK    4  A    between atoms: C_4  and  C_6
REMARK    5  A    between atoms: C_14  and  C_15
REMARK    6  A    between atoms: C_15  and  N_16
REMARK    7  A    between atoms: C_17  and  C_19
REMARK                            x       y       z     vdW  Elec       q    Type
REMARK                         _______ _______ _______ _____ _____    ______ ____
ROOT
ATOM      1  C   UNL     1      45.287   4.895  11.634  0.00  0.00    +0.000 A 
ATOM      2  C   UNL     1      45.536   6.173  11.106  0.00  0.00    +0.000 A 
ATOM      3  C   UNL     1      46.402   7.064  11.753  0.00  0.00    +0.000 A 
ATOM      4  C   UNL     1      47.052   6.692  12.935  0.00  0.00    +0.000 A 
ATOM      5  C   UNL     1      46.802   5.423  13.466  0.00  0.00    +0.000 A 
ATOM      6  C   UNL     1      45.942   4.530  12.818  0.00  0.00    +0.000 A 
ENDROOT
BRANCH   1   8
ATOM      7  C   UNL     1      43.418   3.154  11.811  0.00  0.00    +0.000 C 
ATOM      8  C   UNL     1      44.349   3.954  10.892  0.00  0.00    +0.000 C 
BRANCH   8   9
ATOM      9  N   UNL     1      45.124   3.062  10.043  0.00  0.00    +0.000 N 
ATOM     10  C   UNL     1      45.377   3.356   8.724  0.00  0.00    +0.000 C 
ATOM     11  O   UNL     1      45.010   4.402   8.198  0.00  0.00    +0.000 OA
ATOM     12  H   UNL     1      45.411   2.175  10.425  0.00  0.00    +0.000 HD
BRANCH  10  13
ATOM     13  C   UNL     1      46.100   2.351   7.988  0.00  0.00    +0.000 A 
ATOM     14  C   UNL     1      46.920   2.379   6.877  0.00  0.00    +0.000 A 
ATOM     15  C   UNL     1      47.316   1.042   6.677  0.00  0.00    +0.000 A 
ATOM     16  N   UNL     1      46.789   0.217   7.583  0.00  0.00    +0.000 NA
ATOM     17  N   UNL     1      46.055   1.031   8.360  0.00  0.00    +0.000 N 
ATOM     18  H   UNL     1      45.539   0.637   9.141  0.00  0.00    +0.000 HD
ENDBRANCH  10  13
ENDBRANCH   8   9
ENDBRANCH   1   8
BRANCH   4  19
ATOM     19  C   UNL     1      47.975   7.643  13.651  0.00  0.00    +0.000 C 
BRANCH  19  20
ATOM     20  N   UNL     1      47.875   7.493  15.081  0.00  0.00    +0.000 N 
ATOM     21  C   UNL     1      48.927   7.007  15.816  0.00  0.00    +0.000 C 
ATOM     22  O   UNL     1      50.005   6.723  15.300  0.00  0.00    +0.000 OA
ATOM     23  H   UNL     1      46.945   7.511  15.486  0.00  0.00    +0.000 HD
BRANCH  21  24
ATOM     24  C   UNL     1      48.721   6.899  17.266  0.00  0.00    +0.000 A 
ATOM     25  C   UNL     1      48.466   8.043  18.010  0.00  0.00    +0.000 A 
ATOM     26  S   UNL     1      48.212   7.743  19.668  0.00  0.00    +0.000 S 
ATOM     27  C   UNL     1      48.487   6.077  19.464  0.00  0.00    +0.000 A 
ATOM     28  N   UNL     1      48.451   5.227  20.525  0.00  0.00    +0.000 NA
ATOM     29  C   UNL     1      48.711   3.997  20.233  0.00  0.00    +0.000 A 
ATOM     30  N   UNL     1      48.994   3.538  18.973  0.00  0.00    +0.000 N 
ATOM     31  C   UNL     1      49.004   4.351  17.865  0.00  0.00    +0.000 A 
ATOM     32  O   UNL     1      49.209   3.898  16.744  0.00  0.00    +0.000 OA
ATOM     33  C   UNL     1      48.742   5.751  18.142  0.00  0.00    +0.000 A 
ATOM     34  H   UNL     1      49.177   2.559  18.809  0.00  0.00    +0.000 HD
ENDBRANCH  21  24
ENDBRANCH  19  20
ENDBRANCH   4  19
TORSDOF 6
ENDMDL
MODEL 2
REMARK VINA RESULT:    -8.105      1.334      2.192
REMARK INTER + INTRA:         -11.865
REMARK INTER:                 -10.785
REMARK INTRA:                  -1.080
REMARK UNBOUND:                -0.917
REMARK  Name = 
REMARK  7 active torsions:
REMARK  status: ('A' for Active; 'I' for Inactive)
REMARK    1  A    between atoms: C_1  and  C_2
REMARK    2  A    between atoms: C_2  and  N_3
REMARK    3  A    between atoms: C_2  and  C_11
REMARK    4  A    between atoms: C_4  and  C_6
REMARK    5  A    between atoms: C_14  and  C_15
REMARK    6  A    between atoms: C_15  and  N_16
REMARK    7  A    between atoms: C_17  and  C_19
REMARK                            x       y       z     vdW  Elec       q    Type
REMARK                         _______ _______ _______ _____ _____    ______ ____
ROOT
ATOM      1  C   UNL     1      45.289   4.845  11.618  0.00  0.00    +0.000 A 
ATOM      2  C   UNL     1      45.769   4.399  12.860  0.00  0.00    +0.000 A 
ATOM      3  C   UNL     1      46.639   5.188  13.624  0.00  0.00    +0.000 A 
ATOM      4  C   UNL     1      47.037   6.451  13.170  0.00  0.00    +0.000 A 
ATOM      5  C   UNL     1      46.566   6.897  11.931  0.00  0.00    +0.000 A 
ATOM      6  C   UNL     1      45.692   6.111  11.171  0.00  0.00    +0.000 A 
ENDROOT
BRANCH   1   8
ATOM      7  C   UNL     1      43.344   3.182  11.698  0.00  0.00    +0.000 C 
ATOM      8  C   UNL     1      44.336   3.961  10.827  0.00  0.00    +0.000 C 
BRANCH   8   9
ATOM      9  N   UNL     1      45.099   3.057   9.980  0.00  0.00    +0.000 N 
ATOM     10  C   UNL     1      45.430   3.383   8.686  0.00  0.00    +0.000 C 
ATOM     11  O   UNL     1      45.149   4.467   8.184  0.00  0.00    +0.000 OA
ATOM     12  H   UNL     1      45.317   2.142  10.341  0.00  0.00    +0.000 HD
BRANCH  10  13
ATOM     13  C   UNL     1      46.129   2.365   7.945  0.00  0.00    +0.000 A 
ATOM     14  C   UNL     1      46.938   2.376   6.825  0.00  0.00    +0.000 A 
ATOM     15  C   UNL     1      47.311   1.033   6.626  0.00  0.00    +0.000 A 
ATOM     16  N   UNL     1      46.782   0.219   7.540  0.00  0.00    +0.000 NA
ATOM     17  N   UNL     1      46.069   1.047   8.323  0.00  0.00    +0.000 N 
ATOM     18  H   UNL     1      45.556   0.664   9.111  0.00  0.00    +0.000 HD
ENDBRANCH  10  13
ENDBRANCH   8   9
ENDBRANCH   1   8
BRANCH   4  19
ATOM     19  C   UNL     1      47.982   7.306  13.972  0.00  0.00    +0.000 C 
BRANCH  19  20
ATOM     20  N   UNL     1      47.956   6.949  15.368  0.00  0.00    +0.000 N 
ATOM     21  C   UNL     1      49.099   6.563  16.021  0.00  0.00    +0.000 C 
ATOM     22  O   UNL     1      50.192   6.546  15.463  0.00  0.00    +0.000 OA
ATOM     23  H   UNL     1      47.049   6.747  15.778  0.00  0.00    +0.000 HD
BRANCH  21  24
ATOM     24  C   UNL     1      48.960   6.226  17.443  0.00  0.00    +0.000 A 
ATOM     25  C   UNL     1      49.356   4.973  17.893  0.00  0.00    +0.000 A 
ATOM     26  S   UNL     1      49.167   4.755  19.572  0.00  0.00    +0.000 S 
ATOM     27  C   UNL     1      48.498   6.308  19.754  0.00  0.00    +0.000 A 
ATOM     28  N   UNL     1      48.079   6.750  20.970  0.00  0.00    +0.000 NA
ATOM     29  C   UNL     1      47.560   7.933  20.958  0.00  0.00    +0.000 A 
ATOM     30  N   UNL     1      47.433   8.716  19.841  0.00  0.00    +0.000 N 
ATOM     31  C   UNL     1      47.876   8.328  18.599  0.00  0.00    +0.000 A 
ATOM     32  O   UNL     1      47.794   9.075  17.631  0.00  0.00    +0.000 OA
ATOM     33  C   UNL     1      48.445   6.994  18.553  0.00  0.00    +0.000 A 
ATOM     34  H   UNL     1      47.029   9.640  19.902  0.00  0.00    +0.000 HD
ENDBRANCH  21  24
ENDBRANCH  19  20
ENDBRANCH   4  19
TORSDOF 6
ENDMDL
MODEL 3
REMARK VINA RESULT:    -7.811      1.762      2.216
REMARK INTER + INTRA:         -11.469
REMARK INTER:                 -10.364
REMARK INTRA:                  -1.105
REMARK UNBOUND:                -0.917
REMARK  Name = 
REMARK  7 active torsions:
REMARK  status: ('A' for Active; 'I' for Inactive)
REMARK    1  A    between atoms: C_1  and  C_2
REMARK    2  A    between atoms: C_2  and  N_3
REMARK    3  A    between atoms: C_2  and  C_11
REMARK    4  A    between atoms: C_4  and  C_6
REMARK    5  A    between atoms: C_14  and  C_15
REMARK    6  A    between atoms: C_15  and  N_16
REMARK    7  A    between atoms: C_17  and  C_19
REMARK                            x       y       z     vdW  Elec       q    Type
REMARK                         _______ _______ _______ _____ _____    ______ ____
ROOT
ATOM      1  C   UNL     1      45.065   4.871  11.698  0.00  0.00    +0.000 A 
ATOM      2  C   UNL     1      45.894   4.484  12.764  0.00  0.00    +0.000 A 
ATOM      3  C   UNL     1      46.689   5.420  13.436  0.00  0.00    +0.000 A 
ATOM      4  C   UNL     1      46.663   6.770  13.069  0.00  0.00    +0.000 A 
ATOM      5  C   UNL     1      45.843   7.159  12.005  0.00  0.00    +0.000 A 
ATOM      6  C   UNL     1      45.044   6.226  11.337  0.00  0.00    +0.000 A 
ENDROOT
BRANCH   1   8
ATOM      7  C   UNL     1      43.382   2.960  11.964  0.00  0.00    +0.000 C 
ATOM      8  C   UNL     1      44.208   3.823  11.003  0.00  0.00    +0.000 C 
BRANCH   8   9
ATOM      9  N   UNL     1      45.047   2.991  10.155  0.00  0.00    +0.000 N 
ATOM     10  C   UNL     1      45.261   3.289   8.830  0.00  0.00    +0.000 C 
ATOM     11  O   UNL     1      44.801   4.295   8.297  0.00  0.00    +0.000 OA
ATOM     12  H   UNL     1      45.412   2.136  10.544  0.00  0.00    +0.000 HD
BRANCH  10  13
ATOM     13  C   UNL     1      46.059   2.341   8.097  0.00  0.00    +0.000 A 
ATOM     14  C   UNL     1      46.969   2.447   7.064  0.00  0.00    +0.000 A 
ATOM     15  C   UNL     1      47.402   1.130   6.816  0.00  0.00    +0.000 A 
ATOM     16  N   UNL     1      46.814   0.244   7.621  0.00  0.00    +0.000 NA
ATOM     17  N   UNL     1      46.005   1.000   8.382  0.00  0.00    +0.000 N 
ATOM     18  H   UNL     1      45.431   0.552   9.090  0.00  0.00    +0.000 HD
ENDBRANCH  10  13
ENDBRANCH   8   9
ENDBRANCH   1   8
BRANCH   4  19
ATOM     19  C   UNL     1      47.522   7.788  13.772  0.00  0.00    +0.000 C 
BRANCH  19  20
ATOM     20  N   UNL     1      48.664   7.167  14.395  0.00  0.00    +0.000 N 
ATOM     21  C   UNL     1      49.323   7.778  15.432  0.00  0.00    +0.000 C 
ATOM     22  O   UNL     1      48.948   8.850  15.899  0.00  0.00    +0.000 OA
ATOM     23  H   UNL     1      49.113   6.409  13.891  0.00  0.00    +0.000 HD
BRANCH  21  24
ATOM     24  C   UNL     1      50.471   7.056  15.997  0.00  0.00    +0.000 A 
ATOM     25  C   UNL     1      51.752   7.561  15.824  0.00  0.00    +0.000 A 
ATOM     26  S   UNL     1      52.965   6.628  16.573  0.00  0.00    +0.000 S 
ATOM     27  C   UNL     1      51.829   5.483  17.112  0.00  0.00    +0.000 A 
ATOM     28  N   UNL     1      52.221   4.383  17.807  0.00  0.00    +0.000 NA
ATOM     29  C   UNL     1      51.261   3.581  18.124  0.00  0.00    +0.000 A 
ATOM     30  N   UNL     1      49.941   3.786  17.817  0.00  0.00    +0.000 N 
ATOM     31  C   UNL     1      49.492   4.901  17.150  0.00  0.00    +0.000 A 
ATOM     32  O   UNL     1      48.298   5.079  16.938  0.00  0.00    +0.000 OA
ATOM     33  C   UNL     1      50.537   5.824  16.748  0.00  0.00    +0.000 A 
ATOM     34  H   UNL     1      49.235   3.125  18.106  0.00  0.00    +0.000 HD
ENDBRANCH  21  24
ENDBRANCH  19  20
ENDBRANCH   4  19
TORSDOF 6
ENDMDL
MODEL 4
REMARK VINA RESULT:    -7.535      4.693      9.286
REMARK INTER + INTRA:         -11.095
REMARK INTER:                 -10.190
REMARK INTRA:                  -0.905
REMARK UNBOUND:                -0.917
REMARK  Name = 
REMARK  7 active torsions:
REMARK  status: ('A' for Active; 'I' for Inactive)
REMARK    1  A    between atoms: C_1  and  C_2
REMARK    2  A    between atoms: C_2  and  N_3
REMARK    3  A    between atoms: C_2  and  C_11
REMARK    4  A    between atoms: C_4  and  C_6
REMARK    5  A    between atoms: C_14  and  C_15
REMARK    6  A    between atoms: C_15  and  N_16
REMARK    7  A    between atoms: C_17  and  C_19
REMARK                            x       y       z     vdW  Elec       q    Type
REMARK                         _______ _______ _______ _____ _____    ______ ____
ROOT
ATOM      1  C   UNL     1      51.432   3.172  17.821  0.00  0.00    +0.000 A 
ATOM      2  C   UNL     1      50.755   2.080  17.253  0.00  0.00    +0.000 A 
ATOM      3  C   UNL     1      49.381   2.140  16.987  0.00  0.00    +0.000 A 
ATOM      4  C   UNL     1      48.654   3.303  17.268  0.00  0.00    +0.000 A 
ATOM      5  C   UNL     1      49.322   4.391  17.838  0.00  0.00    +0.000 A 
ATOM      6  C   UNL     1      50.695   4.332  18.099  0.00  0.00    +0.000 A 
ENDROOT
BRANCH   1   8
ATOM      7  C   UNL     1      53.718   4.316  17.670  0.00  0.00    +0.000 C 
ATOM      8  C   UNL     1      52.927   3.068  18.082  0.00  0.00    +0.000 C 
BRANCH   8   9
ATOM      9  N   UNL     1      53.455   1.883  17.423  0.00  0.00    +0.000 N 
ATOM     10  C   UNL     1      54.153   0.920  18.113  0.00  0.00    +0.000 C 
ATOM     11  O   UNL     1      54.329   0.974  19.327  0.00  0.00    +0.000 OA
ATOM     12  H   UNL     1      53.366   1.819  16.421  0.00  0.00    +0.000 HD
BRANCH  10  13
ATOM     13  C   UNL     1      54.674  -0.163  17.320  0.00  0.00    +0.000 A 
ATOM     14  C   UNL     1      55.507  -0.235  16.221  0.00  0.00    +0.000 A 
ATOM     15  C   UNL     1      55.629  -1.609  15.938  0.00  0.00    +0.000 A 
ATOM     16  N   UNL     1      54.926  -2.364  16.784  0.00  0.00    +0.000 NA
ATOM     17  N   UNL     1      54.355  -1.467  17.605  0.00  0.00    +0.000 N 
ATOM     18  H   UNL     1      53.752  -1.795  18.354  0.00  0.00    +0.000 HD
ENDBRANCH  10  13
ENDBRANCH   8   9
ENDBRANCH   1   8
BRANCH   4  19
ATOM     19  C   UNL     1      47.173   3.380  17.001  0.00  0.00    +0.000 C 
BRANCH  19  20
ATOM     20  N   UNL     1      46.871   4.387  16.015  0.00  0.00    +0.000 N 
ATOM     21  C   UNL     1      46.997   4.124  14.675  0.00  0.00    +0.000 C 
ATOM     22  O   UNL     1      47.328   3.018  14.257  0.00  0.00    +0.000 OA
ATOM     23  H   UNL     1      46.813   5.348  16.336  0.00  0.00    +0.000 HD
BRANCH  21  24
ATOM     24  C   UNL     1      46.658   5.219  13.756  0.00  0.00    +0.000 A 
ATOM     25  C   UNL     1      47.588   6.219  13.509  0.00  0.00    +0.000 A 
ATOM     26  S   UNL     1      47.056   7.392  12.392  0.00  0.00    +0.000 S 
ATOM     27  C   UNL     1      45.541   6.635  12.237  0.00  0.00    +0.000 A 
ATOM     28  N   UNL     1      44.576   7.160  11.436  0.00  0.00    +0.000 NA
ATOM     29  C   UNL     1      43.463   6.504  11.438  0.00  0.00    +0.000 A 
ATOM     30  N   UNL     1      43.234   5.363  12.162  0.00  0.00    +0.000 N 
ATOM     31  C   UNL     1      44.190   4.774  12.955  0.00  0.00    +0.000 A 
ATOM     32  O   UNL     1      43.968   3.724  13.548  0.00  0.00    +0.000 OA
ATOM     33  C   UNL     1      45.453   5.487  13.007  0.00  0.00    +0.000 A 
ATOM     34  H   UNL     1      42.344   4.889  12.110  0.00  0.00    +0.000 HD
ENDBRANCH  21  24
ENDBRANCH  19  20
ENDBRANCH   4  19
TORSDOF 6
ENDMDL
MODEL 5
REMARK VINA RESULT:    -7.426      4.325      5.573
REMARK INTER + INTRA:         -10.948
REMARK INTER:                  -9.714
REMARK INTRA:                  -1.234
REMARK UNBOUND:                -0.917
REMARK  Name = 
REMARK  7 active torsions:
REMARK  status: ('A' for Active; 'I' for Inactive)
REMARK    1  A    between atoms: C_1  and  C_2
REMARK    2  A    between atoms: C_2  and  N_3
REMARK    3  A    between atoms: C_2  and  C_11
REMARK    4  A    between atoms: C_4  and  C_6
REMARK    5  A    between atoms: C_14  and  C_15
REMARK    6  A    between atoms: C_15  and  N_16
REMARK    7  A    between atoms: C_17  and  C_19
REMARK                            x       y       z     vdW  Elec       q    Type
REMARK                         _______ _______ _______ _____ _____    ______ ____
ROOT
ATOM      1  C   UNL     1      44.753   5.248  11.652  0.00  0.00    +0.000 A 
ATOM      2  C   UNL     1      45.789   5.137  12.595  0.00  0.00    +0.000 A 
ATOM      3  C   UNL     1      46.371   6.277  13.164  0.00  0.00    +0.000 A 
ATOM      4  C   UNL     1      45.920   7.555  12.816  0.00  0.00    +0.000 A 
ATOM      5  C   UNL     1      44.893   7.670  11.874  0.00  0.00    +0.000 A 
ATOM      6  C   UNL     1      44.307   6.532  11.309  0.00  0.00    +0.000 A 
ENDROOT
BRANCH   1   8
ATOM      7  C   UNL     1      43.603   3.009  12.122  0.00  0.00    +0.000 C 
ATOM      8  C   UNL     1      44.140   3.984  11.067  0.00  0.00    +0.000 C 
BRANCH   8   9
ATOM      9  N   UNL     1      45.110   3.326  10.205  0.00  0.00    +0.000 N 
ATOM     10  C   UNL     1      45.067   3.455   8.836  0.00  0.00    +0.000 C 
ATOM     11  O   UNL     1      44.246   4.166   8.265  0.00  0.00    +0.000 OA
ATOM     12  H   UNL     1      45.777   2.703  10.631  0.00  0.00    +0.000 HD
BRANCH  10  13
ATOM     13  C   UNL     1      46.048   2.695   8.106  0.00  0.00    +0.000 A 
ATOM     14  C   UNL     1      46.352   1.350   8.020  0.00  0.00    +0.000 A 
ATOM     15  C   UNL     1      47.426   1.271   7.112  0.00  0.00    +0.000 A 
ATOM     16  N   UNL     1      47.790   2.470   6.653  0.00  0.00    +0.000 NA
ATOM     17  N   UNL     1      46.946   3.312   7.272  0.00  0.00    +0.000 N 
ATOM     18  H   UNL     1      47.019   4.309   7.090  0.00  0.00    +0.000 HD
ENDBRANCH  10  13
ENDBRANCH   8   9
ENDBRANCH   1   8
BRANCH   4  19
ATOM     19  C   UNL     1      46.544   8.792  13.408  0.00  0.00    +0.000 C 
BRANCH  19  20
ATOM     20  N   UNL     1      47.858   9.026  12.864  0.00  0.00    +0.000 N 
ATOM     21  C   UNL     1      48.060   9.961  11.881  0.00  0.00    +0.000 C 
ATOM     22  O   UNL     1      47.147  10.664  11.455  0.00  0.00    +0.000 OA
ATOM     23  H   UNL     1      48.566   8.320  13.041  0.00  0.00    +0.000 HD
BRANCH  21  24
ATOM     24  C   UNL     1      49.439  10.124  11.402  0.00  0.00    +0.000 A 
ATOM     25  C   UNL     1      49.902  11.387  11.060  0.00  0.00    +0.000 A 
ATOM     26  S   UNL     1      51.531  11.410  10.561  0.00  0.00    +0.000 S 
ATOM     27  C   UNL     1      51.664   9.723  10.733  0.00  0.00    +0.000 A 
ATOM     28  N   UNL     1      52.822   9.079  10.429  0.00  0.00    +0.000 NA
ATOM     29  C   UNL     1      52.774   7.796  10.573  0.00  0.00    +0.000 A 
ATOM     30  N   UNL     1      51.674   7.102  11.003  0.00  0.00    +0.000 N 
ATOM     31  C   UNL     1      50.495   7.712  11.359  0.00  0.00    +0.000 A 
ATOM     32  O   UNL     1      49.547   7.065  11.791  0.00  0.00    +0.000 OA
ATOM     33  C   UNL     1      50.488   9.153  11.192  0.00  0.00    +0.000 A 
ATOM     34  H   UNL     1      51.706   6.098  11.107  0.00  0.00    +0.000 HD
ENDBRANCH  21  24
ENDBRANCH  19  20
ENDBRANCH   4  19
TORSDOF 6
ENDMDL
MODEL 6
REMARK VINA RESULT:    -7.249      4.609      9.081
REMARK INTER + INTRA:         -10.710
REMARK INTER:                  -9.464
REMARK INTRA:                  -1.245
REMARK UNBOUND:                -0.917
REMARK  Name = 
REMARK  7 active torsions:
REMARK  status: ('A' for Active; 'I' for Inactive)
REMARK    1  A    between atoms: C_1  and  C_2
REMARK    2  A    between atoms: C_2  and  N_3
REMARK    3  A    between atoms: C_2  and  C_11
REMARK    4  A    between atoms: C_4  and  C_6
REMARK    5  A    between atoms: C_14  and  C_15
REMARK    6  A    between atoms: C_15  and  N_16
REMARK    7  A    between atoms: C_17  and  C_19
REMARK                            x       y       z     vdW  Elec       q    Type
REMARK                         _______ _______ _______ _____ _____    ______ ____
ROOT
ATOM      1  C   UNL     1      51.378   3.030  17.799  0.00  0.00    +0.000 A 
ATOM      2  C   UNL     1      50.648   2.009  17.169  0.00  0.00    +0.000 A 
ATOM      3  C   UNL     1      49.298   2.185  16.839  0.00  0.00    +0.000 A 
ATOM      4  C   UNL     1      48.650   3.394  17.118  0.00  0.00    +0.000 A 
ATOM      5  C   UNL     1      49.372   4.412  17.749  0.00  0.00    +0.000 A 
ATOM      6  C   UNL     1      50.722   4.238  18.074  0.00  0.00    +0.000 A 
ENDROOT
BRANCH   1   8
ATOM      7  C   UNL     1      53.753   3.987  17.779  0.00  0.00    +0.000 C 
ATOM      8  C   UNL     1      52.847   2.801  18.128  0.00  0.00    +0.000 C 
BRANCH   8   9
ATOM      9  N   UNL     1      53.309   1.588  17.471  0.00  0.00    +0.000 N 
ATOM     10  C   UNL     1      54.068   0.651  18.132  0.00  0.00    +0.000 C 
ATOM     11  O   UNL     1      54.358   0.753  19.320  0.00  0.00    +0.000 OA
ATOM     12  H   UNL     1      53.126   1.484  16.486  0.00  0.00    +0.000 HD
BRANCH  10  13
ATOM     13  C   UNL     1      54.511  -0.466  17.339  0.00  0.00    +0.000 A 
ATOM     14  C   UNL     1      55.131  -0.586  16.110  0.00  0.00    +0.000 A 
ATOM     15  C   UNL     1      55.298  -1.970  15.914  0.00  0.00    +0.000 A 
ATOM     16  N   UNL     1      54.820  -2.687  16.932  0.00  0.00    +0.000 NA
ATOM     17  N   UNL     1      54.347  -1.756  17.777  0.00  0.00    +0.000 N 
ATOM     18  H   UNL     1      53.919  -2.051  18.650  0.00  0.00    +0.000 HD
ENDBRANCH  10  13
ENDBRANCH   8   9
ENDBRANCH   1   8
BRANCH   4  19
ATOM     19  C   UNL     1      47.196   3.596  16.783  0.00  0.00    +0.000 C 
BRANCH  19  20
ATOM     20  N   UNL     1      47.027   4.604  15.766  0.00  0.00    +0.000 N 
ATOM     21  C   UNL     1      47.071   4.278  14.434  0.00  0.00    +0.000 C 
ATOM     22  O   UNL     1      47.210   3.119  14.052  0.00  0.00    +0.000 OA
ATOM     23  H   UNL     1      47.131   5.572  16.051  0.00  0.00    +0.000 HD
BRANCH  21  24
ATOM     24  C   UNL     1      46.882   5.380  13.482  0.00  0.00    +0.000 A 
ATOM     25  C   UNL     1      45.829   5.334  12.579  0.00  0.00    +0.000 A 
ATOM     26  S   UNL     1      45.727   6.705  11.572  0.00  0.00    +0.000 S 
ATOM     27  C   UNL     1      47.119   7.388  12.268  0.00  0.00    +0.000 A 
ATOM     28  N   UNL     1      47.609   8.578  11.829  0.00  0.00    +0.000 NA
ATOM     29  C   UNL     1      48.690   8.963  12.422  0.00  0.00    +0.000 A 
ATOM     30  N   UNL     1      49.318   8.269  13.422  0.00  0.00    +0.000 N 
ATOM     31  C   UNL     1      48.840   7.083  13.926  0.00  0.00    +0.000 A 
ATOM     32  O   UNL     1      49.399   6.515  14.858  0.00  0.00    +0.000 OA
ATOM     33  C   UNL     1      47.640   6.593  13.276  0.00  0.00    +0.000 A 
ATOM     34  H   UNL     1      50.156   8.633  13.855  0.00  0.00    +0.000 HD
ENDBRANCH  21  24
ENDBRANCH  19  20
ENDBRANCH   4  19
TORSDOF 6
ENDMDL
MODEL 7
REMARK VINA RESULT:    -7.027      4.784      8.110
REMARK INTER + INTRA:         -10.409
REMARK INTER:                  -9.370
REMARK INTRA:                  -1.039
REMARK UNBOUND:                -0.917
REMARK  Name = 
REMARK  7 active torsions:
REMARK  status: ('A' for Active; 'I' for Inactive)
REMARK    1  A    between atoms: C_1  and  C_2
REMARK    2  A    between atoms: C_2  and  N_3
REMARK    3  A    between atoms: C_2  and  C_11
REMARK    4  A    between atoms: C_4  and  C_6
REMARK    5  A    between atoms: C_14  and  C_15
REMARK    6  A    between atoms: C_15  and  N_16
REMARK    7  A    between atoms: C_17  and  C_19
REMARK                            x       y       z     vdW  Elec       q    Type
REMARK                         _______ _______ _______ _____ _____    ______ ____
ROOT
ATOM      1  C   UNL     1      50.386   8.776  11.394  0.00  0.00    +0.000 A 
ATOM      2  C   UNL     1      49.561   9.881  11.662  0.00  0.00    +0.000 A 
ATOM      3  C   UNL     1      48.280   9.711  12.204  0.00  0.00    +0.000 A 
ATOM      4  C   UNL     1      47.801   8.431  12.507  0.00  0.00    +0.000 A 
ATOM      5  C   UNL     1      48.617   7.328  12.237  0.00  0.00    +0.000 A 
ATOM      6  C   UNL     1      49.898   7.498  11.701  0.00  0.00    +0.000 A 
ENDROOT
BRANCH   1   8
ATOM      7  C   UNL     1      51.988  10.420  10.260  0.00  0.00    +0.000 C 
ATOM      8  C   UNL     1      51.775   9.007  10.817  0.00  0.00    +0.000 C 
BRANCH   8   9
ATOM      9  N   UNL     1      52.052   8.005   9.799  0.00  0.00    +0.000 N 
ATOM     10  C   UNL     1      53.185   7.228   9.836  0.00  0.00    +0.000 C 
ATOM     11  O   UNL     1      54.003   7.296  10.749  0.00  0.00    +0.000 OA
ATOM     12  H   UNL     1      51.425   7.944   9.012  0.00  0.00    +0.000 HD
BRANCH  10  13
ATOM     13  C   UNL     1      53.361   6.326   8.728  0.00  0.00    +0.000 A 
ATOM     14  C   UNL     1      54.187   5.243   8.492  0.00  0.00    +0.000 A 
ATOM     15  C   UNL     1      53.845   4.793   7.202  0.00  0.00    +0.000 A 
ATOM     16  N   UNL     1      52.881   5.529   6.647  0.00  0.00    +0.000 NA
ATOM     17  N   UNL     1      52.610   6.451   7.587  0.00  0.00    +0.000 N 
ATOM     18  H   UNL     1      51.895   7.149   7.403  0.00  0.00    +0.000 HD
ENDBRANCH  10  13
ENDBRANCH   8   9
ENDBRANCH   1   8
BRANCH   4  19
ATOM     19  C   UNL     1      46.421   8.229  13.077  0.00  0.00    +0.000 C 
BRANCH  19  20
ATOM     20  N   UNL     1      45.926   6.906  12.792  0.00  0.00    +0.000 N 
ATOM     21  C   UNL     1      45.010   6.694  11.793  0.00  0.00    +0.000 C 
ATOM     22  O   UNL     1      44.607   7.605  11.076  0.00  0.00    +0.000 OA
ATOM     23  H   UNL     1      46.073   6.193  13.500  0.00  0.00    +0.000 HD
BRANCH  21  24
ATOM     24  C   UNL     1      44.576   5.306  11.583  0.00  0.00    +0.000 A 
ATOM     25  C   UNL     1      43.870   4.650  12.582  0.00  0.00    +0.000 A 
ATOM     26  S   UNL     1      43.408   3.063  12.167  0.00  0.00    +0.000 S 
ATOM     27  C   UNL     1      44.181   3.174  10.656  0.00  0.00    +0.000 A 
ATOM     28  N   UNL     1      44.192   2.120   9.797  0.00  0.00    +0.000 NA
ATOM     29  C   UNL     1      44.843   2.330   8.702  0.00  0.00    +0.000 A 
ATOM     30  N   UNL     1      45.475   3.504   8.385  0.00  0.00    +0.000 N 
ATOM     31  C   UNL     1      45.460   4.609   9.203  0.00  0.00    +0.000 A 
ATOM     32  O   UNL     1      45.991   5.660   8.865  0.00  0.00    +0.000 OA
ATOM     33  C   UNL     1      44.761   4.417  10.460  0.00  0.00    +0.000 A 
ATOM     34  H   UNL     1      45.958   3.609   7.504  0.00  0.00    +0.000 HD
ENDBRANCH  21  24
ENDBRANCH  19  20
ENDBRANCH   4  19
TORSDOF 6
ENDMDL
MODEL 8
REMARK VINA RESULT:    -6.775      3.645      4.751
REMARK INTER + INTRA:         -10.068
REMARK INTER:                  -8.981
REMARK INTRA:                  -1.087
REMARK UNBOUND:                -0.917
REMARK  Name = 
REMARK  7 active torsions:
REMARK  status: ('A' for Active; 'I' for Inactive)
REMARK    1  A    between atoms: C_1  and  C_2
REMARK    2  A    between atoms: C_2  and  N_3
REMARK    3  A    between atoms: C_2  and  C_11
REMARK    4  A    between atoms: C_4  and  C_6
REMARK    5  A    between atoms: C_14  and  C_15
REMARK    6  A    between atoms: C_15  and  N_16
REMARK    7  A    between atoms: C_17  and  C_19
REMARK                            x       y       z     vdW  Elec       q    Type
REMARK                         _______ _______ _______ _____ _____    ______ ____
ROOT
ATOM      1  C   UNL     1      44.822   5.186  11.601  0.00  0.00    +0.000 A 
ATOM      2  C   UNL     1      45.828   4.970  12.557  0.00  0.00    +0.000 A 
ATOM      3  C   UNL     1      46.491   6.046  13.162  0.00  0.00    +0.000 A 
ATOM      4  C   UNL     1      46.151   7.364  12.838  0.00  0.00    +0.000 A 
ATOM      5  C   UNL     1      45.153   7.583  11.883  0.00  0.00    +0.000 A 
ATOM      6  C   UNL     1      44.487   6.510  11.282  0.00  0.00    +0.000 A 
ENDROOT
BRANCH   1   8
ATOM      7  C   UNL     1      43.436   3.070  11.996  0.00  0.00    +0.000 C 
ATOM      8  C   UNL     1      44.119   3.989  10.976  0.00  0.00    +0.000 C 
BRANCH   8   9
ATOM      9  N   UNL     1      45.063   3.242  10.160  0.00  0.00    +0.000 N 
ATOM     10  C   UNL     1      45.148   3.425   8.800  0.00  0.00    +0.000 C 
ATOM     11  O   UNL     1      44.474   4.259   8.202  0.00  0.00    +0.000 OA
ATOM     12  H   UNL     1      45.607   2.521  10.606  0.00  0.00    +0.000 HD
BRANCH  10  13
ATOM     13  C   UNL     1      46.079   2.569   8.111  0.00  0.00    +0.000 A 
ATOM     14  C   UNL     1      46.275   1.202   8.066  0.00  0.00    +0.000 A 
ATOM     15  C   UNL     1      47.357   1.014   7.185  0.00  0.00    +0.000 A 
ATOM     16  N   UNL     1      47.826   2.166   6.704  0.00  0.00    +0.000 NA
ATOM     17  N   UNL     1      47.040   3.090   7.282  0.00  0.00    +0.000 N 
ATOM     18  H   UNL     1      47.198   4.072   7.077  0.00  0.00    +0.000 HD
ENDBRANCH  10  13
ENDBRANCH   8   9
ENDBRANCH   1   8
BRANCH   4  19
ATOM     19  C   UNL     1      46.863   8.532  13.469  0.00  0.00    +0.000 C 
BRANCH  19  20
ATOM     20  N   UNL     1      48.284   8.302  13.541  0.00  0.00    +0.000 N 
ATOM     21  C   UNL     1      49.107   9.167  14.215  0.00  0.00    +0.000 C 
ATOM     22  O   UNL     1      48.670  10.144  14.817  0.00  0.00    +0.000 OA
ATOM     23  H   UNL     1      48.681   7.641  12.880  0.00  0.00    +0.000 HD
BRANCH  21  24
ATOM     24  C   UNL     1      50.538   8.836  14.230  0.00  0.00    +0.000 A 
ATOM     25  C   UNL     1      51.185   8.646  15.444  0.00  0.00    +0.000 A 
ATOM     26  S   UNL     1      52.830   8.230  15.287  0.00  0.00    +0.000 S 
ATOM     27  C   UNL     1      52.753   8.340  13.592  0.00  0.00    +0.000 A 
ATOM     28  N   UNL     1      53.857   8.129  12.827  0.00  0.00    +0.000 NA
ATOM     29  C   UNL     1      53.665   8.278  11.559  0.00  0.00    +0.000 A 
ATOM     30  N   UNL     1      52.465   8.610  10.987  0.00  0.00    +0.000 N 
ATOM     31  C   UNL     1      51.314   8.796  11.715  0.00  0.00    +0.000 A 
ATOM     32  O   UNL     1      50.245   9.040  11.166  0.00  0.00    +0.000 OA
ATOM     33  C   UNL     1      51.481   8.664  13.150  0.00  0.00    +0.000 A 
ATOM     34  H   UNL     1      52.378   8.699   9.984  0.00  0.00    +0.000 HD
ENDBRANCH  21  24
ENDBRANCH  19  20
ENDBRANCH   4  19
TORSDOF 6
ENDMDL
MODEL 9
REMARK VINA RESULT:    -6.278      4.464      9.586
REMARK INTER + INTRA:          -9.397
REMARK INTER:                  -8.255
REMARK INTRA:                  -1.142
REMARK UNBOUND:                -0.917
REMARK  Name = 
REMARK  7 active torsions:
REMARK  status: ('A' for Active; 'I' for Inactive)
REMARK    1  A    between atoms: C_1  and  C_2
REMARK    2  A    between atoms: C_2  and  N_3
REMARK    3  A    between atoms: C_2  and  C_11
REMARK    4  A    between atoms: C_4  and  C_6
REMARK    5  A    between atoms: C_14  and  C_15
REMARK    6  A    between atoms: C_15  and  N_16
REMARK    7  A    between atoms: C_17  and  C_19
REMARK                            x       y       z     vdW  Elec       q    Type
REMARK                         _______ _______ _______ _____ _____    ______ ____
ROOT
ATOM      1  C   UNL     1      51.627   3.402  17.706  0.00  0.00    +0.000 A 
ATOM      2  C   UNL     1      50.860   4.564  17.893  0.00  0.00    +0.000 A 
ATOM      3  C   UNL     1      49.472   4.551  17.706  0.00  0.00    +0.000 A 
ATOM      4  C   UNL     1      48.815   3.369  17.343  0.00  0.00    +0.000 A 
ATOM      5  C   UNL     1      49.576   2.212  17.150  0.00  0.00    +0.000 A 
ATOM      6  C   UNL     1      50.961   2.224  17.342  0.00  0.00    +0.000 A 
ENDROOT
BRANCH   1   8
ATOM      7  C   UNL     1      53.631   2.504  19.023  0.00  0.00    +0.000 C 
ATOM      8  C   UNL     1      53.131   3.459  17.932  0.00  0.00    +0.000 C 
BRANCH   8   9
ATOM      9  N   UNL     1      53.529   4.827  18.223  0.00  0.00    +0.000 N 
ATOM     10  C   UNL     1      54.414   5.511  17.423  0.00  0.00    +0.000 C 
ATOM     11  O   UNL     1      54.881   5.031  16.394  0.00  0.00    +0.000 OA
ATOM     12  H   UNL     1      53.199   5.245  19.079  0.00  0.00    +0.000 HD
BRANCH  10  13
ATOM     13  C   UNL     1      54.767   6.833  17.870  0.00  0.00    +0.000 A 
ATOM     14  C   UNL     1      55.775   7.340  18.668  0.00  0.00    +0.000 A 
ATOM     15  C   UNL     1      55.556   8.731  18.700  0.00  0.00    +0.000 A 
ATOM     16  N   UNL     1      54.489   9.092  17.985  0.00  0.00    +0.000 NA
ATOM     17  N   UNL     1      54.029   7.928  17.498  0.00  0.00    +0.000 N 
ATOM     18  H   UNL     1      53.201   7.931  16.909  0.00  0.00    +0.000 HD
ENDBRANCH  10  13
ENDBRANCH   8   9
ENDBRANCH   1   8
BRANCH   4  19
ATOM     19  C   UNL     1      47.325   3.340  17.124  0.00  0.00    +0.000 C 
BRANCH  19  20
ATOM     20  N   UNL     1      46.917   4.337  16.166  0.00  0.00    +0.000 N 
ATOM     21  C   UNL     1      47.025   4.109  14.818  0.00  0.00    +0.000 C 
ATOM     22  O   UNL     1      47.430   3.039  14.370  0.00  0.00    +0.000 OA
ATOM     23  H   UNL     1      46.793   5.285  16.508  0.00  0.00    +0.000 HD
BRANCH  21  24
ATOM     24  C   UNL     1      46.576   5.189  13.930  0.00  0.00    +0.000 A 
ATOM     25  C   UNL     1      45.329   5.107  13.326  0.00  0.00    +0.000 A 
ATOM     26  S   UNL     1      44.943   6.456  12.360  0.00  0.00    +0.000 S 
ATOM     27  C   UNL     1      46.451   7.178  12.670  0.00  0.00    +0.000 A 
ATOM     28  N   UNL     1      46.786   8.368  12.104  0.00  0.00    +0.000 NA
ATOM     29  C   UNL     1      47.973   8.784  12.396  0.00  0.00    +0.000 A 
ATOM     30  N   UNL     1      48.851   8.121  13.213  0.00  0.00    +0.000 N 
ATOM     31  C   UNL     1      48.544   6.935  13.838  0.00  0.00    +0.000 A 
ATOM     32  O   UNL     1      49.334   6.396  14.604  0.00  0.00    +0.000 OA
ATOM     33  C   UNL     1      47.228   6.411  13.522  0.00  0.00    +0.000 A 
ATOM     34  H   UNL     1      49.762   8.507  13.413  0.00  0.00    +0.000 HD
ENDBRANCH  21  24
ENDBRANCH  19  20
ENDBRANCH   4  19
TORSDOF 6
ENDMDL
