MODEL 1
REMARK VINA RESULT:    -7.776      0.000      0.000
REMARK INTER + INTRA:         -10.715
REMARK INTER:                 -10.049
REMARK INTRA:                  -0.667
REMARK UNBOUND:                -0.667
REMARK  Name = 
REMARK  5 active torsions:
REMARK  status: ('A' for Active; 'I' for Inactive)
REMARK    1  A    between atoms: C_2  and  C_4
REMARK    2  A    between atoms: C_8  and  O_9
REMARK    3  A    between atoms: O_9  and  C_10
REMARK    4  A    between atoms: C_10  and  C_11
REMARK    5  A    between atoms: C_13  and  C_14
REMARK                            x       y       z     vdW  Elec       q    Type
REMARK                         _______ _______ _______ _____ _____    ______ ____
ROOT
ATOM      1  C   UNL     1      45.854   6.823  13.238  0.00  0.00    +0.000 C 
ENDROOT
BRANCH   1   2
ATOM      2  C   UNL     1      45.007   5.965  12.330  0.00  0.00    +0.000 A 
ATOM      3  C   UNL     1      45.591   5.339  11.230  0.00  0.00    +0.000 A 
ATOM      4  C   UNL     1      44.821   4.520  10.393  0.00  0.00    +0.000 A 
ATOM      5  C   UNL     1      43.459   4.403  10.694  0.00  0.00    +0.000 A 
ATOM      6  C   UNL     1      42.951   5.059  11.804  0.00  0.00    +0.000 A 
ATOM      7  N   UNL     1      43.695   5.824  12.629  0.00  0.00    +0.000 NA
BRANCH   4   8
ATOM      8  C   UNL     1      45.422   3.819   9.244  0.00  0.00    +0.000 A 
ATOM      9  C   UNL     1      45.438   2.425   9.142  0.00  0.00    +0.000 A 
ATOM     10  C   UNL     1      46.064   1.816   8.056  0.00  0.00    +0.000 A 
ATOM     11  C   UNL     1      46.656   2.614   7.088  0.00  0.00    +0.000 A 
ATOM     12 CL   UNL     1      47.451   1.908   5.743  0.00  0.00    +0.000 Cl
ATOM     13  C   UNL     1      46.585   3.989   7.241  0.00  0.00    +0.000 A 
ATOM     14  N   UNL     1      45.979   4.605   8.287  0.00  0.00    +0.000 NA
ENDBRANCH   4   8
ENDBRANCH   1   2
BRANCH   1  15
ATOM     15  O   UNL     1      47.230   6.445  13.129  0.00  0.00    +0.000 OA
BRANCH  15  20
ATOM     16  C   UNL     1      47.999   4.676  16.132  0.00  0.00    +0.000 A 
ATOM     17  C   UNL     1      48.869   5.533  16.793  0.00  0.00    +0.000 A 
ATOM     18  C   UNL     1      49.189   6.739  16.179  0.00  0.00    +0.000 A 
ATOM     19  C   UNL     1      48.627   7.044  14.939  0.00  0.00    +0.000 A 
ATOM     20  C   UNL     1      47.764   6.123  14.360  0.00  0.00    +0.000 A 
ATOM     21  N   UNL     1      47.445   4.943  14.923  0.00  0.00    +0.000 NA
BRANCH  16  23
ATOM     22  N   UNL     1      48.589   2.386  16.656  0.00  0.00    +0.000 N 
ATOM     23  C   UNL     1      47.631   3.359  16.737  0.00  0.00    +0.000 C 
ATOM     24  O   UNL     1      46.550   3.158  17.282  0.00  0.00    +0.000 OA
ATOM     25  H   UNL     1      48.411   1.476  17.060  0.00  0.00    +0.000 HD
ATOM     26  H   UNL     1      49.478   2.588  16.215  0.00  0.00    +0.000 HD
ENDBRANCH  16  23
ENDBRANCH  15  20
ENDBRANCH   1  15
TORSDOF 5
ENDMDL
MODEL 2
REMARK VINA RESULT:    -7.643      1.777      2.222
REMARK INTER + INTRA:         -10.544
REMARK INTER:                 -10.026
REMARK INTRA:                  -0.518
REMARK UNBOUND:                -0.667
REMARK  Name = 
REMARK  5 active torsions:
REMARK  status: ('A' for Active; 'I' for Inactive)
REMARK    1  A    between atoms: C_2  and  C_4
REMARK    2  A    between atoms: C_8  and  O_9
REMARK    3  A    between atoms: O_9  and  C_10
REMARK    4  A    between atoms: C_10  and  C_11
REMARK    5  A    between atoms: C_13  and  C_14
REMARK                            x       y       z     vdW  Elec       q    Type
REMARK                         _______ _______ _______ _____ _____    ______ ____
ROOT
ATOM      1  C   UNL     1      46.140   4.795  14.349  0.00  0.00    +0.000 C 
ENDROOT
BRANCH   1   2
ATOM      2  C   UNL     1      45.186   4.617  13.193  0.00  0.00    +0.000 A 
ATOM      3  C   UNL     1      45.681   4.254  11.942  0.00  0.00    +0.000 A 
ATOM      4  C   UNL     1      44.803   4.062  10.866  0.00  0.00    +0.000 A 
ATOM      5  C   UNL     1      43.443   4.290  11.104  0.00  0.00    +0.000 A 
ATOM      6  C   UNL     1      43.029   4.652  12.376  0.00  0.00    +0.000 A 
ATOM      7  N   UNL     1      43.866   4.808  13.422  0.00  0.00    +0.000 NA
BRANCH   4   8
ATOM      8  C   UNL     1      45.297   3.644   9.541  0.00  0.00    +0.000 A 
ATOM      9  C   UNL     1      45.378   2.301   9.162  0.00  0.00    +0.000 A 
ATOM     10  C   UNL     1      45.899   1.963   7.915  0.00  0.00    +0.000 A 
ATOM     11  C   UNL     1      46.322   2.975   7.066  0.00  0.00    +0.000 A 
ATOM     12 CL   UNL     1      46.984   2.606   5.529  0.00  0.00    +0.000 Cl
ATOM     13  C   UNL     1      46.194   4.286   7.497  0.00  0.00    +0.000 A 
ATOM     14  N   UNL     1      45.687   4.640   8.705  0.00  0.00    +0.000 NA
ENDBRANCH   4   8
ENDBRANCH   1   2
BRANCH   1  15
ATOM     15  O   UNL     1      46.859   3.581  14.585  0.00  0.00    +0.000 OA
BRANCH  15  20
ATOM     16  C   UNL     1      49.235   2.968  17.179  0.00  0.00    +0.000 A 
ATOM     17  C   UNL     1      48.734   3.697  18.248  0.00  0.00    +0.000 A 
ATOM     18  C   UNL     1      47.556   4.411  18.057  0.00  0.00    +0.000 A 
ATOM     19  C   UNL     1      46.923   4.364  16.814  0.00  0.00    +0.000 A 
ATOM     20  C   UNL     1      47.500   3.602  15.808  0.00  0.00    +0.000 A 
ATOM     21  N   UNL     1      48.646   2.911  15.958  0.00  0.00    +0.000 NA
BRANCH  16  23
ATOM     22  N   UNL     1      51.374   2.657  18.271  0.00  0.00    +0.000 N 
ATOM     23  C   UNL     1      50.506   2.194  17.321  0.00  0.00    +0.000 C 
ATOM     24  O   UNL     1      50.759   1.202  16.644  0.00  0.00    +0.000 OA
ATOM     25  H   UNL     1      52.246   2.170  18.430  0.00  0.00    +0.000 HD
ATOM     26  H   UNL     1      51.130   3.469  18.826  0.00  0.00    +0.000 HD
ENDBRANCH  16  23
ENDBRANCH  15  20
ENDBRANCH   1  15
TORSDOF 5
ENDMDL
MODEL 3
REMARK VINA RESULT:    -7.589      3.566      7.958
REMARK INTER + INTRA:         -10.474
REMARK INTER:                  -9.722
REMARK INTRA:                  -0.753
REMARK UNBOUND:                -0.667
REMARK  Name = 
REMARK  5 active torsions:
REMARK  status: ('A' for Active; 'I' for Inactive)
REMARK    1  A    between atoms: C_2  and  C_4
REMARK    2  A    between atoms: C_8  and  O_9
REMARK    3  A    between atoms: O_9  and  C_10
REMARK    4  A    between atoms: C_10  and  C_11
REMARK    5  A    between atoms: C_13  and  C_14
REMARK                            x       y       z     vdW  Elec       q    Type
REMARK                         _______ _______ _______ _____ _____    ______ ____
ROOT
ATOM      1  C   UNL     1      44.563   5.079  10.911  0.00  0.00    +0.000 C 
ENDROOT
BRANCH   1   2
ATOM      2  C   UNL     1      45.753   5.654  11.641  0.00  0.00    +0.000 A 
ATOM      3  C   UNL     1      46.084   5.171  12.905  0.00  0.00    +0.000 A 
ATOM      4  C   UNL     1      47.202   5.680  13.583  0.00  0.00    +0.000 A 
ATOM      5  C   UNL     1      47.919   6.702  12.952  0.00  0.00    +0.000 A 
ATOM      6  C   UNL     1      47.524   7.131  11.695  0.00  0.00    +0.000 A 
ATOM      7  N   UNL     1      46.468   6.623  11.025  0.00  0.00    +0.000 NA
BRANCH   4   8
ATOM      8  C   UNL     1      47.595   5.162  14.906  0.00  0.00    +0.000 A 
ATOM      9  C   UNL     1      48.324   5.925  15.822  0.00  0.00    +0.000 A 
ATOM     10  C   UNL     1      48.710   5.366  17.039  0.00  0.00    +0.000 A 
ATOM     11  C   UNL     1      48.351   4.056  17.320  0.00  0.00    +0.000 A 
ATOM     12 CL   UNL     1      48.817   3.322  18.798  0.00  0.00    +0.000 Cl
ATOM     13  C   UNL     1      47.610   3.364  16.376  0.00  0.00    +0.000 A 
ATOM     14  N   UNL     1      47.220   3.887  15.186  0.00  0.00    +0.000 NA
ENDBRANCH   4   8
ENDBRANCH   1   2
BRANCH   1  15
ATOM     15  O   UNL     1      44.794   5.101   9.499  0.00  0.00    +0.000 OA
BRANCH  15  20
ATOM     16  C   UNL     1      46.437   2.531   7.646  0.00  0.00    +0.000 A 
ATOM     17  C   UNL     1      45.869   1.366   8.144  0.00  0.00    +0.000 A 
ATOM     18  C   UNL     1      44.905   1.484   9.140  0.00  0.00    +0.000 A 
ATOM     19  C   UNL     1      44.542   2.753   9.592  0.00  0.00    +0.000 A 
ATOM     20  C   UNL     1      45.164   3.858   9.028  0.00  0.00    +0.000 A 
ATOM     21  N   UNL     1      46.110   3.777   8.072  0.00  0.00    +0.000 NA
BRANCH  16  23
ATOM     22  N   UNL     1      47.342   3.348   5.553  0.00  0.00    +0.000 N 
ATOM     23  C   UNL     1      47.490   2.465   6.587  0.00  0.00    +0.000 C 
ATOM     24  O   UNL     1      48.435   1.684   6.638  0.00  0.00    +0.000 OA
ATOM     25  H   UNL     1      48.028   3.368   4.810  0.00  0.00    +0.000 HD
ATOM     26  H   UNL     1      46.560   3.993   5.547  0.00  0.00    +0.000 HD
ENDBRANCH  16  23
ENDBRANCH  15  20
ENDBRANCH   1  15
TORSDOF 5
ENDMDL
MODEL 4
REMARK VINA RESULT:    -7.486      3.371      5.179
REMARK INTER + INTRA:         -10.341
REMARK INTER:                  -9.632
REMARK INTRA:                  -0.709
REMARK UNBOUND:                -0.667
REMARK  Name = 
REMARK  5 active torsions:
REMARK  status: ('A' for Active; 'I' for Inactive)
REMARK    1  A    between atoms: C_2  and  C_4
REMARK    2  A    between atoms: C_8  and  O_9
REMARK    3  A    between atoms: O_9  and  C_10
REMARK    4  A    between atoms: C_10  and  C_11
REMARK    5  A    between atoms: C_13  and  C_14
REMARK                            x       y       z     vdW  Elec       q    Type
REMARK                         _______ _______ _______ _____ _____    ______ ____
ROOT
ATOM      1  C   UNL     1      44.598   6.006  12.886  0.00  0.00    +0.000 C 
ENDROOT
BRANCH   1   2
ATOM      2  C   UNL     1      44.362   4.755  12.075  0.00  0.00    +0.000 A 
ATOM      3  C   UNL     1      45.065   4.562  10.887  0.00  0.00    +0.000 A 
ATOM      4  C   UNL     1      44.873   3.393  10.137  0.00  0.00    +0.000 A 
ATOM      5  C   UNL     1      43.931   2.476  10.615  0.00  0.00    +0.000 A 
ATOM      6  C   UNL     1      43.270   2.741  11.804  0.00  0.00    +0.000 A 
ATOM      7  N   UNL     1      43.473   3.850  12.545  0.00  0.00    +0.000 NA
BRANCH   4   8
ATOM      8  C   UNL     1      45.629   3.149   8.896  0.00  0.00    +0.000 A 
ATOM      9  C   UNL     1      45.959   4.176   8.006  0.00  0.00    +0.000 A 
ATOM     10  C   UNL     1      46.633   3.879   6.823  0.00  0.00    +0.000 A 
ATOM     11  C   UNL     1      46.973   2.561   6.556  0.00  0.00    +0.000 A 
ATOM     12 CL   UNL     1      47.789   2.146   5.107  0.00  0.00    +0.000 Cl
ATOM     13  C   UNL     1      46.635   1.596   7.491  0.00  0.00    +0.000 A 
ATOM     14  N   UNL     1      45.981   1.861   8.651  0.00  0.00    +0.000 NA
ENDBRANCH   4   8
ENDBRANCH   1   2
BRANCH   1  15
ATOM     15  O   UNL     1      45.781   6.671  12.434  0.00  0.00    +0.000 OA
BRANCH  15  20
ATOM     16  C   UNL     1      44.150   9.553  11.100  0.00  0.00    +0.000 A 
ATOM     17  C   UNL     1      45.046  10.579  11.371  0.00  0.00    +0.000 A 
ATOM     18  C   UNL     1      46.228  10.257  12.028  0.00  0.00    +0.000 A 
ATOM     19  C   UNL     1      46.473   8.930  12.382  0.00  0.00    +0.000 A 
ATOM     20  C   UNL     1      45.518   7.975  12.064  0.00  0.00    +0.000 A 
ATOM     21  N   UNL     1      44.359   8.256  11.440  0.00  0.00    +0.000 NA
BRANCH  16  23
ATOM     22  N   UNL     1      41.736   9.369  11.038  0.00  0.00    +0.000 N 
ATOM     23  C   UNL     1      42.856   9.842  10.411  0.00  0.00    +0.000 C 
ATOM     24  O   UNL     1      42.789  10.471   9.359  0.00  0.00    +0.000 OA
ATOM     25  H   UNL     1      40.825   9.543  10.634  0.00  0.00    +0.000 HD
ATOM     26  H   UNL     1      41.822   8.867  11.914  0.00  0.00    +0.000 HD
ENDBRANCH  16  23
ENDBRANCH  15  20
ENDBRANCH   1  15
TORSDOF 5
ENDMDL
MODEL 5
REMARK VINA RESULT:    -7.475      1.676      2.207
REMARK INTER + INTRA:         -10.326
REMARK INTER:                 -10.269
REMARK INTRA:                  -0.058
REMARK UNBOUND:                -0.667
REMARK  Name = 
REMARK  5 active torsions:
REMARK  status: ('A' for Active; 'I' for Inactive)
REMARK    1  A    between atoms: C_2  and  C_4
REMARK    2  A    between atoms: C_8  and  O_9
REMARK    3  A    between atoms: O_9  and  C_10
REMARK    4  A    between atoms: C_10  and  C_11
REMARK    5  A    between atoms: C_13  and  C_14
REMARK                            x       y       z     vdW  Elec       q    Type
REMARK                         _______ _______ _______ _____ _____    ______ ____
ROOT
ATOM      1  C   UNL     1      43.812   6.513  11.771  0.00  0.00    +0.000 C 
ENDROOT
BRANCH   1   2
ATOM      2  C   UNL     1      43.878   5.076  11.314  0.00  0.00    +0.000 A 
ATOM      3  C   UNL     1      44.620   4.747  10.182  0.00  0.00    +0.000 A 
ATOM      4  C   UNL     1      44.709   3.412   9.761  0.00  0.00    +0.000 A 
ATOM      5  C   UNL     1      43.996   2.462  10.500  0.00  0.00    +0.000 A 
ATOM      6  C   UNL     1      43.278   2.869  11.614  0.00  0.00    +0.000 A 
ATOM      7  N   UNL     1      43.214   4.147  12.040  0.00  0.00    +0.000 NA
BRANCH   4   8
ATOM      8  C   UNL     1      45.515   3.033   8.587  0.00  0.00    +0.000 A 
ATOM      9  C   UNL     1      46.028   1.743   8.415  0.00  0.00    +0.000 A 
ATOM     10  C   UNL     1      46.824   1.455   7.309  0.00  0.00    +0.000 A 
ATOM     11  C   UNL     1      47.087   2.461   6.390  0.00  0.00    +0.000 A 
ATOM     12 CL   UNL     1      48.074   2.156   5.022  0.00  0.00    +0.000 Cl
ATOM     13  C   UNL     1      46.530   3.710   6.610  0.00  0.00    +0.000 A 
ATOM     14  N   UNL     1      45.749   4.015   7.678  0.00  0.00    +0.000 NA
ENDBRANCH   4   8
ENDBRANCH   1   2
BRANCH   1  15
ATOM     15  O   UNL     1      44.995   7.212  11.370  0.00  0.00    +0.000 OA
BRANCH  15  20
ATOM     16  C   UNL     1      47.062   5.796  13.913  0.00  0.00    +0.000 A 
ATOM     17  C   UNL     1      48.088   6.722  14.042  0.00  0.00    +0.000 A 
ATOM     18  C   UNL     1      48.055   7.850  13.229  0.00  0.00    +0.000 A 
ATOM     19  C   UNL     1      47.002   8.012  12.328  0.00  0.00    +0.000 A 
ATOM     20  C   UNL     1      46.020   7.032  12.277  0.00  0.00    +0.000 A 
ATOM     21  N   UNL     1      46.030   5.924  13.041  0.00  0.00    +0.000 NA
BRANCH  16  23
ATOM     22  N   UNL     1      47.225   4.751  16.092  0.00  0.00    +0.000 N 
ATOM     23  C   UNL     1      47.053   4.557  14.749  0.00  0.00    +0.000 C 
ATOM     24  O   UNL     1      46.891   3.437  14.275  0.00  0.00    +0.000 OA
ATOM     25  H   UNL     1      47.213   3.956  16.718  0.00  0.00    +0.000 HD
ATOM     26  H   UNL     1      47.340   5.690  16.456  0.00  0.00    +0.000 HD
ENDBRANCH  16  23
ENDBRANCH  15  20
ENDBRANCH   1  15
TORSDOF 5
ENDMDL
MODEL 6
REMARK VINA RESULT:    -7.336      2.951      3.663
REMARK INTER + INTRA:         -10.147
REMARK INTER:                  -9.390
REMARK INTRA:                  -0.757
REMARK UNBOUND:                -0.667
REMARK  Name = 
REMARK  5 active torsions:
REMARK  status: ('A' for Active; 'I' for Inactive)
REMARK    1  A    between atoms: C_2  and  C_4
REMARK    2  A    between atoms: C_8  and  O_9
REMARK    3  A    between atoms: O_9  and  C_10
REMARK    4  A    between atoms: C_10  and  C_11
REMARK    5  A    between atoms: C_13  and  C_14
REMARK                            x       y       z     vdW  Elec       q    Type
REMARK                         _______ _______ _______ _____ _____    ______ ____
ROOT
ATOM      1  C   UNL     1      44.279   6.376  12.320  0.00  0.00    +0.000 C 
ENDROOT
BRANCH   1   2
ATOM      2  C   UNL     1      44.187   4.993  11.722  0.00  0.00    +0.000 A 
ATOM      3  C   UNL     1      44.882   4.702  10.550  0.00  0.00    +0.000 A 
ATOM      4  C   UNL     1      44.825   3.414   9.999  0.00  0.00    +0.000 A 
ATOM      5  C   UNL     1      44.019   2.475  10.653  0.00  0.00    +0.000 A 
ATOM      6  C   UNL     1      43.357   2.842  11.813  0.00  0.00    +0.000 A 
ATOM      7  N   UNL     1      43.433   4.072  12.365  0.00  0.00    +0.000 NA
BRANCH   4   8
ATOM      8  C   UNL     1      45.578   3.070   8.779  0.00  0.00    +0.000 A 
ATOM      9  C   UNL     1      45.975   1.762   8.488  0.00  0.00    +0.000 A 
ATOM     10  C   UNL     1      46.727   1.504   7.343  0.00  0.00    +0.000 A 
ATOM     11  C   UNL     1      47.061   2.559   6.507  0.00  0.00    +0.000 A 
ATOM     12 CL   UNL     1      47.998   2.291   5.096  0.00  0.00    +0.000 Cl
ATOM     13  C   UNL     1      46.616   3.827   6.844  0.00  0.00    +0.000 A 
ATOM     14  N   UNL     1      45.881   4.103   7.950  0.00  0.00    +0.000 NA
ENDBRANCH   4   8
ENDBRANCH   1   2
BRANCH   1  15
ATOM     15  O   UNL     1      45.409   6.462  13.192  0.00  0.00    +0.000 OA
BRANCH  15  20
ATOM     16  C   UNL     1      48.410   8.186  12.316  0.00  0.00    +0.000 A 
ATOM     17  C   UNL     1      47.960   9.456  11.979  0.00  0.00    +0.000 A 
ATOM     18  C   UNL     1      46.595   9.707  12.057  0.00  0.00    +0.000 A 
ATOM     19  C   UNL     1      45.736   8.689  12.472  0.00  0.00    +0.000 A 
ATOM     20  C   UNL     1      46.282   7.454  12.793  0.00  0.00    +0.000 A 
ATOM     21  N   UNL     1      47.597   7.176  12.715  0.00  0.00    +0.000 NA
BRANCH  16  23
ATOM     22  N   UNL     1      50.457   7.510  13.419  0.00  0.00    +0.000 N 
ATOM     23  C   UNL     1      49.865   7.853  12.235  0.00  0.00    +0.000 C 
ATOM     24  O   UNL     1      50.493   7.873  11.181  0.00  0.00    +0.000 OA
ATOM     25  H   UNL     1      51.436   7.257  13.433  0.00  0.00    +0.000 HD
ATOM     26  H   UNL     1      49.908   7.486  14.271  0.00  0.00    +0.000 HD
ENDBRANCH  16  23
ENDBRANCH  15  20
ENDBRANCH   1  15
TORSDOF 5
ENDMDL
MODEL 7
REMARK VINA RESULT:    -7.225      2.878      4.453
REMARK INTER + INTRA:         -10.004
REMARK INTER:                  -9.317
REMARK INTRA:                  -0.687
REMARK UNBOUND:                -0.667
REMARK  Name = 
REMARK  5 active torsions:
REMARK  status: ('A' for Active; 'I' for Inactive)
REMARK    1  A    between atoms: C_2  and  C_4
REMARK    2  A    between atoms: C_8  and  O_9
REMARK    3  A    between atoms: O_9  and  C_10
REMARK    4  A    between atoms: C_10  and  C_11
REMARK    5  A    between atoms: C_13  and  C_14
REMARK                            x       y       z     vdW  Elec       q    Type
REMARK                         _______ _______ _______ _____ _____    ______ ____
ROOT
ATOM      1  C   UNL     1      44.371   6.162  12.553  0.00  0.00    +0.000 C 
ENDROOT
BRANCH   1   2
ATOM      2  C   UNL     1      44.236   4.816  11.883  0.00  0.00    +0.000 A 
ATOM      3  C   UNL     1      44.910   4.571  10.688  0.00  0.00    +0.000 A 
ATOM      4  C   UNL     1      44.812   3.317  10.069  0.00  0.00    +0.000 A 
ATOM      5  C   UNL     1      43.988   2.366  10.681  0.00  0.00    +0.000 A 
ATOM      6  C   UNL     1      43.349   2.687  11.868  0.00  0.00    +0.000 A 
ATOM      7  N   UNL     1      43.464   3.882  12.484  0.00  0.00    +0.000 NA
BRANCH   4   8
ATOM      8  C   UNL     1      45.542   3.021   8.823  0.00  0.00    +0.000 A 
ATOM      9  C   UNL     1      45.946   1.726   8.482  0.00  0.00    +0.000 A 
ATOM     10  C   UNL     1      46.676   1.513   7.314  0.00  0.00    +0.000 A 
ATOM     11  C   UNL     1      46.982   2.598   6.506  0.00  0.00    +0.000 A 
ATOM     12 CL   UNL     1      47.892   2.385   5.068  0.00  0.00    +0.000 Cl
ATOM     13  C   UNL     1      46.533   3.850   6.893  0.00  0.00    +0.000 A 
ATOM     14  N   UNL     1      45.819   4.083   8.023  0.00  0.00    +0.000 NA
ENDBRANCH   4   8
ENDBRANCH   1   2
BRANCH   1  15
ATOM     15  O   UNL     1      45.649   6.270  13.189  0.00  0.00    +0.000 OA
BRANCH  15  20
ATOM     16  C   UNL     1      46.163   9.638  12.126  0.00  0.00    +0.000 A 
ATOM     17  C   UNL     1      47.514   9.846  12.369  0.00  0.00    +0.000 A 
ATOM     18  C   UNL     1      48.248   8.797  12.912  0.00  0.00    +0.000 A 
ATOM     19  C   UNL     1      47.611   7.587  13.184  0.00  0.00    +0.000 A 
ATOM     20  C   UNL     1      46.257   7.475  12.902  0.00  0.00    +0.000 A 
ATOM     21  N   UNL     1      45.516   8.475  12.388  0.00  0.00    +0.000 NA
BRANCH  16  23
ATOM     22  N   UNL     1      44.052  10.824  12.063  0.00  0.00    +0.000 N 
ATOM     23  C   UNL     1      45.320  10.735  11.559  0.00  0.00    +0.000 C 
ATOM     24  O   UNL     1      45.732  11.515  10.706  0.00  0.00    +0.000 OA
ATOM     25  H   UNL     1      43.434  11.554  11.734  0.00  0.00    +0.000 HD
ATOM     26  H   UNL     1      43.746  10.175  12.779  0.00  0.00    +0.000 HD
ENDBRANCH  16  23
ENDBRANCH  15  20
ENDBRANCH   1  15
TORSDOF 5
ENDMDL
MODEL 8
REMARK VINA RESULT:    -7.193      1.827      2.339
REMARK INTER + INTRA:          -9.963
REMARK INTER:                  -9.446
REMARK INTRA:                  -0.517
REMARK UNBOUND:                -0.667
REMARK  Name = 
REMARK  5 active torsions:
REMARK  status: ('A' for Active; 'I' for Inactive)
REMARK    1  A    between atoms: C_2  and  C_4
REMARK    2  A    between atoms: C_8  and  O_9
REMARK    3  A    between atoms: O_9  and  C_10
REMARK    4  A    between atoms: C_10  and  C_11
REMARK    5  A    between atoms: C_13  and  C_14
REMARK                            x       y       z     vdW  Elec       q    Type
REMARK                         _______ _______ _______ _____ _____    ______ ____
ROOT
ATOM      1  C   UNL     1      46.074   4.919  14.339  0.00  0.00    +0.000 C 
ENDROOT
BRANCH   1   2
ATOM      2  C   UNL     1      45.140   4.758  13.164  0.00  0.00    +0.000 A 
ATOM      3  C   UNL     1      45.648   4.359  11.930  0.00  0.00    +0.000 A 
ATOM      4  C   UNL     1      44.787   4.181  10.837  0.00  0.00    +0.000 A 
ATOM      5  C   UNL     1      43.432   4.461  11.042  0.00  0.00    +0.000 A 
ATOM      6  C   UNL     1      43.004   4.856  12.299  0.00  0.00    +0.000 A 
ATOM      7  N   UNL     1      43.824   4.999  13.362  0.00  0.00    +0.000 NA
BRANCH   4   8
ATOM      8  C   UNL     1      45.295   3.727   9.530  0.00  0.00    +0.000 A 
ATOM      9  C   UNL     1      45.361   2.374   9.182  0.00  0.00    +0.000 A 
ATOM     10  C   UNL     1      45.895   2.000   7.951  0.00  0.00    +0.000 A 
ATOM     11  C   UNL     1      46.346   2.987   7.086  0.00  0.00    +0.000 A 
ATOM     12 CL   UNL     1      47.025   2.573   5.568  0.00  0.00    +0.000 Cl
ATOM     13  C   UNL     1      46.231   4.309   7.486  0.00  0.00    +0.000 A 
ATOM     14  N   UNL     1      45.712   4.698   8.678  0.00  0.00    +0.000 NA
ENDBRANCH   4   8
ENDBRANCH   1   2
BRANCH   1  15
ATOM     15  O   UNL     1      46.802   3.707  14.559  0.00  0.00    +0.000 OA
BRANCH  15  20
ATOM     16  C   UNL     1      47.890   4.707  17.809  0.00  0.00    +0.000 A 
ATOM     17  C   UNL     1      48.749   3.684  18.186  0.00  0.00    +0.000 A 
ATOM     18  C   UNL     1      48.946   2.635  17.294  0.00  0.00    +0.000 A 
ATOM     19  C   UNL     1      48.286   2.650  16.066  0.00  0.00    +0.000 A 
ATOM     20  C   UNL     1      47.450   3.721  15.778  0.00  0.00    +0.000 A 
ATOM     21  N   UNL     1      47.229   4.744  16.624  0.00  0.00    +0.000 NA
BRANCH  16  23
ATOM     22  N   UNL     1      46.950   5.542  19.879  0.00  0.00    +0.000 N 
ATOM     23  C   UNL     1      47.628   5.853  18.733  0.00  0.00    +0.000 C 
ATOM     24  O   UNL     1      48.001   6.997  18.494  0.00  0.00    +0.000 OA
ATOM     25  H   UNL     1      46.754   6.268  20.556  0.00  0.00    +0.000 HD
ATOM     26  H   UNL     1      46.669   4.585  20.056  0.00  0.00    +0.000 HD
ENDBRANCH  16  23
ENDBRANCH  15  20
ENDBRANCH   1  15
TORSDOF 5
ENDMDL
MODEL 9
REMARK VINA RESULT:    -6.901      1.948      2.787
REMARK INTER + INTRA:          -9.585
REMARK INTER:                  -8.873
REMARK INTRA:                  -0.712
REMARK UNBOUND:                -0.667
REMARK  Name = 
REMARK  5 active torsions:
REMARK  status: ('A' for Active; 'I' for Inactive)
REMARK    1  A    between atoms: C_2  and  C_4
REMARK    2  A    between atoms: C_8  and  O_9
REMARK    3  A    between atoms: O_9  and  C_10
REMARK    4  A    between atoms: C_10  and  C_11
REMARK    5  A    between atoms: C_13  and  C_14
REMARK                            x       y       z     vdW  Elec       q    Type
REMARK                         _______ _______ _______ _____ _____    ______ ____
ROOT
ATOM      1  C   UNL     1      48.256   7.919  14.246  0.00  0.00    +0.000 C 
ENDROOT
BRANCH   1   2
ATOM      2  C   UNL     1      47.093   7.842  13.287  0.00  0.00    +0.000 A 
ATOM      3  C   UNL     1      46.871   6.670  12.566  0.00  0.00    +0.000 A 
ATOM      4  C   UNL     1      45.780   6.578  11.691  0.00  0.00    +0.000 A 
ATOM      5  C   UNL     1      44.973   7.713  11.555  0.00  0.00    +0.000 A 
ATOM      6  C   UNL     1      45.261   8.843  12.304  0.00  0.00    +0.000 A 
ATOM      7  N   UNL     1      46.292   8.926  13.171  0.00  0.00    +0.000 NA
BRANCH   4   8
ATOM      8  C   UNL     1      45.502   5.338  10.943  0.00  0.00    +0.000 A 
ATOM      9  C   UNL     1      45.614   5.262   9.551  0.00  0.00    +0.000 A 
ATOM     10  C   UNL     1      45.293   4.077   8.893  0.00  0.00    +0.000 A 
ATOM     11  C   UNL     1      44.873   2.986   9.641  0.00  0.00    +0.000 A 
ATOM     12 CL   UNL     1      44.452   1.513   8.873  0.00  0.00    +0.000 Cl
ATOM     13  C   UNL     1      44.805   3.124  11.018  0.00  0.00    +0.000 A 
ATOM     14  N   UNL     1      45.115   4.266  11.681  0.00  0.00    +0.000 NA
ENDBRANCH   4   8
ENDBRANCH   1   2
BRANCH   1  15
ATOM     15  O   UNL     1      48.916   6.652  14.322  0.00  0.00    +0.000 OA
BRANCH  15  20
ATOM     16  C   UNL     1      48.496   4.799  17.344  0.00  0.00    +0.000 A 
ATOM     17  C   UNL     1      49.368   5.425  18.225  0.00  0.00    +0.000 A 
ATOM     18  C   UNL     1      50.110   6.502  17.753  0.00  0.00    +0.000 A 
ATOM     19  C   UNL     1      49.950   6.916  16.431  0.00  0.00    +0.000 A 
ATOM     20  C   UNL     1      49.049   6.228  15.629  0.00  0.00    +0.000 A 
ATOM     21  N   UNL     1      48.326   5.174  16.051  0.00  0.00    +0.000 NA
BRANCH  16  23
ATOM     22  N   UNL     1      48.150   2.975  18.899  0.00  0.00    +0.000 N 
ATOM     23  C   UNL     1      47.685   3.626  17.790  0.00  0.00    +0.000 C 
ATOM     24  O   UNL     1      46.661   3.269  17.214  0.00  0.00    +0.000 OA
ATOM     25  H   UNL     1      47.639   2.182  19.264  0.00  0.00    +0.000 HD
ATOM     26  H   UNL     1      48.989   3.304  19.363  0.00  0.00    +0.000 HD
ENDBRANCH  16  23
ENDBRANCH  15  20
ENDBRANCH   1  15
TORSDOF 5
ENDMDL
