MODEL 1
REMARK VINA RESULT:    -8.229      0.000      0.000
REMARK INTER + INTRA:         -10.847
REMARK INTER:                 -10.153
REMARK INTRA:                  -0.694
REMARK UNBOUND:                -0.694
REMARK  Name = 
REMARK  4 active torsions:
REMARK  status: ('A' for Active; 'I' for Inactive)
REMARK    1  A    between atoms: C_2  and  C_4
REMARK    2  A    between atoms: C_7  and  C_8
REMARK    3  A    between atoms: C_8  and  C_9
REMARK    4  A    between atoms: C_9  and  C_10
REMARK                            x       y       z     vdW  Elec       q    Type
REMARK                         _______ _______ _______ _____ _____    ______ ____
ROOT
ATOM      1  C   UNL     1      46.361   2.292   7.838  0.00  0.00    +0.000 A 
ATOM      2  C   UNL     1      46.365   3.662   7.620  0.00  0.00    +0.000 A 
ATOM      3  C   UNL     1      45.501   4.455   8.373  0.00  0.00    +0.000 A 
ATOM      4  C   UNL     1      44.629   3.868   9.294  0.00  0.00    +0.000 A 
ATOM      5  C   UNL     1      44.710   2.480   9.435  0.00  0.00    +0.000 A 
ATOM      6  N   UNL     1      45.547   1.674   8.738  0.00  0.00    +0.000 NA
ENDROOT
BRANCH   1   8
ATOM      7  N   UNL     1      48.422   2.056   6.577  0.00  0.00    +0.000 N 
ATOM      8  C   UNL     1      47.320   1.421   7.083  0.00  0.00    +0.000 C 
ATOM      9  O   UNL     1      47.135   0.222   6.917  0.00  0.00    +0.000 OA
ATOM     10  H   UNL     1      49.097   1.530   6.042  0.00  0.00    +0.000 HD
ATOM     11  H   UNL     1      48.539   3.052   6.725  0.00  0.00    +0.000 HD
ENDBRANCH   1   8
BRANCH   4  12
ATOM     12  C   UNL     1      43.720   4.657  10.209  0.00  0.00    +0.000 C 
BRANCH  12  13
ATOM     13  C   UNL     1      44.080   4.622  11.692  0.00  0.00    +0.000 C 
ATOM     14  C   UNL     1      43.472   3.513  12.542  0.00  0.00    +0.000 C 
ATOM     15  C   UNL     1      42.945   4.904  12.680  0.00  0.00    +0.000 C 
BRANCH  13  16
ATOM     16  C   UNL     1      45.431   5.220  12.086  0.00  0.00    +0.000 A 
ATOM     17  C   UNL     1      45.949   6.349  11.422  0.00  0.00    +0.000 A 
ATOM     18  C   UNL     1      47.152   6.942  11.815  0.00  0.00    +0.000 A 
ATOM     19  C   UNL     1      47.873   6.409  12.878  0.00  0.00    +0.000 A 
ATOM     20  C   UNL     1      47.396   5.284  13.541  0.00  0.00    +0.000 A 
ATOM     21  C   UNL     1      46.189   4.704  13.148  0.00  0.00    +0.000 A 
ENDBRANCH  13  16
ENDBRANCH  12  13
ENDBRANCH   4  12
TORSDOF 4
ENDMDL
MODEL 2
REMARK VINA RESULT:    -6.530      3.954      6.043
REMARK INTER + INTRA:          -8.751
REMARK INTER:                  -8.226
REMARK INTRA:                  -0.525
REMARK UNBOUND:                -0.694
REMARK  Name = 
REMARK  4 active torsions:
REMARK  status: ('A' for Active; 'I' for Inactive)
REMARK    1  A    between atoms: C_2  and  C_4
REMARK    2  A    between atoms: C_7  and  C_8
REMARK    3  A    between atoms: C_8  and  C_9
REMARK    4  A    between atoms: C_9  and  C_10
REMARK                            x       y       z     vdW  Elec       q    Type
REMARK                         _______ _______ _______ _____ _____    ______ ____
ROOT
ATOM      1  C   UNL     1      48.348   6.478  14.054  0.00  0.00    +0.000 A 
ATOM      2  C   UNL     1      47.716   6.916  12.900  0.00  0.00    +0.000 A 
ATOM      3  C   UNL     1      46.569   6.245  12.478  0.00  0.00    +0.000 A 
ATOM      4  C   UNL     1      46.101   5.136  13.189  0.00  0.00    +0.000 A 
ATOM      5  C   UNL     1      46.814   4.783  14.338  0.00  0.00    +0.000 A 
ATOM      6  N   UNL     1      47.921   5.417  14.793  0.00  0.00    +0.000 NA
ENDROOT
BRANCH   1   8
ATOM      7  N   UNL     1      50.474   7.566  13.614  0.00  0.00    +0.000 N 
ATOM      8  C   UNL     1      49.551   7.216  14.562  0.00  0.00    +0.000 C 
ATOM      9  O   UNL     1      49.711   7.485  15.746  0.00  0.00    +0.000 OA
ATOM     10  H   UNL     1      51.316   8.047  13.893  0.00  0.00    +0.000 HD
ATOM     11  H   UNL     1      50.315   7.318  12.644  0.00  0.00    +0.000 HD
ENDBRANCH   1   8
BRANCH   4  12
ATOM     12  C   UNL     1      44.823   4.402  12.851  0.00  0.00    +0.000 C 
BRANCH  12  13
ATOM     13  C   UNL     1      44.168   4.787  11.526  0.00  0.00    +0.000 C 
ATOM     14  C   UNL     1      43.571   6.185  11.412  0.00  0.00    +0.000 C 
ATOM     15  C   UNL     1      42.654   5.013  11.550  0.00  0.00    +0.000 C 
BRANCH  13  16
ATOM     16  C   UNL     1      44.688   4.085  10.271  0.00  0.00    +0.000 A 
ATOM     17  C   UNL     1      45.334   4.807   9.248  0.00  0.00    +0.000 A 
ATOM     18  C   UNL     1      45.870   4.168   8.127  0.00  0.00    +0.000 A 
ATOM     19  C   UNL     1      45.761   2.787   7.997  0.00  0.00    +0.000 A 
ATOM     20  C   UNL     1      45.113   2.050   8.983  0.00  0.00    +0.000 A 
ATOM     21  C   UNL     1      44.589   2.696  10.104  0.00  0.00    +0.000 A 
ENDBRANCH  13  16
ENDBRANCH  12  13
ENDBRANCH   4  12
TORSDOF 4
ENDMDL
MODEL 3
REMARK VINA RESULT:    -6.036      4.002      6.168
REMARK INTER + INTRA:          -8.141
REMARK INTER:                  -7.855
REMARK INTRA:                  -0.287
REMARK UNBOUND:                -0.694
REMARK  Name = 
REMARK  4 active torsions:
REMARK  status: ('A' for Active; 'I' for Inactive)
REMARK    1  A    between atoms: C_2  and  C_4
REMARK    2  A    between atoms: C_7  and  C_8
REMARK    3  A    between atoms: C_8  and  C_9
REMARK    4  A    between atoms: C_9  and  C_10
REMARK                            x       y       z     vdW  Elec       q    Type
REMARK                         _______ _______ _______ _____ _____    ______ ____
ROOT
ATOM      1  C   UNL     1      46.725   8.175  12.672  0.00  0.00    +0.000 A 
ATOM      2  C   UNL     1      45.357   7.954  12.601  0.00  0.00    +0.000 A 
ATOM      3  C   UNL     1      44.903   6.638  12.521  0.00  0.00    +0.000 A 
ATOM      4  C   UNL     1      45.815   5.580  12.477  0.00  0.00    +0.000 A 
ATOM      5  C   UNL     1      47.169   5.917  12.558  0.00  0.00    +0.000 A 
ATOM      6  N   UNL     1      47.653   7.179  12.655  0.00  0.00    +0.000 NA
ENDROOT
BRANCH   1   8
ATOM      7  N   UNL     1      46.428  10.558  12.312  0.00  0.00    +0.000 N 
ATOM      8  C   UNL     1      47.239   9.576  12.816  0.00  0.00    +0.000 C 
ATOM      9  O   UNL     1      48.315   9.836  13.339  0.00  0.00    +0.000 OA
ATOM     10  H   UNL     1      46.725  11.522  12.359  0.00  0.00    +0.000 HD
ATOM     11  H   UNL     1      45.548  10.307  11.876  0.00  0.00    +0.000 HD
ENDBRANCH   1   8
BRANCH   4  12
ATOM     12  C   UNL     1      45.410   4.123  12.473  0.00  0.00    +0.000 C 
BRANCH  12  13
ATOM     13  C   UNL     1      44.429   3.711  11.378  0.00  0.00    +0.000 C 
ATOM     14  C   UNL     1      42.982   4.167  11.515  0.00  0.00    +0.000 C 
ATOM     15  C   UNL     1      43.320   2.736  11.782  0.00  0.00    +0.000 C 
BRANCH  13  16
ATOM     16  C   UNL     1      45.014   3.468   9.986  0.00  0.00    +0.000 A 
ATOM     17  C   UNL     1      45.410   4.544   9.166  0.00  0.00    +0.000 A 
ATOM     18  C   UNL     1      46.004   4.333   7.919  0.00  0.00    +0.000 A 
ATOM     19  C   UNL     1      46.206   3.037   7.457  0.00  0.00    +0.000 A 
ATOM     20  C   UNL     1      45.810   1.956   8.237  0.00  0.00    +0.000 A 
ATOM     21  C   UNL     1      45.226   2.175   9.485  0.00  0.00    +0.000 A 
ENDBRANCH  13  16
ENDBRANCH  12  13
ENDBRANCH   4  12
TORSDOF 4
ENDMDL
MODEL 4
REMARK VINA RESULT:    -5.992      3.856      6.270
REMARK INTER + INTRA:          -8.087
REMARK INTER:                  -8.354
REMARK INTRA:                   0.267
REMARK UNBOUND:                -0.694
REMARK  Name = 
REMARK  4 active torsions:
REMARK  status: ('A' for Active; 'I' for Inactive)
REMARK    1  A    between atoms: C_2  and  C_4
REMARK    2  A    between atoms: C_7  and  C_8
REMARK    3  A    between atoms: C_8  and  C_9
REMARK    4  A    between atoms: C_9  and  C_10
REMARK                            x       y       z     vdW  Elec       q    Type
REMARK                         _______ _______ _______ _____ _____    ______ ____
ROOT
ATOM      1  C   UNL     1      47.536   4.025  15.570  0.00  0.00    +0.000 A 
ATOM      2  C   UNL     1      47.803   5.386  15.590  0.00  0.00    +0.000 A 
ATOM      3  C   UNL     1      47.613   6.115  14.418  0.00  0.00    +0.000 A 
ATOM      4  C   UNL     1      47.198   5.472  13.248  0.00  0.00    +0.000 A 
ATOM      5  C   UNL     1      46.955   4.099  13.341  0.00  0.00    +0.000 A 
ATOM      6  N   UNL     1      47.109   3.356  14.463  0.00  0.00    +0.000 NA
ENDROOT
BRANCH   1   8
ATOM      7  N   UNL     1      48.963   2.953  17.216  0.00  0.00    +0.000 N 
ATOM      8  C   UNL     1      47.678   3.226  16.831  0.00  0.00    +0.000 C 
ATOM      9  O   UNL     1      46.715   2.833  17.477  0.00  0.00    +0.000 OA
ATOM     10  H   UNL     1      49.127   2.402  18.045  0.00  0.00    +0.000 HD
ATOM     11  H   UNL     1      49.737   3.285  16.652  0.00  0.00    +0.000 HD
ENDBRANCH   1   8
BRANCH   4  12
ATOM     12  C   UNL     1      46.888   6.197  11.957  0.00  0.00    +0.000 C 
BRANCH  12  13
ATOM     13  C   UNL     1      45.471   6.014  11.419  0.00  0.00    +0.000 C 
ATOM     14  C   UNL     1      44.556   7.233  11.406  0.00  0.00    +0.000 C 
ATOM     15  C   UNL     1      44.329   6.167  12.428  0.00  0.00    +0.000 C 
BRANCH  13  16
ATOM     16  C   UNL     1      45.265   4.906  10.386  0.00  0.00    +0.000 A 
ATOM     17  C   UNL     1      45.772   5.028   9.077  0.00  0.00    +0.000 A 
ATOM     18  C   UNL     1      45.645   3.997   8.144  0.00  0.00    +0.000 A 
ATOM     19  C   UNL     1      44.995   2.818   8.496  0.00  0.00    +0.000 A 
ATOM     20  C   UNL     1      44.470   2.676   9.775  0.00  0.00    +0.000 A 
ATOM     21  C   UNL     1      44.608   3.708  10.704  0.00  0.00    +0.000 A 
ENDBRANCH  13  16
ENDBRANCH  12  13
ENDBRANCH   4  12
TORSDOF 4
ENDMDL
MODEL 5
REMARK VINA RESULT:    -5.644      3.088      5.037
REMARK INTER + INTRA:          -7.658
REMARK INTER:                  -7.127
REMARK INTRA:                  -0.531
REMARK UNBOUND:                -0.694
REMARK  Name = 
REMARK  4 active torsions:
REMARK  status: ('A' for Active; 'I' for Inactive)
REMARK    1  A    between atoms: C_2  and  C_4
REMARK    2  A    between atoms: C_7  and  C_8
REMARK    3  A    between atoms: C_8  and  C_9
REMARK    4  A    between atoms: C_9  and  C_10
REMARK                            x       y       z     vdW  Elec       q    Type
REMARK                         _______ _______ _______ _____ _____    ______ ____
ROOT
ATOM      1  C   UNL     1      44.448   4.235  11.387  0.00  0.00    +0.000 A 
ATOM      2  C   UNL     1      45.217   4.973  10.501  0.00  0.00    +0.000 A 
ATOM      3  C   UNL     1      45.749   6.186  10.937  0.00  0.00    +0.000 A 
ATOM      4  C   UNL     1      45.474   6.653  12.225  0.00  0.00    +0.000 A 
ATOM      5  C   UNL     1      44.689   5.828  13.035  0.00  0.00    +0.000 A 
ATOM      6  N   UNL     1      44.168   4.635  12.659  0.00  0.00    +0.000 NA
ENDROOT
BRANCH   1   8
ATOM      7  N   UNL     1      44.541   2.322   9.895  0.00  0.00    +0.000 N 
ATOM      8  C   UNL     1      43.910   2.901  10.964  0.00  0.00    +0.000 C 
ATOM      9  O   UNL     1      42.966   2.359  11.524  0.00  0.00    +0.000 OA
ATOM     10  H   UNL     1      44.215   1.432   9.547  0.00  0.00    +0.000 HD
ATOM     11  H   UNL     1      45.313   2.802   9.448  0.00  0.00    +0.000 HD
ENDBRANCH   1   8
BRANCH   4  12
ATOM     12  C   UNL     1      46.074   7.913  12.807  0.00  0.00    +0.000 C 
BRANCH  12  13
ATOM     13  C   UNL     1      47.596   7.924  12.935  0.00  0.00    +0.000 C 
ATOM     14  C   UNL     1      48.286   6.607  13.270  0.00  0.00    +0.000 C 
ATOM     15  C   UNL     1      48.168   7.654  14.329  0.00  0.00    +0.000 C 
BRANCH  13  16
ATOM     16  C   UNL     1      48.347   8.986  12.132  0.00  0.00    +0.000 A 
ATOM     17  C   UNL     1      47.723  10.194  11.761  0.00  0.00    +0.000 A 
ATOM     18  C   UNL     1      48.418  11.198  11.083  0.00  0.00    +0.000 A 
ATOM     19  C   UNL     1      49.755  11.012  10.748  0.00  0.00    +0.000 A 
ATOM     20  C   UNL     1      50.392   9.823  11.086  0.00  0.00    +0.000 A 
ATOM     21  C   UNL     1      49.693   8.829  11.771  0.00  0.00    +0.000 A 
ENDBRANCH  13  16
ENDBRANCH  12  13
ENDBRANCH   4  12
TORSDOF 4
ENDMDL
MODEL 6
REMARK VINA RESULT:    -5.334      4.466      6.347
REMARK INTER + INTRA:          -7.275
REMARK INTER:                  -6.395
REMARK INTRA:                  -0.880
REMARK UNBOUND:                -0.694
REMARK  Name = 
REMARK  4 active torsions:
REMARK  status: ('A' for Active; 'I' for Inactive)
REMARK    1  A    between atoms: C_2  and  C_4
REMARK    2  A    between atoms: C_7  and  C_8
REMARK    3  A    between atoms: C_8  and  C_9
REMARK    4  A    between atoms: C_9  and  C_10
REMARK                            x       y       z     vdW  Elec       q    Type
REMARK                         _______ _______ _______ _____ _____    ______ ____
ROOT
ATOM      1  C   UNL     1      44.518   5.859  12.621  0.00  0.00    +0.000 A 
ATOM      2  C   UNL     1      44.935   6.922  11.834  0.00  0.00    +0.000 A 
ATOM      3  C   UNL     1      46.296   7.223  11.796  0.00  0.00    +0.000 A 
ATOM      4  C   UNL     1      47.201   6.488  12.566  0.00  0.00    +0.000 A 
ATOM      5  C   UNL     1      46.672   5.437  13.321  0.00  0.00    +0.000 A 
ATOM      6  N   UNL     1      45.361   5.099  13.373  0.00  0.00    +0.000 NA
ENDROOT
BRANCH   1   8
ATOM      7  N   UNL     1      42.272   6.141  11.741  0.00  0.00    +0.000 N 
ATOM      8  C   UNL     1      43.067   5.478  12.637  0.00  0.00    +0.000 C 
ATOM      9  O   UNL     1      42.612   4.637  13.402  0.00  0.00    +0.000 OA
ATOM     10  H   UNL     1      41.282   5.945  11.715  0.00  0.00    +0.000 HD
ATOM     11  H   UNL     1      42.679   6.839  11.130  0.00  0.00    +0.000 HD
ENDBRANCH   1   8
BRANCH   4  12
ATOM     12  C   UNL     1      48.699   6.691  12.522  0.00  0.00    +0.000 C 
BRANCH  12  13
ATOM     13  C   UNL     1      49.216   7.958  13.201  0.00  0.00    +0.000 C 
ATOM     14  C   UNL     1      49.309   9.224  12.359  0.00  0.00    +0.000 C 
ATOM     15  C   UNL     1      50.564   8.495  12.714  0.00  0.00    +0.000 C 
BRANCH  13  16
ATOM     16  C   UNL     1      48.992   8.071  14.709  0.00  0.00    +0.000 A 
ATOM     17  C   UNL     1      48.397   9.217  15.272  0.00  0.00    +0.000 A 
ATOM     18  C   UNL     1      48.130   9.306  16.641  0.00  0.00    +0.000 A 
ATOM     19  C   UNL     1      48.462   8.249  17.483  0.00  0.00    +0.000 A 
ATOM     20  C   UNL     1      49.065   7.112  16.957  0.00  0.00    +0.000 A 
ATOM     21  C   UNL     1      49.321   7.028  15.588  0.00  0.00    +0.000 A 
ENDBRANCH  13  16
ENDBRANCH  12  13
ENDBRANCH   4  12
TORSDOF 4
ENDMDL
