MODEL 1
REMARK VINA RESULT:    -8.522      0.000      0.000
REMARK INTER + INTRA:         -12.508
REMARK INTER:                 -11.511
REMARK INTRA:                  -0.997
REMARK UNBOUND:                -0.997
REMARK  Name = 
REMARK  7 active torsions:
REMARK  status: ('A' for Active; 'I' for Inactive)
REMARK    1  A    between atoms: C_1  and  O_2
REMARK    2  A    between atoms: O_2  and  C_3
REMARK    3  A    between atoms: C_7  and  C_8
REMARK    4  A    between atoms: C_8  and  N_9
REMARK    5  A    between atoms: C_13  and  C_14
REMARK    6  A    between atoms: C_14  and  N_15
REMARK    7  A    between atoms: C_16  and  C_18
REMARK                            x       y       z     vdW  Elec       q    Type
REMARK                         _______ _______ _______ _____ _____    ______ ____
ROOT
ATOM      1  N   UNL     1      44.218   2.818  12.284  0.00  0.00    +0.000 N 
ATOM      2  C   UNL     1      45.114   3.737  12.809  0.00  0.00    +0.000 A 
ATOM      3  N   UNL     1      44.856   5.053  12.693  0.00  0.00    +0.000 NA
ATOM      4  C   UNL     1      45.791   5.898  13.169  0.00  0.00    +0.000 A 
ATOM      5  C   UNL     1      46.977   5.503  13.734  0.00  0.00    +0.000 A 
ATOM      6  C   UNL     1      47.122   4.137  13.843  0.00  0.00    +0.000 A 
ATOM      7  N   UNL     1      46.221   3.245  13.382  0.00  0.00    +0.000 NA
ATOM      8  H   UNL     1      44.727   1.951  12.155  0.00  0.00    +0.000 HD
ENDROOT
BRANCH   1   9
ATOM      9  C   UNL     1      43.519   3.296  11.103  0.00  0.00    +0.000 C 
BRANCH   9  14
ATOM     10  C   UNL     1      45.875   1.977   8.391  0.00  0.00    +0.000 A 
ATOM     11  C   UNL     1      46.147   3.146   7.679  0.00  0.00    +0.000 A 
ATOM     12  C   UNL     1      45.581   4.357   8.081  0.00  0.00    +0.000 A 
ATOM     13  C   UNL     1      44.734   4.404   9.187  0.00  0.00    +0.000 A 
ATOM     14  C   UNL     1      44.438   3.237   9.905  0.00  0.00    +0.000 A 
ATOM     15  C   UNL     1      45.026   2.029   9.502  0.00  0.00    +0.000 A 
BRANCH  10  17
ATOM     16  C   UNL     1      47.197   0.624   6.953  0.00  0.00    +0.000 C 
ATOM     17  O   UNL     1      46.372   0.733   8.106  0.00  0.00    +0.000 OA
ENDBRANCH  10  17
ENDBRANCH   9  14
ENDBRANCH   1   9
BRANCH   5  18
ATOM     18  C   UNL     1      48.025   6.479  14.137  0.00  0.00    +0.000 C 
BRANCH  18  19
ATOM     19  N   UNL     1      48.095   6.716  15.558  0.00  0.00    +0.000 N 
ATOM     20  C   UNL     1      49.324   6.759  16.180  0.00  0.00    +0.000 C 
ATOM     21  O   UNL     1      50.364   6.616  15.537  0.00  0.00    +0.000 OA
ATOM     22  H   UNL     1      47.277   7.086  16.037  0.00  0.00    +0.000 HD
BRANCH  20  23
ATOM     23  C   UNL     1      49.346   6.897  17.640  0.00  0.00    +0.000 A 
ATOM     24  C   UNL     1      49.850   8.055  18.219  0.00  0.00    +0.000 A 
ATOM     25  S   UNL     1      50.084   7.922  19.905  0.00  0.00    +0.000 S 
ATOM     26  C   UNL     1      49.463   6.339  19.917  0.00  0.00    +0.000 A 
ATOM     27  N   UNL     1      49.473   5.580  21.046  0.00  0.00    +0.000 NA
ATOM     28  C   UNL     1      48.922   4.421  20.912  0.00  0.00    +0.000 A 
ATOM     29  N   UNL     1      48.320   3.967  19.766  0.00  0.00    +0.000 N 
ATOM     30  C   UNL     1      48.262   4.711  18.612  0.00  0.00    +0.000 A 
ATOM     31  O   UNL     1      47.634   4.335  17.627  0.00  0.00    +0.000 OA
ATOM     32  C   UNL     1      48.974   5.970  18.677  0.00  0.00    +0.000 A 
ATOM     33  H   UNL     1      47.836   3.081  19.751  0.00  0.00    +0.000 HD
ENDBRANCH  20  23
ENDBRANCH  18  19
ENDBRANCH   5  18
TORSDOF 6
ENDMDL
MODEL 2
REMARK VINA RESULT:    -8.257      1.843      2.696
REMARK INTER + INTRA:         -12.150
REMARK INTER:                 -11.262
REMARK INTRA:                  -0.888
REMARK UNBOUND:                -0.997
REMARK  Name = 
REMARK  7 active torsions:
REMARK  status: ('A' for Active; 'I' for Inactive)
REMARK    1  A    between atoms: C_1  and  O_2
REMARK    2  A    between atoms: O_2  and  C_3
REMARK    3  A    between atoms: C_7  and  C_8
REMARK    4  A    between atoms: C_8  and  N_9
REMARK    5  A    between atoms: C_13  and  C_14
REMARK    6  A    between atoms: C_14  and  N_15
REMARK    7  A    between atoms: C_16  and  C_18
REMARK                            x       y       z     vdW  Elec       q    Type
REMARK                         _______ _______ _______ _____ _____    ______ ____
ROOT
ATOM      1  N   UNL     1      44.145   2.849  12.348  0.00  0.00    +0.000 N 
ATOM      2  C   UNL     1      45.084   3.760  12.807  0.00  0.00    +0.000 A 
ATOM      3  N   UNL     1      44.862   5.078  12.644  0.00  0.00    +0.000 NA
ATOM      4  C   UNL     1      45.837   5.912  13.056  0.00  0.00    +0.000 A 
ATOM      5  C   UNL     1      47.028   5.504  13.600  0.00  0.00    +0.000 A 
ATOM      6  C   UNL     1      47.135   4.139  13.761  0.00  0.00    +0.000 A 
ATOM      7  N   UNL     1      46.194   3.257  13.366  0.00  0.00    +0.000 NA
ATOM      8  H   UNL     1      44.623   1.962  12.240  0.00  0.00    +0.000 HD
ENDROOT
BRANCH   1   9
ATOM      9  C   UNL     1      43.423   3.301  11.171  0.00  0.00    +0.000 C 
BRANCH   9  14
ATOM     10  C   UNL     1      45.738   1.944   8.441  0.00  0.00    +0.000 A 
ATOM     11  C   UNL     1      45.996   3.103   7.707  0.00  0.00    +0.000 A 
ATOM     12  C   UNL     1      45.433   4.319   8.099  0.00  0.00    +0.000 A 
ATOM     13  C   UNL     1      44.604   4.381   9.218  0.00  0.00    +0.000 A 
ATOM     14  C   UNL     1      44.322   3.225   9.958  0.00  0.00    +0.000 A 
ATOM     15  C   UNL     1      44.907   2.012   9.565  0.00  0.00    +0.000 A 
BRANCH  10  17
ATOM     16  C   UNL     1      47.208   0.609   7.135  0.00  0.00    +0.000 C 
ATOM     17  O   UNL     1      46.234   0.697   8.168  0.00  0.00    +0.000 OA
ENDBRANCH  10  17
ENDBRANCH   9  14
ENDBRANCH   1   9
BRANCH   5  18
ATOM     18  C   UNL     1      48.117   6.462  13.930  0.00  0.00    +0.000 C 
BRANCH  18  19
ATOM     19  N   UNL     1      47.981   7.087  15.222  0.00  0.00    +0.000 N 
ATOM     20  C   UNL     1      48.812   6.704  16.253  0.00  0.00    +0.000 C 
ATOM     21  O   UNL     1      49.682   5.850  16.080  0.00  0.00    +0.000 OA
ATOM     22  H   UNL     1      47.455   7.955  15.299  0.00  0.00    +0.000 HD
BRANCH  20  23
ATOM     23  C   UNL     1      48.573   7.288  17.576  0.00  0.00    +0.000 A 
ATOM     24  C   UNL     1      48.597   6.479  18.706  0.00  0.00    +0.000 A 
ATOM     25  S   UNL     1      48.000   7.251  20.105  0.00  0.00    +0.000 S 
ATOM     26  C   UNL     1      47.748   8.704  19.257  0.00  0.00    +0.000 A 
ATOM     27  N   UNL     1      47.144   9.773  19.843  0.00  0.00    +0.000 NA
ATOM     28  C   UNL     1      47.070  10.819  19.090  0.00  0.00    +0.000 A 
ATOM     29  N   UNL     1      47.586  10.911  17.822  0.00  0.00    +0.000 N 
ATOM     30  C   UNL     1      48.228   9.864  17.204  0.00  0.00    +0.000 A 
ATOM     31  O   UNL     1      48.771   9.991  16.111  0.00  0.00    +0.000 OA
ATOM     32  C   UNL     1      48.228   8.631  17.962  0.00  0.00    +0.000 A 
ATOM     33  H   UNL     1      47.564  11.784  17.316  0.00  0.00    +0.000 HD
ENDBRANCH  20  23
ENDBRANCH  18  19
ENDBRANCH   5  18
TORSDOF 6
ENDMDL
MODEL 3
REMARK VINA RESULT:    -8.041      2.122      2.309
REMARK INTER + INTRA:         -11.858
REMARK INTER:                 -11.098
REMARK INTRA:                  -0.760
REMARK UNBOUND:                -0.997
REMARK  Name = 
REMARK  7 active torsions:
REMARK  status: ('A' for Active; 'I' for Inactive)
REMARK    1  A    between atoms: C_1  and  O_2
REMARK    2  A    between atoms: O_2  and  C_3
REMARK    3  A    between atoms: C_7  and  C_8
REMARK    4  A    between atoms: C_8  and  N_9
REMARK    5  A    between atoms: C_13  and  C_14
REMARK    6  A    between atoms: C_14  and  N_15
REMARK    7  A    between atoms: C_16  and  C_18
REMARK                            x       y       z     vdW  Elec       q    Type
REMARK                         _______ _______ _______ _____ _____    ______ ____
ROOT
ATOM      1  N   UNL     1      44.315   2.836  12.244  0.00  0.00    +0.000 N 
ATOM      2  C   UNL     1      45.174   3.719  12.881  0.00  0.00    +0.000 A 
ATOM      3  N   UNL     1      44.894   5.036  12.873  0.00  0.00    +0.000 NA
ATOM      4  C   UNL     1      45.795   5.850  13.455  0.00  0.00    +0.000 A 
ATOM      5  C   UNL     1      46.969   5.427  14.024  0.00  0.00    +0.000 A 
ATOM      6  C   UNL     1      47.138   4.059  14.016  0.00  0.00    +0.000 A 
ATOM      7  N   UNL     1      46.271   3.197  13.446  0.00  0.00    +0.000 NA
ATOM      8  H   UNL     1      44.844   1.993  12.058  0.00  0.00    +0.000 HD
ENDROOT
BRANCH   1   9
ATOM      9  C   UNL     1      43.647   3.406  11.087  0.00  0.00    +0.000 C 
BRANCH   9  14
ATOM     10  C   UNL     1      45.928   2.003   8.353  0.00  0.00    +0.000 A 
ATOM     11  C   UNL     1      46.226   3.160   7.632  0.00  0.00    +0.000 A 
ATOM     12  C   UNL     1      45.703   4.390   8.035  0.00  0.00    +0.000 A 
ATOM     13  C   UNL     1      44.871   4.468   9.151  0.00  0.00    +0.000 A 
ATOM     14  C   UNL     1      44.548   3.314   9.878  0.00  0.00    +0.000 A 
ATOM     15  C   UNL     1      45.094   2.086   9.474  0.00  0.00    +0.000 A 
BRANCH  10  17
ATOM     16  C   UNL     1      47.162   0.598   6.887  0.00  0.00    +0.000 C 
ATOM     17  O   UNL     1      46.383   0.743   8.068  0.00  0.00    +0.000 OA
ENDBRANCH  10  17
ENDBRANCH   9  14
ENDBRANCH   1   9
BRANCH   5  18
ATOM     18  C   UNL     1      47.984   6.381  14.549  0.00  0.00    +0.000 C 
BRANCH  18  19
ATOM     19  N   UNL     1      49.020   5.763  15.338  0.00  0.00    +0.000 N 
ATOM     20  C   UNL     1      48.777   5.457  16.660  0.00  0.00    +0.000 C 
ATOM     21  O   UNL     1      47.680   5.687  17.171  0.00  0.00    +0.000 OA
ATOM     22  H   UNL     1      49.817   5.342  14.865  0.00  0.00    +0.000 HD
BRANCH  20  23
ATOM     23  C   UNL     1      49.889   4.927  17.454  0.00  0.00    +0.000 A 
ATOM     24  C   UNL     1      50.635   5.779  18.259  0.00  0.00    +0.000 A 
ATOM     25  S   UNL     1      52.062   5.064  18.863  0.00  0.00    +0.000 S 
ATOM     26  C   UNL     1      51.694   3.580  18.117  0.00  0.00    +0.000 A 
ATOM     27  N   UNL     1      52.566   2.537  18.142  0.00  0.00    +0.000 NA
ATOM     28  C   UNL     1      52.125   1.462  17.579  0.00  0.00    +0.000 A 
ATOM     29  N   UNL     1      50.874   1.320  17.034  0.00  0.00    +0.000 N 
ATOM     30  C   UNL     1      49.952   2.339  17.013  0.00  0.00    +0.000 A 
ATOM     31  O   UNL     1      48.805   2.168  16.614  0.00  0.00    +0.000 OA
ATOM     32  C   UNL     1      50.444   3.600  17.524  0.00  0.00    +0.000 A 
ATOM     33  H   UNL     1      50.562   0.427  16.679  0.00  0.00    +0.000 HD
ENDBRANCH  20  23
ENDBRANCH  18  19
ENDBRANCH   5  18
TORSDOF 6
ENDMDL
MODEL 4
REMARK VINA RESULT:    -7.522      3.637      8.296
REMARK INTER + INTRA:         -11.158
REMARK INTER:                 -10.043
REMARK INTRA:                  -1.115
REMARK UNBOUND:                -0.997
REMARK  Name = 
REMARK  7 active torsions:
REMARK  status: ('A' for Active; 'I' for Inactive)
REMARK    1  A    between atoms: C_1  and  O_2
REMARK    2  A    between atoms: O_2  and  C_3
REMARK    3  A    between atoms: C_7  and  C_8
REMARK    4  A    between atoms: C_8  and  N_9
REMARK    5  A    between atoms: C_13  and  C_14
REMARK    6  A    between atoms: C_14  and  N_15
REMARK    7  A    between atoms: C_16  and  C_18
REMARK                            x       y       z     vdW  Elec       q    Type
REMARK                         _______ _______ _______ _____ _____    ______ ____
ROOT
ATOM      1  N   UNL     1      50.495   6.829  17.225  0.00  0.00    +0.000 N 
ATOM      2  C   UNL     1      49.878   7.298  16.075  0.00  0.00    +0.000 A 
ATOM      3  N   UNL     1      48.665   7.877  16.165  0.00  0.00    +0.000 NA
ATOM      4  C   UNL     1      48.090   8.258  15.008  0.00  0.00    +0.000 A 
ATOM      5  C   UNL     1      48.645   8.075  13.768  0.00  0.00    +0.000 A 
ATOM      6  C   UNL     1      49.904   7.513  13.792  0.00  0.00    +0.000 A 
ATOM      7  N   UNL     1      50.527   7.110  14.918  0.00  0.00    +0.000 NA
ATOM      8  H   UNL     1      51.185   6.148  16.931  0.00  0.00    +0.000 HD
ENDROOT
BRANCH   1   9
ATOM      9  C   UNL     1      49.563   6.358  18.235  0.00  0.00    +0.000 C 
BRANCH   9  14
ATOM     10  C   UNL     1      49.247   2.745  17.012  0.00  0.00    +0.000 A 
ATOM     11  C   UNL     1      47.861   2.580  17.017  0.00  0.00    +0.000 A 
ATOM     12  C   UNL     1      47.032   3.635  17.403  0.00  0.00    +0.000 A 
ATOM     13  C   UNL     1      47.583   4.854  17.795  0.00  0.00    +0.000 A 
ATOM     14  C   UNL     1      48.973   5.033  17.810  0.00  0.00    +0.000 A 
ATOM     15  C   UNL     1      49.795   3.971  17.404  0.00  0.00    +0.000 A 
BRANCH  10  17
ATOM     16  C   UNL     1      51.385   1.776  17.377  0.00  0.00    +0.000 C 
ATOM     17  O   UNL     1      50.164   1.795  16.648  0.00  0.00    +0.000 OA
ENDBRANCH  10  17
ENDBRANCH   9  14
ENDBRANCH   1   9
BRANCH   5  18
ATOM     18  C   UNL     1      47.915   8.410  12.515  0.00  0.00    +0.000 C 
BRANCH  18  19
ATOM     19  N   UNL     1      47.467   7.260  11.769  0.00  0.00    +0.000 N 
ATOM     20  C   UNL     1      46.118   6.994  11.676  0.00  0.00    +0.000 C 
ATOM     21  O   UNL     1      45.289   7.734  12.207  0.00  0.00    +0.000 OA
ATOM     22  H   UNL     1      48.112   6.806  11.127  0.00  0.00    +0.000 HD
BRANCH  20  23
ATOM     23  C   UNL     1      45.710   5.759  10.998  0.00  0.00    +0.000 A 
ATOM     24  C   UNL     1      45.894   5.627   9.628  0.00  0.00    +0.000 A 
ATOM     25  S   UNL     1      45.092   4.275   8.963  0.00  0.00    +0.000 S 
ATOM     26  C   UNL     1      44.527   3.795  10.494  0.00  0.00    +0.000 A 
ATOM     27  N   UNL     1      43.672   2.748  10.639  0.00  0.00    +0.000 NA
ATOM     28  C   UNL     1      43.373   2.472  11.864  0.00  0.00    +0.000 A 
ATOM     29  N   UNL     1      43.887   3.116  12.961  0.00  0.00    +0.000 N 
ATOM     30  C   UNL     1      44.776   4.160  12.860  0.00  0.00    +0.000 A 
ATOM     31  O   UNL     1      45.304   4.660  13.848  0.00  0.00    +0.000 OA
ATOM     32  C   UNL     1      45.047   4.585  11.503  0.00  0.00    +0.000 A 
ATOM     33  H   UNL     1      43.674   2.799  13.895  0.00  0.00    +0.000 HD
ENDBRANCH  20  23
ENDBRANCH  18  19
ENDBRANCH   5  18
TORSDOF 6
ENDMDL
MODEL 5
REMARK VINA RESULT:    -7.010      3.317      8.788
REMARK INTER + INTRA:         -10.465
REMARK INTER:                  -9.429
REMARK INTRA:                  -1.037
REMARK UNBOUND:                -0.997
REMARK  Name = 
REMARK  7 active torsions:
REMARK  status: ('A' for Active; 'I' for Inactive)
REMARK    1  A    between atoms: C_1  and  O_2
REMARK    2  A    between atoms: O_2  and  C_3
REMARK    3  A    between atoms: C_7  and  C_8
REMARK    4  A    between atoms: C_8  and  N_9
REMARK    5  A    between atoms: C_13  and  C_14
REMARK    6  A    between atoms: C_14  and  N_15
REMARK    7  A    between atoms: C_16  and  C_18
REMARK                            x       y       z     vdW  Elec       q    Type
REMARK                         _______ _______ _______ _____ _____    ______ ____
ROOT
ATOM      1  N   UNL     1      50.186   7.333  16.843  0.00  0.00    +0.000 N 
ATOM      2  C   UNL     1      49.616   7.514  15.592  0.00  0.00    +0.000 A 
ATOM      3  N   UNL     1      48.340   7.935  15.501  0.00  0.00    +0.000 NA
ATOM      4  C   UNL     1      47.823   8.034  14.261  0.00  0.00    +0.000 A 
ATOM      5  C   UNL     1      48.498   7.717  13.111  0.00  0.00    +0.000 A 
ATOM      6  C   UNL     1      49.808   7.339  13.313  0.00  0.00    +0.000 A 
ATOM      7  N   UNL     1      50.378   7.219  14.530  0.00  0.00    +0.000 NA
ATOM      8  H   UNL     1      50.975   6.709  16.720  0.00  0.00    +0.000 HD
ENDROOT
BRANCH   1   9
ATOM      9  C   UNL     1      49.235   6.922  17.862  0.00  0.00    +0.000 C 
BRANCH   9  14
ATOM     10  C   UNL     1      49.448   3.148  17.259  0.00  0.00    +0.000 A 
ATOM     11  C   UNL     1      48.095   2.804  17.233  0.00  0.00    +0.000 A 
ATOM     12  C   UNL     1      47.120   3.788  17.398  0.00  0.00    +0.000 A 
ATOM     13  C   UNL     1      47.489   5.117  17.600  0.00  0.00    +0.000 A 
ATOM     14  C   UNL     1      48.843   5.479  17.644  0.00  0.00    +0.000 A 
ATOM     15  C   UNL     1      49.814   4.484  17.460  0.00  0.00    +0.000 A 
BRANCH  10  17
ATOM     16  C   UNL     1      51.763   2.719  17.581  0.00  0.00    +0.000 C 
ATOM     17  O   UNL     1      50.497   2.282  17.102  0.00  0.00    +0.000 OA
ENDBRANCH  10  17
ENDBRANCH   9  14
ENDBRANCH   1   9
BRANCH   5  18
ATOM     18  C   UNL     1      47.841   7.735  11.776  0.00  0.00    +0.000 C 
BRANCH  18  19
ATOM     19  N   UNL     1      47.024   6.578  11.506  0.00  0.00    +0.000 N 
ATOM     20  C   UNL     1      45.654   6.712  11.446  0.00  0.00    +0.000 C 
ATOM     21  O   UNL     1      45.118   7.811  11.602  0.00  0.00    +0.000 OA
ATOM     22  H   UNL     1      47.462   5.741  11.127  0.00  0.00    +0.000 HD
BRANCH  20  23
ATOM     23  C   UNL     1      44.855   5.495  11.274  0.00  0.00    +0.000 A 
ATOM     24  C   UNL     1      43.908   5.146  12.228  0.00  0.00    +0.000 A 
ATOM     25  S   UNL     1      43.298   3.564  12.031  0.00  0.00    +0.000 S 
ATOM     26  C   UNL     1      44.236   3.323  10.633  0.00  0.00    +0.000 A 
ATOM     27  N   UNL     1      44.277   2.118  10.003  0.00  0.00    +0.000 NA
ATOM     28  C   UNL     1      44.991   2.104   8.928  0.00  0.00    +0.000 A 
ATOM     29  N   UNL     1      45.631   3.196   8.398  0.00  0.00    +0.000 N 
ATOM     30  C   UNL     1      45.593   4.437   8.986  0.00  0.00    +0.000 A 
ATOM     31  O   UNL     1      46.086   5.425   8.450  0.00  0.00    +0.000 OA
ATOM     32  C   UNL     1      44.905   4.475  10.259  0.00  0.00    +0.000 A 
ATOM     33  H   UNL     1      46.109   3.136   7.511  0.00  0.00    +0.000 HD
ENDBRANCH  20  23
ENDBRANCH  18  19
ENDBRANCH   5  18
TORSDOF 6
ENDMDL
MODEL 6
REMARK VINA RESULT:    -6.975      3.787      8.689
REMARK INTER + INTRA:         -10.419
REMARK INTER:                  -9.300
REMARK INTRA:                  -1.119
REMARK UNBOUND:                -0.997
REMARK  Name = 
REMARK  7 active torsions:
REMARK  status: ('A' for Active; 'I' for Inactive)
REMARK    1  A    between atoms: C_1  and  O_2
REMARK    2  A    between atoms: O_2  and  C_3
REMARK    3  A    between atoms: C_7  and  C_8
REMARK    4  A    between atoms: C_8  and  N_9
REMARK    5  A    between atoms: C_13  and  C_14
REMARK    6  A    between atoms: C_14  and  N_15
REMARK    7  A    between atoms: C_16  and  C_18
REMARK                            x       y       z     vdW  Elec       q    Type
REMARK                         _______ _______ _______ _____ _____    ______ ____
ROOT
ATOM      1  N   UNL     1      52.621   6.131  17.966  0.00  0.00    +0.000 N 
ATOM      2  C   UNL     1      51.688   6.759  17.154  0.00  0.00    +0.000 A 
ATOM      3  N   UNL     1      50.468   7.044  17.648  0.00  0.00    +0.000 NA
ATOM      4  C   UNL     1      49.585   7.599  16.795  0.00  0.00    +0.000 A 
ATOM      5  C   UNL     1      49.844   7.866  15.475  0.00  0.00    +0.000 A 
ATOM      6  C   UNL     1      51.134   7.576  15.084  0.00  0.00    +0.000 A 
ATOM      7  N   UNL     1      52.058   7.017  15.893  0.00  0.00    +0.000 NA
ATOM      8  H   UNL     1      53.303   5.702  17.352  0.00  0.00    +0.000 HD
ENDROOT
BRANCH   1   9
ATOM      9  C   UNL     1      52.031   5.235  18.945  0.00  0.00    +0.000 C 
BRANCH   9  14
ATOM     10  C   UNL     1      50.781   2.121  17.102  0.00  0.00    +0.000 A 
ATOM     11  C   UNL     1      51.828   1.230  17.340  0.00  0.00    +0.000 A 
ATOM     12  C   UNL     1      52.927   1.629  18.102  0.00  0.00    +0.000 A 
ATOM     13  C   UNL     1      52.991   2.922  18.620  0.00  0.00    +0.000 A 
ATOM     14  C   UNL     1      51.955   3.835  18.379  0.00  0.00    +0.000 A 
ATOM     15  C   UNL     1      50.848   3.417  17.626  0.00  0.00    +0.000 A 
BRANCH  10  17
ATOM     16  C   UNL     1      48.517   2.673  16.639  0.00  0.00    +0.000 C 
ATOM     17  O   UNL     1      49.648   1.851  16.382  0.00  0.00    +0.000 OA
ENDBRANCH  10  17
ENDBRANCH   9  14
ENDBRANCH   1   9
BRANCH   5  18
ATOM     18  C   UNL     1      48.795   8.372  14.549  0.00  0.00    +0.000 C 
BRANCH  18  19
ATOM     19  N   UNL     1      47.699   7.459  14.344  0.00  0.00    +0.000 N 
ATOM     20  C   UNL     1      47.841   6.415  13.455  0.00  0.00    +0.000 C 
ATOM     21  O   UNL     1      48.897   6.242  12.846  0.00  0.00    +0.000 OA
ATOM     22  H   UNL     1      46.937   7.442  15.019  0.00  0.00    +0.000 HD
BRANCH  20  23
ATOM     23  C   UNL     1      46.669   5.572  13.198  0.00  0.00    +0.000 A 
ATOM     24  C   UNL     1      46.722   4.210  13.465  0.00  0.00    +0.000 A 
ATOM     25  S   UNL     1      45.399   3.342  12.826  0.00  0.00    +0.000 S 
ATOM     26  C   UNL     1      44.688   4.767  12.228  0.00  0.00    +0.000 A 
ATOM     27  N   UNL     1      43.563   4.734  11.465  0.00  0.00    +0.000 NA
ATOM     28  C   UNL     1      43.114   5.897  11.129  0.00  0.00    +0.000 A 
ATOM     29  N   UNL     1      43.661   7.092  11.524  0.00  0.00    +0.000 N 
ATOM     30  C   UNL     1      44.780   7.171  12.317  0.00  0.00    +0.000 A 
ATOM     31  O   UNL     1      45.199   8.242  12.744  0.00  0.00    +0.000 OA
ATOM     32  C   UNL     1      45.390   5.893  12.619  0.00  0.00    +0.000 A 
ATOM     33  H   UNL     1      43.215   7.967  11.291  0.00  0.00    +0.000 HD
ENDBRANCH  20  23
ENDBRANCH  18  19
ENDBRANCH   5  18
TORSDOF 6
ENDMDL
MODEL 7
REMARK VINA RESULT:    -6.805      3.695      9.390
REMARK INTER + INTRA:         -10.189
REMARK INTER:                  -9.317
REMARK INTRA:                  -0.872
REMARK UNBOUND:                -0.997
REMARK  Name = 
REMARK  7 active torsions:
REMARK  status: ('A' for Active; 'I' for Inactive)
REMARK    1  A    between atoms: C_1  and  O_2
REMARK    2  A    between atoms: O_2  and  C_3
REMARK    3  A    between atoms: C_7  and  C_8
REMARK    4  A    between atoms: C_8  and  N_9
REMARK    5  A    between atoms: C_13  and  C_14
REMARK    6  A    between atoms: C_14  and  N_15
REMARK    7  A    between atoms: C_16  and  C_18
REMARK                            x       y       z     vdW  Elec       q    Type
REMARK                         _______ _______ _______ _____ _____    ______ ____
ROOT
ATOM      1  N   UNL     1      50.425   6.404  18.085  0.00  0.00    +0.000 N 
ATOM      2  C   UNL     1      49.914   6.620  16.815  0.00  0.00    +0.000 A 
ATOM      3  N   UNL     1      48.655   6.231  16.534  0.00  0.00    +0.000 NA
ATOM      4  C   UNL     1      48.234   6.413  15.267  0.00  0.00    +0.000 A 
ATOM      5  C   UNL     1      49.004   6.939  14.262  0.00  0.00    +0.000 A 
ATOM      6  C   UNL     1      50.259   7.343  14.665  0.00  0.00    +0.000 A 
ATOM      7  N   UNL     1      50.734   7.184  15.918  0.00  0.00    +0.000 NA
ATOM      8  H   UNL     1      51.435   6.430  18.004  0.00  0.00    +0.000 HD
ENDROOT
BRANCH   1   9
ATOM      9  C   UNL     1      49.895   5.216  18.732  0.00  0.00    +0.000 C 
BRANCH   9  14
ATOM     10  C   UNL     1      52.806   2.776  18.259  0.00  0.00    +0.000 A 
ATOM     11  C   UNL     1      52.184   1.752  17.542  0.00  0.00    +0.000 A 
ATOM     12  C   UNL     1      50.834   1.856  17.203  0.00  0.00    +0.000 A 
ATOM     13  C   UNL     1      50.097   2.975  17.587  0.00  0.00    +0.000 A 
ATOM     14  C   UNL     1      50.701   4.006  18.321  0.00  0.00    +0.000 A 
ATOM     15  C   UNL     1      52.062   3.899  18.641  0.00  0.00    +0.000 A 
BRANCH  10  17
ATOM     16  C   UNL     1      54.438   3.598  19.778  0.00  0.00    +0.000 C 
ATOM     17  O   UNL     1      54.120   2.799  18.645  0.00  0.00    +0.000 OA
ENDBRANCH  10  17
ENDBRANCH   9  14
ENDBRANCH   1   9
BRANCH   5  18
ATOM     18  C   UNL     1      48.528   7.010  12.854  0.00  0.00    +0.000 C 
BRANCH  18  19
ATOM     19  N   UNL     1      47.526   6.028  12.521  0.00  0.00    +0.000 N 
ATOM     20  C   UNL     1      46.328   6.437  11.976  0.00  0.00    +0.000 C 
ATOM     21  O   UNL     1      46.109   7.628  11.752  0.00  0.00    +0.000 OA
ATOM     22  H   UNL     1      47.795   5.048  12.460  0.00  0.00    +0.000 HD
BRANCH  20  23
ATOM     23  C   UNL     1      45.298   5.419  11.749  0.00  0.00    +0.000 A 
ATOM     24  C   UNL     1      44.425   5.075  12.773  0.00  0.00    +0.000 A 
ATOM     25  S   UNL     1      43.507   3.675  12.440  0.00  0.00    +0.000 S 
ATOM     26  C   UNL     1      44.204   3.525  10.896  0.00  0.00    +0.000 A 
ATOM     27  N   UNL     1      43.937   2.456  10.097  0.00  0.00    +0.000 NA
ATOM     28  C   UNL     1      44.499   2.508   8.936  0.00  0.00    +0.000 A 
ATOM     29  N   UNL     1      45.266   3.552   8.482  0.00  0.00    +0.000 N 
ATOM     30  C   UNL     1      45.536   4.662   9.245  0.00  0.00    +0.000 A 
ATOM     31  O   UNL     1      46.138   5.631   8.792  0.00  0.00    +0.000 OA
ATOM     32  C   UNL     1      45.029   4.595  10.599  0.00  0.00    +0.000 A 
ATOM     33  H   UNL     1      45.611   3.566   7.533  0.00  0.00    +0.000 HD
ENDBRANCH  20  23
ENDBRANCH  18  19
ENDBRANCH   5  18
TORSDOF 6
ENDMDL
MODEL 8
REMARK VINA RESULT:    -6.686      3.757      7.918
REMARK INTER + INTRA:         -10.029
REMARK INTER:                  -8.988
REMARK INTRA:                  -1.040
REMARK UNBOUND:                -0.997
REMARK  Name = 
REMARK  7 active torsions:
REMARK  status: ('A' for Active; 'I' for Inactive)
REMARK    1  A    between atoms: C_1  and  O_2
REMARK    2  A    between atoms: O_2  and  C_3
REMARK    3  A    between atoms: C_7  and  C_8
REMARK    4  A    between atoms: C_8  and  N_9
REMARK    5  A    between atoms: C_13  and  C_14
REMARK    6  A    between atoms: C_14  and  N_15
REMARK    7  A    between atoms: C_16  and  C_18
REMARK                            x       y       z     vdW  Elec       q    Type
REMARK                         _______ _______ _______ _____ _____    ______ ____
ROOT
ATOM      1  N   UNL     1      50.676   6.145  19.079  0.00  0.00    +0.000 N 
ATOM      2  C   UNL     1      50.178   7.071  18.175  0.00  0.00    +0.000 A 
ATOM      3  N   UNL     1      48.933   7.556  18.344  0.00  0.00    +0.000 NA
ATOM      4  C   UNL     1      48.482   8.407  17.402  0.00  0.00    +0.000 A 
ATOM      5  C   UNL     1      49.194   8.783  16.292  0.00  0.00    +0.000 A 
ATOM      6  C   UNL     1      50.470   8.263  16.238  0.00  0.00    +0.000 A 
ATOM      7  N   UNL     1      50.973   7.406  17.150  0.00  0.00    +0.000 NA
ATOM      8  H   UNL     1      51.435   5.659  18.614  0.00  0.00    +0.000 HD
ENDROOT
BRANCH   1   9
ATOM      9  C   UNL     1      49.657   5.282  19.650  0.00  0.00    +0.000 C 
BRANCH   9  14
ATOM     10  C   UNL     1      49.540   2.503  17.020  0.00  0.00    +0.000 A 
ATOM     11  C   UNL     1      48.197   2.547  16.642  0.00  0.00    +0.000 A 
ATOM     12  C   UNL     1      47.337   3.479  17.226  0.00  0.00    +0.000 A 
ATOM     13  C   UNL     1      47.809   4.361  18.196  0.00  0.00    +0.000 A 
ATOM     14  C   UNL     1      49.151   4.321  18.599  0.00  0.00    +0.000 A 
ATOM     15  C   UNL     1      50.011   3.392  17.993  0.00  0.00    +0.000 A 
BRANCH  10  17
ATOM     16  C   UNL     1      51.623   1.404  17.337  0.00  0.00    +0.000 C 
ATOM     17  O   UNL     1      50.484   1.647  16.520  0.00  0.00    +0.000 OA
ENDBRANCH  10  17
ENDBRANCH   9  14
ENDBRANCH   1   9
BRANCH   5  18
ATOM     18  C   UNL     1      48.603   9.634  15.223  0.00  0.00    +0.000 C 
BRANCH  18  19
ATOM     19  N   UNL     1      47.473   9.039  14.554  0.00  0.00    +0.000 N 
ATOM     20  C   UNL     1      47.684   8.080  13.586  0.00  0.00    +0.000 C 
ATOM     21  O   UNL     1      48.824   7.711  13.299  0.00  0.00    +0.000 OA
ATOM     22  H   UNL     1      46.546   9.146  14.959  0.00  0.00    +0.000 HD
BRANCH  20  23
ATOM     23  C   UNL     1      46.516   7.577  12.857  0.00  0.00    +0.000 A 
ATOM     24  C   UNL     1      45.809   8.422  12.011  0.00  0.00    +0.000 A 
ATOM     25  S   UNL     1      44.320   7.771  11.492  0.00  0.00    +0.000 S 
ATOM     26  C   UNL     1      44.604   6.320  12.332  0.00  0.00    +0.000 A 
ATOM     27  N   UNL     1      43.661   5.342  12.401  0.00  0.00    +0.000 NA
ATOM     28  C   UNL     1      44.042   4.280  13.029  0.00  0.00    +0.000 A 
ATOM     29  N   UNL     1      45.294   4.087  13.554  0.00  0.00    +0.000 N 
ATOM     30  C   UNL     1      46.285   5.037  13.482  0.00  0.00    +0.000 A 
ATOM     31  O   UNL     1      47.429   4.812  13.866  0.00  0.00    +0.000 OA
ATOM     32  C   UNL     1      45.868   6.292  12.894  0.00  0.00    +0.000 A 
ATOM     33  H   UNL     1      45.553   3.201  13.964  0.00  0.00    +0.000 HD
ENDBRANCH  20  23
ENDBRANCH  18  19
ENDBRANCH   5  18
TORSDOF 6
ENDMDL
MODEL 9
REMARK VINA RESULT:    -6.321      3.442     10.114
REMARK INTER + INTRA:          -9.535
REMARK INTER:                  -8.564
REMARK INTRA:                  -0.971
REMARK UNBOUND:                -0.997
REMARK  Name = 
REMARK  7 active torsions:
REMARK  status: ('A' for Active; 'I' for Inactive)
REMARK    1  A    between atoms: C_1  and  O_2
REMARK    2  A    between atoms: O_2  and  C_3
REMARK    3  A    between atoms: C_7  and  C_8
REMARK    4  A    between atoms: C_8  and  N_9
REMARK    5  A    between atoms: C_13  and  C_14
REMARK    6  A    between atoms: C_14  and  N_15
REMARK    7  A    between atoms: C_16  and  C_18
REMARK                            x       y       z     vdW  Elec       q    Type
REMARK                         _______ _______ _______ _____ _____    ______ ____
ROOT
ATOM      1  N   UNL     1      50.018   5.260  17.890  0.00  0.00    +0.000 N 
ATOM      2  C   UNL     1      49.457   5.621  16.675  0.00  0.00    +0.000 A 
ATOM      3  N   UNL     1      49.970   6.662  15.993  0.00  0.00    +0.000 NA
ATOM      4  C   UNL     1      49.346   7.004  14.849  0.00  0.00    +0.000 A 
ATOM      5  C   UNL     1      48.228   6.379  14.360  0.00  0.00    +0.000 A 
ATOM      6  C   UNL     1      47.811   5.301  15.110  0.00  0.00    +0.000 A 
ATOM      7  N   UNL     1      48.394   4.916  16.264  0.00  0.00    +0.000 NA
ATOM      8  H   UNL     1      49.317   4.724  18.390  0.00  0.00    +0.000 HD
ENDROOT
BRANCH   1   9
ATOM      9  C   UNL     1      50.574   6.379  18.630  0.00  0.00    +0.000 C 
BRANCH   9  14
ATOM     10  C   UNL     1      48.296   9.018  20.209  0.00  0.00    +0.000 A 
ATOM     11  C   UNL     1      47.489   8.223  21.025  0.00  0.00    +0.000 A 
ATOM     12  C   UNL     1      47.689   6.842  21.074  0.00  0.00    +0.000 A 
ATOM     13  C   UNL     1      48.685   6.249  20.301  0.00  0.00    +0.000 A 
ATOM     14  C   UNL     1      49.495   7.029  19.464  0.00  0.00    +0.000 A 
ATOM     15  C   UNL     1      49.296   8.418  19.437  0.00  0.00    +0.000 A 
BRANCH  10  17
ATOM     16  C   UNL     1      47.172  10.874  19.240  0.00  0.00    +0.000 C 
ATOM     17  O   UNL     1      48.208  10.378  20.080  0.00  0.00    +0.000 OA
ENDBRANCH  10  17
ENDBRANCH   9  14
ENDBRANCH   1   9
BRANCH   5  18
ATOM     18  C   UNL     1      47.511   6.871  13.152  0.00  0.00    +0.000 C 
BRANCH  18  19
ATOM     19  N   UNL     1      46.813   5.843  12.421  0.00  0.00    +0.000 N 
ATOM     20  C   UNL     1      45.437   5.877  12.347  0.00  0.00    +0.000 C 
ATOM     21  O   UNL     1      44.797   6.784  12.881  0.00  0.00    +0.000 OA
ATOM     22  H   UNL     1      47.335   5.255  11.775  0.00  0.00    +0.000 HD
BRANCH  20  23
ATOM     23  C   UNL     1      44.761   4.758  11.684  0.00  0.00    +0.000 A 
ATOM     24  C   UNL     1      43.825   4.003  12.379  0.00  0.00    +0.000 A 
ATOM     25  S   UNL     1      43.372   2.571  11.569  0.00  0.00    +0.000 S 
ATOM     26  C   UNL     1      44.366   2.948  10.242  0.00  0.00    +0.000 A 
ATOM     27  N   UNL     1      44.536   2.076   9.212  0.00  0.00    +0.000 NA
ATOM     28  C   UNL     1      45.278   2.524   8.254  0.00  0.00    +0.000 A 
ATOM     29  N   UNL     1      45.827   3.780   8.210  0.00  0.00    +0.000 N 
ATOM     30  C   UNL     1      45.657   4.701   9.216  0.00  0.00    +0.000 A 
ATOM     31  O   UNL     1      46.069   5.853   9.118  0.00  0.00    +0.000 OA
ATOM     32  C   UNL     1      44.934   4.203  10.367  0.00  0.00    +0.000 A 
ATOM     33  H   UNL     1      46.332   4.097   7.395  0.00  0.00    +0.000 HD
ENDBRANCH  20  23
ENDBRANCH  18  19
ENDBRANCH   5  18
TORSDOF 6
ENDMDL
