MODEL 1
REMARK VINA RESULT:    -7.328      0.000      0.000
REMARK INTER + INTRA:         -10.874
REMARK INTER:                  -9.898
REMARK INTRA:                  -0.976
REMARK UNBOUND:                -0.976
REMARK  Name = 
REMARK  7 active torsions:
REMARK  status: ('A' for Active; 'I' for Inactive)
REMARK    1  A    between atoms: C_1  and  O_2
REMARK    2  A    between atoms: O_2  and  C_3
REMARK    3  A    between atoms: C_5  and  C_6
REMARK    4  A    between atoms: C_6  and  N_7
REMARK    5  A    between atoms: C_8  and  C_10
REMARK    6  A    between atoms: C_22  and  C_23
REMARK    7  A    between atoms: C_23  and  N_24
REMARK                            x       y       z     vdW  Elec       q    Type
REMARK                         _______ _______ _______ _____ _____    ______ ____
ROOT
ATOM      1  C   UNL     1      45.423   7.307  12.548  0.00  0.00    +0.000 C 
ENDROOT
BRANCH   1   4
ATOM      2  C   UNL     1      44.308   4.299  10.510  0.00  0.00    +0.000 A 
ATOM      3  C   UNL     1      44.329   5.294  11.495  0.00  0.00    +0.000 A 
ATOM      4  C   UNL     1      45.261   6.328  11.412  0.00  0.00    +0.000 A 
ATOM      5  N   UNL     1      46.099   6.442  10.355  0.00  0.00    +0.000 NA
ATOM      6  C   UNL     1      46.010   5.491   9.388  0.00  0.00    +0.000 A 
ATOM      7  C   UNL     1      45.149   4.388   9.396  0.00  0.00    +0.000 A 
BRANCH   2   9
ATOM      8  C   UNL     1      43.404   2.771  12.064  0.00  0.00    +0.000 C 
ATOM      9  O   UNL     1      43.393   3.308  10.745  0.00  0.00    +0.000 OA
ENDBRANCH   2   9
BRANCH   7  10
ATOM     10  C   UNL     1      45.264   3.396   8.259  0.00  0.00    +0.000 C 
BRANCH  10  11
ATOM     11  N   UNL     1      46.576   2.965   7.775  0.00  0.00    +0.000 NA
ATOM     12  C   UNL     1      47.063   3.597   6.555  0.00  0.00    +0.000 C 
ATOM     13  C   UNL     1      46.795   2.580   5.465  0.00  0.00    +0.000 C 
ATOM     14  C   UNL     1      47.039   1.254   6.160  0.00  0.00    +0.000 C 
ATOM     15  C   UNL     1      46.770   1.523   7.636  0.00  0.00    +0.000 C 
ENDBRANCH  10  11
ENDBRANCH   7  10
ENDBRANCH   1   4
BRANCH   1  16
ATOM     16  N   UNL     1      46.232   6.811  13.640  0.00  0.00    +0.000 N 
ATOM     17  C   UNL     1      47.579   7.024  13.704  0.00  0.00    +0.000 C 
ATOM     18  O   UNL     1      48.184   7.619  12.813  0.00  0.00    +0.000 OA
ATOM     19  H   UNL     1      45.773   6.183  14.295  0.00  0.00    +0.000 HD
BRANCH  17  20
ATOM     20  C   UNL     1      48.275   6.575  14.919  0.00  0.00    +0.000 A 
ATOM     21  C   UNL     1      49.278   7.366  15.463  0.00  0.00    +0.000 A 
ATOM     22  S   UNL     1      49.976   6.721  16.876  0.00  0.00    +0.000 S 
ATOM     23  C   UNL     1      48.994   5.335  16.791  0.00  0.00    +0.000 A 
ATOM     24  N   UNL     1      49.119   4.334  17.705  0.00  0.00    +0.000 NA
ATOM     25  C   UNL     1      48.337   3.327  17.501  0.00  0.00    +0.000 A 
ATOM     26  N   UNL     1      47.431   3.237  16.478  0.00  0.00    +0.000 N 
ATOM     27  C   UNL     1      47.224   4.251  15.571  0.00  0.00    +0.000 A 
ATOM     28  O   UNL     1      46.328   4.186  14.738  0.00  0.00    +0.000 OA
ATOM     29  C   UNL     1      48.115   5.384  15.723  0.00  0.00    +0.000 A 
ATOM     30  H   UNL     1      46.826   2.434  16.390  0.00  0.00    +0.000 HD
ENDBRANCH  17  20
ENDBRANCH   1  16
TORSDOF 6
ENDMDL
MODEL 2
REMARK VINA RESULT:    -6.886      3.829      9.241
REMARK INTER + INTRA:         -10.277
REMARK INTER:                  -9.402
REMARK INTRA:                  -0.875
REMARK UNBOUND:                -0.976
REMARK  Name = 
REMARK  7 active torsions:
REMARK  status: ('A' for Active; 'I' for Inactive)
REMARK    1  A    between atoms: C_1  and  O_2
REMARK    2  A    between atoms: O_2  and  C_3
REMARK    3  A    between atoms: C_5  and  C_6
REMARK    4  A    between atoms: C_6  and  N_7
REMARK    5  A    between atoms: C_8  and  C_10
REMARK    6  A    between atoms: C_22  and  C_23
REMARK    7  A    between atoms: C_23  and  N_24
REMARK                            x       y       z     vdW  Elec       q    Type
REMARK                         _______ _______ _______ _____ _____    ______ ____
ROOT
ATOM      1  C   UNL     1      47.158   3.284  16.869  0.00  0.00    +0.000 C 
ENDROOT
BRANCH   1   4
ATOM      2  C   UNL     1      50.578   4.178  18.266  0.00  0.00    +0.000 A 
ATOM      3  C   UNL     1      49.194   4.186  18.053  0.00  0.00    +0.000 A 
ATOM      4  C   UNL     1      48.612   3.197  17.259  0.00  0.00    +0.000 A 
ATOM      5  N   UNL     1      49.343   2.177  16.753  0.00  0.00    +0.000 NA
ATOM      6  C   UNL     1      50.674   2.169  17.030  0.00  0.00    +0.000 A 
ATOM      7  C   UNL     1      51.365   3.135  17.769  0.00  0.00    +0.000 A 
BRANCH   2   9
ATOM      8  C   UNL     1      50.933   5.083  20.416  0.00  0.00    +0.000 C 
ATOM      9  O   UNL     1      51.029   5.239  19.004  0.00  0.00    +0.000 OA
ENDBRANCH   2   9
BRANCH   7  10
ATOM     10  C   UNL     1      52.866   2.986  17.893  0.00  0.00    +0.000 C 
BRANCH  10  11
ATOM     11  N   UNL     1      53.448   2.144  18.938  0.00  0.00    +0.000 NA
ATOM     12  C   UNL     1      54.240   2.819  19.958  0.00  0.00    +0.000 C 
ATOM     13  C   UNL     1      55.678   2.577  19.549  0.00  0.00    +0.000 C 
ATOM     14  C   UNL     1      55.641   1.175  18.969  0.00  0.00    +0.000 C 
ATOM     15  C   UNL     1      54.211   0.984  18.480  0.00  0.00    +0.000 C 
ENDBRANCH  10  11
ENDBRANCH   7  10
ENDBRANCH   1   4
BRANCH   1  16
ATOM     16  N   UNL     1      46.871   4.325  15.905  0.00  0.00    +0.000 N 
ATOM     17  C   UNL     1      46.931   4.107  14.559  0.00  0.00    +0.000 C 
ATOM     18  O   UNL     1      47.273   3.020  14.093  0.00  0.00    +0.000 OA
ATOM     19  H   UNL     1      46.746   5.264  16.275  0.00  0.00    +0.000 HD
BRANCH  17  20
ATOM     20  C   UNL     1      46.504   5.205  13.679  0.00  0.00    +0.000 A 
ATOM     21  C   UNL     1      47.336   6.302  13.503  0.00  0.00    +0.000 A 
ATOM     22  S   UNL     1      46.710   7.480  12.443  0.00  0.00    +0.000 S 
ATOM     23  C   UNL     1      45.280   6.588  12.212  0.00  0.00    +0.000 A 
ATOM     24  N   UNL     1      44.278   7.068  11.427  0.00  0.00    +0.000 NA
ATOM     25  C   UNL     1      43.237   6.306  11.368  0.00  0.00    +0.000 A 
ATOM     26  N   UNL     1      43.115   5.101  12.009  0.00  0.00    +0.000 N 
ATOM     27  C   UNL     1      44.127   4.547  12.759  0.00  0.00    +0.000 A 
ATOM     28  O   UNL     1      44.027   3.418  13.224  0.00  0.00    +0.000 OA
ATOM     29  C   UNL     1      45.298   5.387  12.901  0.00  0.00    +0.000 A 
ATOM     30  H   UNL     1      42.284   4.538  11.899  0.00  0.00    +0.000 HD
ENDBRANCH  17  20
ENDBRANCH   1  16
TORSDOF 6
ENDMDL
MODEL 3
REMARK VINA RESULT:    -6.852      3.392      5.270
REMARK INTER + INTRA:         -10.230
REMARK INTER:                  -9.048
REMARK INTRA:                  -1.182
REMARK UNBOUND:                -0.976
REMARK  Name = 
REMARK  7 active torsions:
REMARK  status: ('A' for Active; 'I' for Inactive)
REMARK    1  A    between atoms: C_1  and  O_2
REMARK    2  A    between atoms: O_2  and  C_3
REMARK    3  A    between atoms: C_5  and  C_6
REMARK    4  A    between atoms: C_6  and  N_7
REMARK    5  A    between atoms: C_8  and  C_10
REMARK    6  A    between atoms: C_22  and  C_23
REMARK    7  A    between atoms: C_23  and  N_24
REMARK                            x       y       z     vdW  Elec       q    Type
REMARK                         _______ _______ _______ _____ _____    ______ ____
ROOT
ATOM      1  C   UNL     1      48.655   6.320  16.117  0.00  0.00    +0.000 C 
ENDROOT
BRANCH   1   4
ATOM      2  C   UNL     1      46.749   5.526  12.926  0.00  0.00    +0.000 A 
ATOM      3  C   UNL     1      47.557   6.200  13.850  0.00  0.00    +0.000 A 
ATOM      4  C   UNL     1      47.938   5.560  15.030  0.00  0.00    +0.000 A 
ATOM      5  N   UNL     1      47.613   4.268  15.270  0.00  0.00    +0.000 NA
ATOM      6  C   UNL     1      46.877   3.627  14.324  0.00  0.00    +0.000 A 
ATOM      7  C   UNL     1      46.401   4.188  13.133  0.00  0.00    +0.000 A 
BRANCH   2   9
ATOM      8  C   UNL     1      45.821   7.556  12.158  0.00  0.00    +0.000 C 
ATOM      9  O   UNL     1      46.391   6.288  11.847  0.00  0.00    +0.000 OA
ENDBRANCH   2   9
BRANCH   7  10
ATOM     10  C   UNL     1      45.525   3.326  12.250  0.00  0.00    +0.000 C 
BRANCH  10  11
ATOM     11  N   UNL     1      44.069   3.449  12.295  0.00  0.00    +0.000 NA
ATOM     12  C   UNL     1      43.392   3.698  11.028  0.00  0.00    +0.000 C 
ATOM     13  C   UNL     1      43.097   5.184  11.038  0.00  0.00    +0.000 C 
ATOM     14  C   UNL     1      42.787   5.465  12.497  0.00  0.00    +0.000 C 
ATOM     15  C   UNL     1      43.531   4.389  13.277  0.00  0.00    +0.000 C 
ENDBRANCH  10  11
ENDBRANCH   7  10
ENDBRANCH   1   4
BRANCH   1  16
ATOM     16  N   UNL     1      49.819   5.637  16.641  0.00  0.00    +0.000 N 
ATOM     17  C   UNL     1      49.961   5.356  17.969  0.00  0.00    +0.000 C 
ATOM     18  O   UNL     1      49.122   5.705  18.799  0.00  0.00    +0.000 OA
ATOM     19  H   UNL     1      50.588   5.490  15.993  0.00  0.00    +0.000 HD
BRANCH  17  20
ATOM     20  C   UNL     1      51.128   4.554  18.367  0.00  0.00    +0.000 A 
ATOM     21  C   UNL     1      52.103   5.123  19.175  0.00  0.00    +0.000 A 
ATOM     22  S   UNL     1      53.381   4.066  19.562  0.00  0.00    +0.000 S 
ATOM     23  C   UNL     1      52.702   2.818  18.627  0.00  0.00    +0.000 A 
ATOM     24  N   UNL     1      53.335   1.620  18.498  0.00  0.00    +0.000 NA
ATOM     25  C   UNL     1      52.725   0.777  17.731  0.00  0.00    +0.000 A 
ATOM     26  N   UNL     1      51.535   1.018  17.099  0.00  0.00    +0.000 N 
ATOM     27  C   UNL     1      50.828   2.188  17.254  0.00  0.00    +0.000 A 
ATOM     28  O   UNL     1      49.713   2.326  16.766  0.00  0.00    +0.000 OA
ATOM     29  C   UNL     1      51.494   3.189  18.061  0.00  0.00    +0.000 A 
ATOM     30  H   UNL     1      51.094   0.305  16.535  0.00  0.00    +0.000 HD
ENDBRANCH  17  20
ENDBRANCH   1  16
TORSDOF 6
ENDMDL
MODEL 4
REMARK VINA RESULT:    -6.747      3.200      8.550
REMARK INTER + INTRA:         -10.089
REMARK INTER:                  -8.833
REMARK INTRA:                  -1.255
REMARK UNBOUND:                -0.976
REMARK  Name = 
REMARK  7 active torsions:
REMARK  status: ('A' for Active; 'I' for Inactive)
REMARK    1  A    between atoms: C_1  and  O_2
REMARK    2  A    between atoms: O_2  and  C_3
REMARK    3  A    between atoms: C_5  and  C_6
REMARK    4  A    between atoms: C_6  and  N_7
REMARK    5  A    between atoms: C_8  and  C_10
REMARK    6  A    between atoms: C_22  and  C_23
REMARK    7  A    between atoms: C_23  and  N_24
REMARK                            x       y       z     vdW  Elec       q    Type
REMARK                         _______ _______ _______ _____ _____    ______ ____
ROOT
ATOM      1  C   UNL     1      48.485   7.073  13.372  0.00  0.00    +0.000 C 
ENDROOT
BRANCH   1   4
ATOM      2  C   UNL     1      48.383   5.454  16.809  0.00  0.00    +0.000 A 
ATOM      3  C   UNL     1      48.043   5.779  15.490  0.00  0.00    +0.000 A 
ATOM      4  C   UNL     1      48.908   6.563  14.727  0.00  0.00    +0.000 A 
ATOM      5  N   UNL     1      50.113   6.954  15.203  0.00  0.00    +0.000 NA
ATOM      6  C   UNL     1      50.435   6.571  16.467  0.00  0.00    +0.000 A 
ATOM      7  C   UNL     1      49.623   5.830  17.333  0.00  0.00    +0.000 A 
BRANCH   2   9
ATOM      8  C   UNL     1      47.457   3.331  17.259  0.00  0.00    +0.000 C 
ATOM      9  O   UNL     1      47.419   4.740  17.469  0.00  0.00    +0.000 OA
ENDBRANCH   2   9
BRANCH   7  10
ATOM     10  C   UNL     1      50.136   5.578  18.735  0.00  0.00    +0.000 C 
BRANCH  10  11
ATOM     11  N   UNL     1      49.657   6.381  19.860  0.00  0.00    +0.000 NA
ATOM     12  C   UNL     1      48.771   5.718  20.808  0.00  0.00    +0.000 C 
ATOM     13  C   UNL     1      47.383   6.188  20.427  0.00  0.00    +0.000 C 
ATOM     14  C   UNL     1      47.610   7.624  19.992  0.00  0.00    +0.000 C 
ATOM     15  C   UNL     1      49.059   7.672  19.523  0.00  0.00    +0.000 C 
ENDBRANCH  10  11
ENDBRANCH   7  10
ENDBRANCH   1   4
BRANCH   1  16
ATOM     16  N   UNL     1      47.611   6.173  12.653  0.00  0.00    +0.000 N 
ATOM     17  C   UNL     1      46.588   6.623  11.869  0.00  0.00    +0.000 C 
ATOM     18  O   UNL     1      46.331   7.822  11.763  0.00  0.00    +0.000 OA
ATOM     19  H   UNL     1      47.710   5.182  12.859  0.00  0.00    +0.000 HD
BRANCH  17  20
ATOM     20  C   UNL     1      45.841   5.620  11.094  0.00  0.00    +0.000 A 
ATOM     21  C   UNL     1      45.867   5.672   9.706  0.00  0.00    +0.000 A 
ATOM     22  S   UNL     1      44.970   4.436   8.953  0.00  0.00    +0.000 S 
ATOM     23  C   UNL     1      44.476   3.808  10.454  0.00  0.00    +0.000 A 
ATOM     24  N   UNL     1      43.636   2.739  10.520  0.00  0.00    +0.000 NA
ATOM     25  C   UNL     1      43.314   2.389  11.721  0.00  0.00    +0.000 A 
ATOM     26  N   UNL     1      43.769   2.999  12.860  0.00  0.00    +0.000 N 
ATOM     27  C   UNL     1      44.669   4.039  12.842  0.00  0.00    +0.000 A 
ATOM     28  O   UNL     1      45.143   4.487  13.879  0.00  0.00    +0.000 OA
ATOM     29  C   UNL     1      45.022   4.506  11.517  0.00  0.00    +0.000 A 
ATOM     30  H   UNL     1      43.502   2.659  13.772  0.00  0.00    +0.000 HD
ENDBRANCH  17  20
ENDBRANCH   1  16
TORSDOF 6
ENDMDL
MODEL 5
REMARK VINA RESULT:    -6.699      3.851      5.804
REMARK INTER + INTRA:         -10.024
REMARK INTER:                  -9.068
REMARK INTRA:                  -0.955
REMARK UNBOUND:                -0.976
REMARK  Name = 
REMARK  7 active torsions:
REMARK  status: ('A' for Active; 'I' for Inactive)
REMARK    1  A    between atoms: C_1  and  O_2
REMARK    2  A    between atoms: O_2  and  C_3
REMARK    3  A    between atoms: C_5  and  C_6
REMARK    4  A    between atoms: C_6  and  N_7
REMARK    5  A    between atoms: C_8  and  C_10
REMARK    6  A    between atoms: C_22  and  C_23
REMARK    7  A    between atoms: C_23  and  N_24
REMARK                            x       y       z     vdW  Elec       q    Type
REMARK                         _______ _______ _______ _____ _____    ______ ____
ROOT
ATOM      1  C   UNL     1      50.090   6.904  16.142  0.00  0.00    +0.000 C 
ENDROOT
BRANCH   1   4
ATOM      2  C   UNL     1      47.188   4.572  15.376  0.00  0.00    +0.000 A 
ATOM      3  C   UNL     1      48.141   5.304  16.094  0.00  0.00    +0.000 A 
ATOM      4  C   UNL     1      48.940   6.236  15.431  0.00  0.00    +0.000 A 
ATOM      5  N   UNL     1      48.761   6.513  14.118  0.00  0.00    +0.000 NA
ATOM      6  C   UNL     1      47.786   5.826  13.466  0.00  0.00    +0.000 A 
ATOM      7  C   UNL     1      46.966   4.837  14.021  0.00  0.00    +0.000 A 
BRANCH   2   9
ATOM      8  C   UNL     1      47.105   3.355  17.396  0.00  0.00    +0.000 C 
ATOM      9  O   UNL     1      46.520   3.645  16.129  0.00  0.00    +0.000 OA
ENDBRANCH   2   9
BRANCH   7  10
ATOM     10  C   UNL     1      45.994   4.131  13.101  0.00  0.00    +0.000 C 
BRANCH  10  11
ATOM     11  N   UNL     1      44.550   4.298  13.270  0.00  0.00    +0.000 NA
ATOM     12  C   UNL     1      43.695   3.331  12.593  0.00  0.00    +0.000 C 
ATOM     13  C   UNL     1      43.208   4.054  11.354  0.00  0.00    +0.000 C 
ATOM     14  C   UNL     1      43.046   5.486  11.829  0.00  0.00    +0.000 C 
ATOM     15  C   UNL     1      44.019   5.631  12.993  0.00  0.00    +0.000 C 
ENDBRANCH  10  11
ENDBRANCH   7  10
ENDBRANCH   1   4
BRANCH   1  16
ATOM     16  N   UNL     1      51.053   5.978  16.698  0.00  0.00    +0.000 N 
ATOM     17  C   UNL     1      51.040   5.617  18.015  0.00  0.00    +0.000 C 
ATOM     18  O   UNL     1      50.228   6.092  18.809  0.00  0.00    +0.000 OA
ATOM     19  H   UNL     1      51.823   5.706  16.093  0.00  0.00    +0.000 HD
BRANCH  17  20
ATOM     20  C   UNL     1      51.992   4.580  18.439  0.00  0.00    +0.000 A 
ATOM     21  C   UNL     1      53.047   4.922  19.274  0.00  0.00    +0.000 A 
ATOM     22  S   UNL     1      54.052   3.611  19.690  0.00  0.00    +0.000 S 
ATOM     23  C   UNL     1      53.140   2.541  18.732  0.00  0.00    +0.000 A 
ATOM     24  N   UNL     1      53.499   1.234  18.613  0.00  0.00    +0.000 NA
ATOM     25  C   UNL     1      52.740   0.544  17.827  0.00  0.00    +0.000 A 
ATOM     26  N   UNL     1      51.648   1.038  17.165  0.00  0.00    +0.000 N 
ATOM     27  C   UNL     1      51.211   2.335  17.308  0.00  0.00    +0.000 A 
ATOM     28  O   UNL     1      50.166   2.714  16.792  0.00  0.00    +0.000 OA
ATOM     29  C   UNL     1      52.058   3.167  18.137  0.00  0.00    +0.000 A 
ATOM     30  H   UNL     1      51.077   0.439  16.587  0.00  0.00    +0.000 HD
ENDBRANCH  17  20
ENDBRANCH   1  16
TORSDOF 6
ENDMDL
MODEL 6
REMARK VINA RESULT:    -6.677      1.833      2.564
REMARK INTER + INTRA:          -9.995
REMARK INTER:                  -9.211
REMARK INTRA:                  -0.783
REMARK UNBOUND:                -0.976
REMARK  Name = 
REMARK  7 active torsions:
REMARK  status: ('A' for Active; 'I' for Inactive)
REMARK    1  A    between atoms: C_1  and  O_2
REMARK    2  A    between atoms: O_2  and  C_3
REMARK    3  A    between atoms: C_5  and  C_6
REMARK    4  A    between atoms: C_6  and  N_7
REMARK    5  A    between atoms: C_8  and  C_10
REMARK    6  A    between atoms: C_22  and  C_23
REMARK    7  A    between atoms: C_23  and  N_24
REMARK                            x       y       z     vdW  Elec       q    Type
REMARK                         _______ _______ _______ _____ _____    ______ ____
ROOT
ATOM      1  C   UNL     1      47.303   7.517  13.610  0.00  0.00    +0.000 C 
ENDROOT
BRANCH   1   4
ATOM      2  C   UNL     1      44.527   5.770  11.689  0.00  0.00    +0.000 A 
ATOM      3  C   UNL     1      45.320   6.788  12.232  0.00  0.00    +0.000 A 
ATOM      4  C   UNL     1      46.521   6.464  12.864  0.00  0.00    +0.000 A 
ATOM      5  N   UNL     1      46.982   5.192  12.896  0.00  0.00    +0.000 NA
ATOM      6  C   UNL     1      46.214   4.238  12.307  0.00  0.00    +0.000 A 
ATOM      7  C   UNL     1      44.974   4.445  11.692  0.00  0.00    +0.000 A 
BRANCH   2   9
ATOM      8  C   UNL     1      42.170   5.753  11.820  0.00  0.00    +0.000 C 
ATOM      9  O   UNL     1      43.345   6.214  11.159  0.00  0.00    +0.000 OA
ENDBRANCH   2   9
BRANCH   7  10
ATOM     10  C   UNL     1      44.236   3.232  11.168  0.00  0.00    +0.000 C 
BRANCH  10  11
ATOM     11  N   UNL     1      44.058   3.032   9.730  0.00  0.00    +0.000 NA
ATOM     12  C   UNL     1      44.498   1.752   9.188  0.00  0.00    +0.000 C 
ATOM     13  C   UNL     1      45.841   2.048   8.553  0.00  0.00    +0.000 C 
ATOM     14  C   UNL     1      45.660   3.448   7.995  0.00  0.00    +0.000 C 
ATOM     15  C   UNL     1      44.581   4.085   8.862  0.00  0.00    +0.000 C 
ENDBRANCH  10  11
ENDBRANCH   7  10
ENDBRANCH   1   4
BRANCH   1  16
ATOM     16  N   UNL     1      47.774   7.087  14.909  0.00  0.00    +0.000 N 
ATOM     17  C   UNL     1      49.098   6.892  15.175  0.00  0.00    +0.000 C 
ATOM     18  O   UNL     1      49.961   7.034  14.310  0.00  0.00    +0.000 OA
ATOM     19  H   UNL     1      47.062   6.811  15.581  0.00  0.00    +0.000 HD
BRANCH  17  20
ATOM     20  C   UNL     1      49.466   6.571  16.562  0.00  0.00    +0.000 A 
ATOM     21  C   UNL     1      50.466   7.302  17.190  0.00  0.00    +0.000 A 
ATOM     22  S   UNL     1      50.766   6.823  18.797  0.00  0.00    +0.000 S 
ATOM     23  C   UNL     1      49.600   5.588  18.702  0.00  0.00    +0.000 A 
ATOM     24  N   UNL     1      49.380   4.754  19.754  0.00  0.00    +0.000 NA
ATOM     25  C   UNL     1      48.492   3.842  19.533  0.00  0.00    +0.000 A 
ATOM     26  N   UNL     1      47.795   3.699  18.363  0.00  0.00    +0.000 N 
ATOM     27  C   UNL     1      47.937   4.559  17.298  0.00  0.00    +0.000 A 
ATOM     28  O   UNL     1      47.216   4.471  16.311  0.00  0.00    +0.000 OA
ATOM     29  C   UNL     1      48.959   5.569  17.474  0.00  0.00    +0.000 A 
ATOM     30  H   UNL     1      47.092   2.981  18.263  0.00  0.00    +0.000 HD
ENDBRANCH  17  20
ENDBRANCH   1  16
TORSDOF 6
ENDMDL
MODEL 7
REMARK VINA RESULT:    -6.668      3.834      9.248
REMARK INTER + INTRA:          -9.983
REMARK INTER:                  -8.989
REMARK INTRA:                  -0.994
REMARK UNBOUND:                -0.976
REMARK  Name = 
REMARK  7 active torsions:
REMARK  status: ('A' for Active; 'I' for Inactive)
REMARK    1  A    between atoms: C_1  and  O_2
REMARK    2  A    between atoms: O_2  and  C_3
REMARK    3  A    between atoms: C_5  and  C_6
REMARK    4  A    between atoms: C_6  and  N_7
REMARK    5  A    between atoms: C_8  and  C_10
REMARK    6  A    between atoms: C_22  and  C_23
REMARK    7  A    between atoms: C_23  and  N_24
REMARK                            x       y       z     vdW  Elec       q    Type
REMARK                         _______ _______ _______ _____ _____    ______ ____
ROOT
ATOM      1  C   UNL     1      47.307   3.599  16.649  0.00  0.00    +0.000 C 
ENDROOT
BRANCH   1   4
ATOM      2  C   UNL     1      50.595   5.334  17.438  0.00  0.00    +0.000 A 
ATOM      3  C   UNL     1      49.227   5.129  17.225  0.00  0.00    +0.000 A 
ATOM      4  C   UNL     1      48.740   3.833  17.055  0.00  0.00    +0.000 A 
ATOM      5  N   UNL     1      49.549   2.754  17.172  0.00  0.00    +0.000 NA
ATOM      6  C   UNL     1      50.862   2.988  17.437  0.00  0.00    +0.000 A 
ATOM      7  C   UNL     1      51.461   4.245  17.575  0.00  0.00    +0.000 A 
BRANCH   2   9
ATOM      8  C   UNL     1      50.890   7.377  16.294  0.00  0.00    +0.000 C 
ATOM      9  O   UNL     1      50.950   6.654  17.520  0.00  0.00    +0.000 OA
ENDBRANCH   2   9
BRANCH   7  10
ATOM     10  C   UNL     1      52.959   4.292  17.788  0.00  0.00    +0.000 C 
BRANCH  10  11
ATOM     11  N   UNL     1      53.516   4.616  19.101  0.00  0.00    +0.000 NA
ATOM     12  C   UNL     1      52.818   4.076  20.261  0.00  0.00    +0.000 C 
ATOM     13  C   UNL     1      52.000   5.236  20.789  0.00  0.00    +0.000 C 
ATOM     14  C   UNL     1      52.895   6.435  20.534  0.00  0.00    +0.000 C 
ATOM     15  C   UNL     1      53.777   6.031  19.359  0.00  0.00    +0.000 C 
ENDBRANCH  10  11
ENDBRANCH   7  10
ENDBRANCH   1   4
BRANCH   1  16
ATOM     16  N   UNL     1      46.812   4.545  15.673  0.00  0.00    +0.000 N 
ATOM     17  C   UNL     1      46.790   4.268  14.336  0.00  0.00    +0.000 C 
ATOM     18  O   UNL     1      47.228   3.210  13.887  0.00  0.00    +0.000 OA
ATOM     19  H   UNL     1      46.599   5.479  16.014  0.00  0.00    +0.000 HD
BRANCH  17  20
ATOM     20  C   UNL     1      46.156   5.258  13.453  0.00  0.00    +0.000 A 
ATOM     21  C   UNL     1      46.820   6.444  13.169  0.00  0.00    +0.000 A 
ATOM     22  S   UNL     1      45.966   7.479  12.120  0.00  0.00    +0.000 S 
ATOM     23  C   UNL     1      44.653   6.401  12.040  0.00  0.00    +0.000 A 
ATOM     24  N   UNL     1      43.540   6.709  11.321  0.00  0.00    +0.000 NA
ATOM     25  C   UNL     1      42.607   5.817  11.376  0.00  0.00    +0.000 A 
ATOM     26  N   UNL     1      42.694   4.639  12.069  0.00  0.00    +0.000 N 
ATOM     27  C   UNL     1      43.824   4.257  12.755  0.00  0.00    +0.000 A 
ATOM     28  O   UNL     1      43.910   3.148  13.268  0.00  0.00    +0.000 OA
ATOM     29  C   UNL     1      44.882   5.246  12.770  0.00  0.00    +0.000 A 
ATOM     30  H   UNL     1      41.939   3.969  12.049  0.00  0.00    +0.000 HD
ENDBRANCH  17  20
ENDBRANCH   1  16
TORSDOF 6
ENDMDL
MODEL 8
REMARK VINA RESULT:    -6.562      2.814      3.834
REMARK INTER + INTRA:          -9.839
REMARK INTER:                  -8.676
REMARK INTRA:                  -1.164
REMARK UNBOUND:                -0.976
REMARK  Name = 
REMARK  7 active torsions:
REMARK  status: ('A' for Active; 'I' for Inactive)
REMARK    1  A    between atoms: C_1  and  O_2
REMARK    2  A    between atoms: O_2  and  C_3
REMARK    3  A    between atoms: C_5  and  C_6
REMARK    4  A    between atoms: C_6  and  N_7
REMARK    5  A    between atoms: C_8  and  C_10
REMARK    6  A    between atoms: C_22  and  C_23
REMARK    7  A    between atoms: C_23  and  N_24
REMARK                            x       y       z     vdW  Elec       q    Type
REMARK                         _______ _______ _______ _____ _____    ______ ____
ROOT
ATOM      1  C   UNL     1      47.647   8.448  13.970  0.00  0.00    +0.000 C 
ENDROOT
BRANCH   1   4
ATOM      2  C   UNL     1      44.867   7.764  11.470  0.00  0.00    +0.000 A 
ATOM      3  C   UNL     1      45.714   8.448  12.351  0.00  0.00    +0.000 A 
ATOM      4  C   UNL     1      46.824   7.796  12.887  0.00  0.00    +0.000 A 
ATOM      5  N   UNL     1      47.153   6.537  12.513  0.00  0.00    +0.000 NA
ATOM      6  C   UNL     1      46.341   5.925  11.611  0.00  0.00    +0.000 A 
ATOM      7  C   UNL     1      45.179   6.467  11.052  0.00  0.00    +0.000 A 
BRANCH   2   9
ATOM      8  C   UNL     1      43.961   9.907  11.071  0.00  0.00    +0.000 C 
ATOM      9  O   UNL     1      43.779   8.494  11.072  0.00  0.00    +0.000 OA
ENDBRANCH   2   9
BRANCH   7  10
ATOM     10  C   UNL     1      44.366   5.587  10.126  0.00  0.00    +0.000 C 
BRANCH  10  11
ATOM     11  N   UNL     1      43.333   4.699  10.657  0.00  0.00    +0.000 NA
ATOM     12  C   UNL     1      42.611   5.164  11.834  0.00  0.00    +0.000 C 
ATOM     13  C   UNL     1      43.249   4.424  12.991  0.00  0.00    +0.000 C 
ATOM     14  C   UNL     1      43.575   3.066  12.397  0.00  0.00    +0.000 C 
ATOM     15  C   UNL     1      43.736   3.315  10.902  0.00  0.00    +0.000 C 
ENDBRANCH  10  11
ENDBRANCH   7  10
ENDBRANCH   1   4
BRANCH   1  16
ATOM     16  N   UNL     1      47.914   7.587  15.102  0.00  0.00    +0.000 N 
ATOM     17  C   UNL     1      49.116   6.965  15.277  0.00  0.00    +0.000 C 
ATOM     18  O   UNL     1      50.027   7.074  14.457  0.00  0.00    +0.000 OA
ATOM     19  H   UNL     1      47.121   7.362  15.697  0.00  0.00    +0.000 HD
BRANCH  17  20
ATOM     20  C   UNL     1      49.310   6.212  16.525  0.00  0.00    +0.000 A 
ATOM     21  C   UNL     1      50.277   6.628  17.431  0.00  0.00    +0.000 A 
ATOM     22  S   UNL     1      50.369   5.665  18.833  0.00  0.00    +0.000 S 
ATOM     23  C   UNL     1      49.148   4.627  18.263  0.00  0.00    +0.000 A 
ATOM     24  N   UNL     1      48.764   3.539  18.986  0.00  0.00    +0.000 NA
ATOM     25  C   UNL     1      47.853   2.819  18.420  0.00  0.00    +0.000 A 
ATOM     26  N   UNL     1      47.281   3.097  17.207  0.00  0.00    +0.000 N 
ATOM     27  C   UNL     1      47.591   4.219  16.473  0.00  0.00    +0.000 A 
ATOM     28  O   UNL     1      46.979   4.497  15.449  0.00  0.00    +0.000 OA
ATOM     29  C   UNL     1      48.646   5.034  17.038  0.00  0.00    +0.000 A 
ATOM     30  H   UNL     1      46.551   2.509  16.831  0.00  0.00    +0.000 HD
ENDBRANCH  17  20
ENDBRANCH   1  16
TORSDOF 6
ENDMDL
MODEL 9
REMARK VINA RESULT:    -6.438      3.313      5.040
REMARK INTER + INTRA:          -9.671
REMARK INTER:                  -8.674
REMARK INTRA:                  -0.998
REMARK UNBOUND:                -0.976
REMARK  Name = 
REMARK  7 active torsions:
REMARK  status: ('A' for Active; 'I' for Inactive)
REMARK    1  A    between atoms: C_1  and  O_2
REMARK    2  A    between atoms: O_2  and  C_3
REMARK    3  A    between atoms: C_5  and  C_6
REMARK    4  A    between atoms: C_6  and  N_7
REMARK    5  A    between atoms: C_8  and  C_10
REMARK    6  A    between atoms: C_22  and  C_23
REMARK    7  A    between atoms: C_23  and  N_24
REMARK                            x       y       z     vdW  Elec       q    Type
REMARK                         _______ _______ _______ _____ _____    ______ ____
ROOT
ATOM      1  C   UNL     1      48.941   7.715  15.954  0.00  0.00    +0.000 C 
ENDROOT
BRANCH   1   4
ATOM      2  C   UNL     1      46.973   7.744  12.702  0.00  0.00    +0.000 A 
ATOM      3  C   UNL     1      47.740   8.186  13.787  0.00  0.00    +0.000 A 
ATOM      4  C   UNL     1      48.266   7.258  14.685  0.00  0.00    +0.000 A 
ATOM      5  N   UNL     1      48.123   5.926  14.489  0.00  0.00    +0.000 NA
ATOM      6  C   UNL     1      47.423   5.531  13.393  0.00  0.00    +0.000 A 
ATOM      7  C   UNL     1      46.812   6.376  12.460  0.00  0.00    +0.000 A 
BRANCH   2   9
ATOM      8  C   UNL     1      45.203   9.270  12.372  0.00  0.00    +0.000 C 
ATOM      9  O   UNL     1      46.460   8.757  11.938  0.00  0.00    +0.000 OA
ENDBRANCH   2   9
BRANCH   7  10
ATOM     10  C   UNL     1      46.005   5.735  11.352  0.00  0.00    +0.000 C 
BRANCH  10  11
ATOM     11  N   UNL     1      44.548   5.640  11.448  0.00  0.00    +0.000 NA
ATOM     12  C   UNL     1      43.984   5.568  12.790  0.00  0.00    +0.000 C 
ATOM     13  C   UNL     1      43.673   4.100  12.996  0.00  0.00    +0.000 C 
ATOM     14  C   UNL     1      43.231   3.643  11.618  0.00  0.00    +0.000 C 
ATOM     15  C   UNL     1      43.916   4.595  10.645  0.00  0.00    +0.000 C 
ENDBRANCH  10  11
ENDBRANCH   7  10
ENDBRANCH   1   4
BRANCH   1  16
ATOM     16  N   UNL     1      49.989   6.830  16.413  0.00  0.00    +0.000 N 
ATOM     17  C   UNL     1      49.845   6.043  17.519  0.00  0.00    +0.000 C 
ATOM     18  O   UNL     1      48.826   6.074  18.208  0.00  0.00    +0.000 OA
ATOM     19  H   UNL     1      50.890   6.915  15.949  0.00  0.00    +0.000 HD
BRANCH  17  20
ATOM     20  C   UNL     1      50.931   5.098  17.819  0.00  0.00    +0.000 A 
ATOM     21  C   UNL     1      52.109   5.569  18.385  0.00  0.00    +0.000 A 
ATOM     22  S   UNL     1      53.263   4.354  18.689  0.00  0.00    +0.000 S 
ATOM     23  C   UNL     1      52.249   3.155  18.035  0.00  0.00    +0.000 A 
ATOM     24  N   UNL     1      52.663   1.861  17.954  0.00  0.00    +0.000 NA
ATOM     25  C   UNL     1      51.808   1.063  17.404  0.00  0.00    +0.000 A 
ATOM     26  N   UNL     1      50.573   1.439  16.946  0.00  0.00    +0.000 N 
ATOM     27  C   UNL     1      50.088   2.720  17.067  0.00  0.00    +0.000 A 
ATOM     28  O   UNL     1      48.938   2.997  16.751  0.00  0.00    +0.000 OA
ATOM     29  C   UNL     1      51.029   3.668  17.629  0.00  0.00    +0.000 A 
ATOM     30  H   UNL     1      49.939   0.760  16.551  0.00  0.00    +0.000 HD
ENDBRANCH  17  20
ENDBRANCH   1  16
TORSDOF 6
ENDMDL
