MODEL 1
REMARK VINA RESULT:    -7.887      0.000      0.000
REMARK INTER + INTRA:         -10.772
REMARK INTER:                 -10.193
REMARK INTRA:                  -0.579
REMARK UNBOUND:                -0.579
REMARK  Name = 
REMARK  5 active torsions:
REMARK  status: ('A' for Active; 'I' for Inactive)
REMARK    1  A    between atoms: C_2  and  C_4
REMARK    2  A    between atoms: C_7  and  N_8
REMARK    3  A    between atoms: N_8  and  C_9
REMARK    4  A    between atoms: C_9  and  C_10
REMARK    5  A    between atoms: C_10  and  C_11
REMARK                            x       y       z     vdW  Elec       q    Type
REMARK                         _______ _______ _______ _____ _____    ______ ____
ROOT
ATOM      1  C   UNL     1      46.342   2.296   7.840  0.00  0.00    +0.000 A 
ATOM      2  C   UNL     1      45.459   1.736   8.766  0.00  0.00    +0.000 A 
ATOM      3  C   UNL     1      44.607   2.561   9.506  0.00  0.00    +0.000 A 
ATOM      4  C   UNL     1      44.652   3.954   9.365  0.00  0.00    +0.000 A 
ATOM      5  C   UNL     1      45.502   4.497   8.396  0.00  0.00    +0.000 A 
ATOM      6  C   UNL     1      46.361   3.681   7.655  0.00  0.00    +0.000 A 
ENDROOT
BRANCH   1   8
ATOM      7  N   UNL     1      48.395   2.080   6.554  0.00  0.00    +0.000 N 
ATOM      8  C   UNL     1      47.287   1.460   7.057  0.00  0.00    +0.000 C 
ATOM      9  O   UNL     1      47.106   0.261   6.896  0.00  0.00    +0.000 OA
ATOM     10  H   UNL     1      49.084   1.478   6.119  0.00  0.00    +0.000 HD
ATOM     11  H   UNL     1      48.700   2.988   6.874  0.00  0.00    +0.000 HD
ENDBRANCH   1   8
BRANCH   4  12
ATOM     12  N   UNL     1      43.836   4.836  10.089  0.00  0.00    +0.000 N 
ATOM     13  H   UNL     1      43.222   5.329   9.440  0.00  0.00    +0.000 HD
BRANCH  12  14
ATOM     14  C   UNL     1      43.076   4.287  11.222  0.00  0.00    +0.000 C 
BRANCH  14  15
ATOM     15  C   UNL     1      43.240   5.161  12.471  0.00  0.00    +0.000 C 
BRANCH  15  16
ATOM     16  C   UNL     1      44.674   5.266  12.893  0.00  0.00    +0.000 A 
ATOM     17  C   UNL     1      45.328   6.495  12.893  0.00  0.00    +0.000 A 
ATOM     18  N   UNL     1      46.632   6.631  13.228  0.00  0.00    +0.000 NA
ATOM     19  C   UNL     1      47.268   5.485  13.549  0.00  0.00    +0.000 A 
ATOM     20  C   UNL     1      46.631   4.256  13.543  0.00  0.00    +0.000 A 
ATOM     21  N   UNL     1      45.325   4.119  13.220  0.00  0.00    +0.000 NA
ENDBRANCH  15  16
ENDBRANCH  14  15
ENDBRANCH  12  14
ENDBRANCH   4  12
TORSDOF 5
ENDMDL
MODEL 2
REMARK VINA RESULT:    -6.653      1.608      2.255
REMARK INTER + INTRA:          -9.177
REMARK INTER:                  -8.803
REMARK INTRA:                  -0.373
REMARK UNBOUND:                -0.579
REMARK  Name = 
REMARK  5 active torsions:
REMARK  status: ('A' for Active; 'I' for Inactive)
REMARK    1  A    between atoms: C_2  and  C_4
REMARK    2  A    between atoms: C_7  and  N_8
REMARK    3  A    between atoms: N_8  and  C_9
REMARK    4  A    between atoms: C_9  and  C_10
REMARK    5  A    between atoms: C_10  and  C_11
REMARK                            x       y       z     vdW  Elec       q    Type
REMARK                         _______ _______ _______ _____ _____    ______ ____
ROOT
ATOM      1  C   UNL     1      46.327   2.623   7.678  0.00  0.00    +0.000 A 
ATOM      2  C   UNL     1      45.714   1.656   8.478  0.00  0.00    +0.000 A 
ATOM      3  C   UNL     1      44.781   2.040   9.445  0.00  0.00    +0.000 A 
ATOM      4  C   UNL     1      44.477   3.390   9.657  0.00  0.00    +0.000 A 
ATOM      5  C   UNL     1      45.057   4.343   8.812  0.00  0.00    +0.000 A 
ATOM      6  C   UNL     1      45.996   3.970   7.846  0.00  0.00    +0.000 A 
ENDROOT
BRANCH   1   8
ATOM      7  N   UNL     1      47.408   3.040   5.539  0.00  0.00    +0.000 N 
ATOM      8  C   UNL     1      47.348   2.263   6.661  0.00  0.00    +0.000 C 
ATOM      9  O   UNL     1      48.127   1.335   6.830  0.00  0.00    +0.000 OA
ATOM     10  H   UNL     1      48.178   2.853   4.908  0.00  0.00    +0.000 HD
ATOM     11  H   UNL     1      46.964   3.945   5.482  0.00  0.00    +0.000 HD
ENDBRANCH   1   8
BRANCH   4  12
ATOM     12  N   UNL     1      43.564   3.841  10.622  0.00  0.00    +0.000 N 
ATOM     13  H   UNL     1      43.631   3.246  11.448  0.00  0.00    +0.000 HD
BRANCH  12  14
ATOM     14  C   UNL     1      43.610   5.264  10.991  0.00  0.00    +0.000 C 
BRANCH  14  15
ATOM     15  C   UNL     1      44.667   5.517  12.073  0.00  0.00    +0.000 C 
BRANCH  15  16
ATOM     16  C   UNL     1      45.096   6.953  12.108  0.00  0.00    +0.000 A 
ATOM     17  C   UNL     1      46.178   7.353  12.886  0.00  0.00    +0.000 A 
ATOM     18  N   UNL     1      46.576   8.644  12.979  0.00  0.00    +0.000 NA
ATOM     19  C   UNL     1      45.838   9.528  12.275  0.00  0.00    +0.000 A 
ATOM     20  C   UNL     1      44.753   9.142  11.507  0.00  0.00    +0.000 A 
ATOM     21  N   UNL     1      44.361   7.852  11.403  0.00  0.00    +0.000 NA
ENDBRANCH  15  16
ENDBRANCH  14  15
ENDBRANCH  12  14
ENDBRANCH   4  12
TORSDOF 5
ENDMDL
MODEL 3
REMARK VINA RESULT:    -6.499      2.860      6.473
REMARK INTER + INTRA:          -8.977
REMARK INTER:                  -8.572
REMARK INTRA:                  -0.405
REMARK UNBOUND:                -0.579
REMARK  Name = 
REMARK  5 active torsions:
REMARK  status: ('A' for Active; 'I' for Inactive)
REMARK    1  A    between atoms: C_2  and  C_4
REMARK    2  A    between atoms: C_7  and  N_8
REMARK    3  A    between atoms: N_8  and  C_9
REMARK    4  A    between atoms: C_9  and  C_10
REMARK    5  A    between atoms: C_10  and  C_11
REMARK                            x       y       z     vdW  Elec       q    Type
REMARK                         _______ _______ _______ _____ _____    ______ ____
ROOT
ATOM      1  C   UNL     1      46.736   4.798  14.037  0.00  0.00    +0.000 A 
ATOM      2  C   UNL     1      46.032   3.805  13.352  0.00  0.00    +0.000 A 
ATOM      3  C   UNL     1      45.472   4.082  12.102  0.00  0.00    +0.000 A 
ATOM      4  C   UNL     1      45.568   5.359  11.537  0.00  0.00    +0.000 A 
ATOM      5  C   UNL     1      46.322   6.328  12.207  0.00  0.00    +0.000 A 
ATOM      6  C   UNL     1      46.882   6.063  13.460  0.00  0.00    +0.000 A 
ENDROOT
BRANCH   1   8
ATOM      7  N   UNL     1      48.029   5.580  15.943  0.00  0.00    +0.000 N 
ATOM      8  C   UNL     1      47.319   4.558  15.381  0.00  0.00    +0.000 C 
ATOM      9  O   UNL     1      47.145   3.505  15.980  0.00  0.00    +0.000 OA
ATOM     10  H   UNL     1      48.326   5.444  16.902  0.00  0.00    +0.000 HD
ATOM     11  H   UNL     1      47.979   6.528  15.597  0.00  0.00    +0.000 HD
ENDBRANCH   1   8
BRANCH   4  12
ATOM     12  N   UNL     1      45.014   5.705  10.295  0.00  0.00    +0.000 N 
ATOM     13  H   UNL     1      44.901   6.718  10.252  0.00  0.00    +0.000 HD
BRANCH  12  14
ATOM     14  C   UNL     1      45.681   5.196   9.087  0.00  0.00    +0.000 C 
BRANCH  14  15
ATOM     15  C   UNL     1      44.844   4.101   8.415  0.00  0.00    +0.000 C 
BRANCH  15  16
ATOM     16  C   UNL     1      45.705   3.025   7.825  0.00  0.00    +0.000 A 
ATOM     17  C   UNL     1      45.813   1.782   8.443  0.00  0.00    +0.000 A 
ATOM     18  N   UNL     1      46.609   0.796   7.969  0.00  0.00    +0.000 NA
ATOM     19  C   UNL     1      47.310   1.103   6.857  0.00  0.00    +0.000 A 
ATOM     20  C   UNL     1      47.218   2.339   6.241  0.00  0.00    +0.000 A 
ATOM     21  N   UNL     1      46.415   3.322   6.706  0.00  0.00    +0.000 NA
ENDBRANCH  15  16
ENDBRANCH  14  15
ENDBRANCH  12  14
ENDBRANCH   4  12
TORSDOF 5
ENDMDL
MODEL 4
REMARK VINA RESULT:    -6.223      2.967      6.423
REMARK INTER + INTRA:          -8.620
REMARK INTER:                  -8.189
REMARK INTRA:                  -0.431
REMARK UNBOUND:                -0.579
REMARK  Name = 
REMARK  5 active torsions:
REMARK  status: ('A' for Active; 'I' for Inactive)
REMARK    1  A    between atoms: C_2  and  C_4
REMARK    2  A    between atoms: C_7  and  N_8
REMARK    3  A    between atoms: N_8  and  C_9
REMARK    4  A    between atoms: C_9  and  C_10
REMARK    5  A    between atoms: C_10  and  C_11
REMARK                            x       y       z     vdW  Elec       q    Type
REMARK                         _______ _______ _______ _____ _____    ______ ____
ROOT
ATOM      1  C   UNL     1      46.297   7.404  12.786  0.00  0.00    +0.000 A 
ATOM      2  C   UNL     1      46.596   6.099  13.183  0.00  0.00    +0.000 A 
ATOM      3  C   UNL     1      45.810   5.035  12.732  0.00  0.00    +0.000 A 
ATOM      4  C   UNL     1      44.694   5.259  11.916  0.00  0.00    +0.000 A 
ATOM      5  C   UNL     1      44.440   6.565  11.482  0.00  0.00    +0.000 A 
ATOM      6  C   UNL     1      45.216   7.636  11.932  0.00  0.00    +0.000 A 
ENDROOT
BRANCH   1   8
ATOM      7  N   UNL     1      47.068   8.816  14.611  0.00  0.00    +0.000 N 
ATOM      8  C   UNL     1      47.086   8.567  13.268  0.00  0.00    +0.000 C 
ATOM      9  O   UNL     1      47.753   9.254  12.506  0.00  0.00    +0.000 OA
ATOM     10  H   UNL     1      47.696   9.540  14.939  0.00  0.00    +0.000 HD
ATOM     11  H   UNL     1      46.744   8.136  15.284  0.00  0.00    +0.000 HD
ENDBRANCH   1   8
BRANCH   4  12
ATOM     12  N   UNL     1      43.857   4.238  11.443  0.00  0.00    +0.000 N 
ATOM     13  H   UNL     1      42.901   4.423  11.749  0.00  0.00    +0.000 HD
BRANCH  12  14
ATOM     14  C   UNL     1      43.901   3.932  10.005  0.00  0.00    +0.000 C 
BRANCH  14  15
ATOM     15  C   UNL     1      44.525   2.554   9.754  0.00  0.00    +0.000 C 
BRANCH  15  16
ATOM     16  C   UNL     1      45.531   2.592   8.643  0.00  0.00    +0.000 A 
ATOM     17  C   UNL     1      45.714   3.749   7.890  0.00  0.00    +0.000 A 
ATOM     18  N   UNL     1      46.581   3.817   6.852  0.00  0.00    +0.000 NA
ATOM     19  C   UNL     1      47.250   2.677   6.582  0.00  0.00    +0.000 A 
ATOM     20  C   UNL     1      47.067   1.518   7.317  0.00  0.00    +0.000 A 
ATOM     21  N   UNL     1      46.211   1.450   8.361  0.00  0.00    +0.000 NA
ENDBRANCH  15  16
ENDBRANCH  14  15
ENDBRANCH  12  14
ENDBRANCH   4  12
TORSDOF 5
ENDMDL
MODEL 5
REMARK VINA RESULT:    -6.213      1.585      2.017
REMARK INTER + INTRA:          -8.608
REMARK INTER:                  -8.256
REMARK INTRA:                  -0.352
REMARK UNBOUND:                -0.579
REMARK  Name = 
REMARK  5 active torsions:
REMARK  status: ('A' for Active; 'I' for Inactive)
REMARK    1  A    between atoms: C_2  and  C_4
REMARK    2  A    between atoms: C_7  and  N_8
REMARK    3  A    between atoms: N_8  and  C_9
REMARK    4  A    between atoms: C_9  and  C_10
REMARK    5  A    between atoms: C_10  and  C_11
REMARK                            x       y       z     vdW  Elec       q    Type
REMARK                         _______ _______ _______ _____ _____    ______ ____
ROOT
ATOM      1  C   UNL     1      45.783   3.140   8.303  0.00  0.00    +0.000 A 
ATOM      2  C   UNL     1      44.997   2.277   9.069  0.00  0.00    +0.000 A 
ATOM      3  C   UNL     1      44.309   2.765  10.184  0.00  0.00    +0.000 A 
ATOM      4  C   UNL     1      44.427   4.105  10.573  0.00  0.00    +0.000 A 
ATOM      5  C   UNL     1      45.173   4.969   9.765  0.00  0.00    +0.000 A 
ATOM      6  C   UNL     1      45.870   4.490   8.653  0.00  0.00    +0.000 A 
ENDROOT
BRANCH   1   8
ATOM      7  N   UNL     1      46.817   3.563   6.142  0.00  0.00    +0.000 N 
ATOM      8  C   UNL     1      46.557   2.658   7.131  0.00  0.00    +0.000 C 
ATOM      9  O   UNL     1      46.979   1.510   7.064  0.00  0.00    +0.000 OA
ATOM     10  H   UNL     1      47.438   3.253   5.404  0.00  0.00    +0.000 HD
ATOM     11  H   UNL     1      46.709   4.558   6.276  0.00  0.00    +0.000 HD
ENDBRANCH   1   8
BRANCH   4  12
ATOM     12  N   UNL     1      43.775   4.652  11.690  0.00  0.00    +0.000 N 
ATOM     13  H   UNL     1      43.062   3.997  12.011  0.00  0.00    +0.000 HD
BRANCH  12  14
ATOM     14  C   UNL     1      44.612   5.112  12.808  0.00  0.00    +0.000 C 
BRANCH  14  15
ATOM     15  C   UNL     1      45.726   4.104  13.114  0.00  0.00    +0.000 C 
BRANCH  15  16
ATOM     16  C   UNL     1      46.645   4.599  14.190  0.00  0.00    +0.000 A 
ATOM     17  C   UNL     1      47.497   5.675  13.957  0.00  0.00    +0.000 A 
ATOM     18  N   UNL     1      48.372   6.130  14.884  0.00  0.00    +0.000 NA
ATOM     19  C   UNL     1      48.376   5.457  16.054  0.00  0.00    +0.000 A 
ATOM     20  C   UNL     1      47.540   4.379  16.292  0.00  0.00    +0.000 A 
ATOM     21  N   UNL     1      46.658   3.930  15.372  0.00  0.00    +0.000 NA
ENDBRANCH  15  16
ENDBRANCH  14  15
ENDBRANCH  12  14
ENDBRANCH   4  12
TORSDOF 5
ENDMDL
MODEL 6
REMARK VINA RESULT:    -5.799      3.148      5.156
REMARK INTER + INTRA:          -8.072
REMARK INTER:                  -7.447
REMARK INTRA:                  -0.625
REMARK UNBOUND:                -0.579
REMARK  Name = 
REMARK  5 active torsions:
REMARK  status: ('A' for Active; 'I' for Inactive)
REMARK    1  A    between atoms: C_2  and  C_4
REMARK    2  A    between atoms: C_7  and  N_8
REMARK    3  A    between atoms: N_8  and  C_9
REMARK    4  A    between atoms: C_9  and  C_10
REMARK    5  A    between atoms: C_10  and  C_11
REMARK                            x       y       z     vdW  Elec       q    Type
REMARK                         _______ _______ _______ _____ _____    ______ ____
ROOT
ATOM      1  C   UNL     1      44.969   4.564  10.967  0.00  0.00    +0.000 A 
ATOM      2  C   UNL     1      45.627   5.748  10.624  0.00  0.00    +0.000 A 
ATOM      3  C   UNL     1      46.294   6.485  11.606  0.00  0.00    +0.000 A 
ATOM      4  C   UNL     1      46.280   6.079  12.945  0.00  0.00    +0.000 A 
ATOM      5  C   UNL     1      45.665   4.864  13.266  0.00  0.00    +0.000 A 
ATOM      6  C   UNL     1      44.990   4.122  12.292  0.00  0.00    +0.000 A 
ENDROOT
BRANCH   1   8
ATOM      7  N   UNL     1      44.096   4.302   8.712  0.00  0.00    +0.000 N 
ATOM      8  C   UNL     1      44.220   3.767   9.963  0.00  0.00    +0.000 C 
ATOM      9  O   UNL     1      43.763   2.662  10.226  0.00  0.00    +0.000 OA
ATOM     10  H   UNL     1      43.682   3.701   8.009  0.00  0.00    +0.000 HD
ATOM     11  H   UNL     1      44.664   5.074   8.394  0.00  0.00    +0.000 HD
ENDBRANCH   1   8
BRANCH   4  12
ATOM     12  N   UNL     1      46.916   6.783  13.980  0.00  0.00    +0.000 N 
ATOM     13  H   UNL     1      46.384   6.660  14.841  0.00  0.00    +0.000 HD
BRANCH  12  14
ATOM     14  C   UNL     1      48.346   6.523  14.201  0.00  0.00    +0.000 C 
BRANCH  14  15
ATOM     15  C   UNL     1      48.722   6.729  15.673  0.00  0.00    +0.000 C 
BRANCH  15  16
ATOM     16  C   UNL     1      48.634   5.452  16.454  0.00  0.00    +0.000 A 
ATOM     17  C   UNL     1      49.330   5.301  17.650  0.00  0.00    +0.000 A 
ATOM     18  N   UNL     1      49.312   4.154  18.368  0.00  0.00    +0.000 NA
ATOM     19  C   UNL     1      48.583   3.151  17.836  0.00  0.00    +0.000 A 
ATOM     20  C   UNL     1      47.896   3.287  16.642  0.00  0.00    +0.000 A 
ATOM     21  N   UNL     1      47.902   4.435  15.928  0.00  0.00    +0.000 NA
ENDBRANCH  15  16
ENDBRANCH  14  15
ENDBRANCH  12  14
ENDBRANCH   4  12
TORSDOF 5
ENDMDL
MODEL 7
REMARK VINA RESULT:    -5.367      4.081      5.919
REMARK INTER + INTRA:          -7.515
REMARK INTER:                  -7.176
REMARK INTRA:                  -0.339
REMARK UNBOUND:                -0.579
REMARK  Name = 
REMARK  5 active torsions:
REMARK  status: ('A' for Active; 'I' for Inactive)
REMARK    1  A    between atoms: C_2  and  C_4
REMARK    2  A    between atoms: C_7  and  N_8
REMARK    3  A    between atoms: N_8  and  C_9
REMARK    4  A    between atoms: C_9  and  C_10
REMARK    5  A    between atoms: C_10  and  C_11
REMARK                            x       y       z     vdW  Elec       q    Type
REMARK                         _______ _______ _______ _____ _____    ______ ____
ROOT
ATOM      1  C   UNL     1      45.433   4.892  11.426  0.00  0.00    +0.000 A 
ATOM      2  C   UNL     1      45.319   3.853  12.353  0.00  0.00    +0.000 A 
ATOM      3  C   UNL     1      45.953   3.954  13.595  0.00  0.00    +0.000 A 
ATOM      4  C   UNL     1      46.739   5.068  13.914  0.00  0.00    +0.000 A 
ATOM      5  C   UNL     1      46.799   6.124  12.999  0.00  0.00    +0.000 A 
ATOM      6  C   UNL     1      46.174   6.031  11.752  0.00  0.00    +0.000 A 
ENDROOT
BRANCH   1   8
ATOM      7  N   UNL     1      45.574   5.174   9.014  0.00  0.00    +0.000 N 
ATOM      8  C   UNL     1      44.804   4.813  10.083  0.00  0.00    +0.000 C 
ATOM      9  O   UNL     1      43.659   4.409   9.930  0.00  0.00    +0.000 OA
ATOM     10  H   UNL     1      45.172   5.010   8.099  0.00  0.00    +0.000 HD
ATOM     11  H   UNL     1      46.578   5.266   9.076  0.00  0.00    +0.000 HD
ENDBRANCH   1   8
BRANCH   4  12
ATOM     12  N   UNL     1      47.413   5.221  15.135  0.00  0.00    +0.000 N 
ATOM     13  H   UNL     1      47.240   6.160  15.495  0.00  0.00    +0.000 HD
BRANCH  12  14
ATOM     14  C   UNL     1      47.180   4.206  16.173  0.00  0.00    +0.000 C 
BRANCH  14  15
ATOM     15  C   UNL     1      48.075   4.452  17.394  0.00  0.00    +0.000 C 
BRANCH  15  16
ATOM     16  C   UNL     1      49.315   3.612  17.354  0.00  0.00    +0.000 A 
ATOM     17  C   UNL     1      49.277   2.311  16.859  0.00  0.00    +0.000 A 
ATOM     18  N   UNL     1      50.363   1.502  16.840  0.00  0.00    +0.000 NA
ATOM     19  C   UNL     1      51.491   2.038  17.351  0.00  0.00    +0.000 A 
ATOM     20  C   UNL     1      51.538   3.326  17.855  0.00  0.00    +0.000 A 
ATOM     21  N   UNL     1      50.458   4.140  17.865  0.00  0.00    +0.000 NA
ENDBRANCH  15  16
ENDBRANCH  14  15
ENDBRANCH  12  14
ENDBRANCH   4  12
TORSDOF 5
ENDMDL
MODEL 8
REMARK VINA RESULT:    -5.295      3.762      7.398
REMARK INTER + INTRA:          -7.422
REMARK INTER:                  -7.093
REMARK INTRA:                  -0.329
REMARK UNBOUND:                -0.579
REMARK  Name = 
REMARK  5 active torsions:
REMARK  status: ('A' for Active; 'I' for Inactive)
REMARK    1  A    between atoms: C_2  and  C_4
REMARK    2  A    between atoms: C_7  and  N_8
REMARK    3  A    between atoms: N_8  and  C_9
REMARK    4  A    between atoms: C_9  and  C_10
REMARK    5  A    between atoms: C_10  and  C_11
REMARK                            x       y       z     vdW  Elec       q    Type
REMARK                         _______ _______ _______ _____ _____    ______ ____
ROOT
ATOM      1  C   UNL     1      48.114   4.814  16.658  0.00  0.00    +0.000 A 
ATOM      2  C   UNL     1      48.622   6.024  16.178  0.00  0.00    +0.000 A 
ATOM      3  C   UNL     1      48.294   6.456  14.889  0.00  0.00    +0.000 A 
ATOM      4  C   UNL     1      47.495   5.672  14.048  0.00  0.00    +0.000 A 
ATOM      5  C   UNL     1      46.949   4.490  14.561  0.00  0.00    +0.000 A 
ATOM      6  C   UNL     1      47.275   4.047  15.846  0.00  0.00    +0.000 A 
ENDROOT
BRANCH   1   8
ATOM      7  N   UNL     1      47.706   4.745  19.055  0.00  0.00    +0.000 N 
ATOM      8  C   UNL     1      48.462   4.302  18.007  0.00  0.00    +0.000 C 
ATOM      9  O   UNL     1      49.363   3.490  18.177  0.00  0.00    +0.000 OA
ATOM     10  H   UNL     1      47.881   4.304  19.950  0.00  0.00    +0.000 HD
ATOM     11  H   UNL     1      46.816   5.204  18.924  0.00  0.00    +0.000 HD
ENDBRANCH   1   8
BRANCH   4  12
ATOM     12  N   UNL     1      47.144   6.041  12.741  0.00  0.00    +0.000 N 
ATOM     13  H   UNL     1      47.748   5.548  12.083  0.00  0.00    +0.000 HD
BRANCH  12  14
ATOM     14  C   UNL     1      45.730   5.917  12.354  0.00  0.00    +0.000 C 
BRANCH  14  15
ATOM     15  C   UNL     1      45.535   6.244  10.869  0.00  0.00    +0.000 C 
BRANCH  15  16
ATOM     16  C   UNL     1      45.177   5.025  10.074  0.00  0.00    +0.000 A 
ATOM     17  C   UNL     1      44.388   4.020  10.628  0.00  0.00    +0.000 A 
ATOM     18  N   UNL     1      44.074   2.884   9.962  0.00  0.00    +0.000 NA
ATOM     19  C   UNL     1      44.593   2.780   8.721  0.00  0.00    +0.000 A 
ATOM     20  C   UNL     1      45.387   3.768   8.164  0.00  0.00    +0.000 A 
ATOM     21  N   UNL     1      45.693   4.908   8.822  0.00  0.00    +0.000 NA
ENDBRANCH  15  16
ENDBRANCH  14  15
ENDBRANCH  12  14
ENDBRANCH   4  12
TORSDOF 5
ENDMDL
MODEL 9
REMARK VINA RESULT:    -5.267      2.735      4.520
REMARK INTER + INTRA:          -7.386
REMARK INTER:                  -6.684
REMARK INTRA:                  -0.701
REMARK UNBOUND:                -0.579
REMARK  Name = 
REMARK  5 active torsions:
REMARK  status: ('A' for Active; 'I' for Inactive)
REMARK    1  A    between atoms: C_2  and  C_4
REMARK    2  A    between atoms: C_7  and  N_8
REMARK    3  A    between atoms: N_8  and  C_9
REMARK    4  A    between atoms: C_9  and  C_10
REMARK    5  A    between atoms: C_10  and  C_11
REMARK                            x       y       z     vdW  Elec       q    Type
REMARK                         _______ _______ _______ _____ _____    ______ ____
ROOT
ATOM      1  C   UNL     1      45.011   3.797  10.189  0.00  0.00    +0.000 A 
ATOM      2  C   UNL     1      45.402   5.118   9.957  0.00  0.00    +0.000 A 
ATOM      3  C   UNL     1      45.799   5.926  11.026  0.00  0.00    +0.000 A 
ATOM      4  C   UNL     1      45.772   5.445  12.341  0.00  0.00    +0.000 A 
ATOM      5  C   UNL     1      45.431   4.105  12.552  0.00  0.00    +0.000 A 
ATOM      6  C   UNL     1      45.027   3.291  11.491  0.00  0.00    +0.000 A 
ENDROOT
BRANCH   1   8
ATOM      7  N   UNL     1      44.211   3.516   7.909  0.00  0.00    +0.000 N 
ATOM      8  C   UNL     1      44.550   2.914   9.087  0.00  0.00    +0.000 C 
ATOM      9  O   UNL     1      44.509   1.697   9.211  0.00  0.00    +0.000 OA
ATOM     10  H   UNL     1      44.006   2.897   7.134  0.00  0.00    +0.000 HD
ATOM     11  H   UNL     1      44.469   4.468   7.693  0.00  0.00    +0.000 HD
ENDBRANCH   1   8
BRANCH   4  12
ATOM     12  N   UNL     1      46.142   6.210  13.458  0.00  0.00    +0.000 N 
ATOM     13  H   UNL     1      45.904   5.696  14.306  0.00  0.00    +0.000 HD
BRANCH  12  14
ATOM     14  C   UNL     1      47.525   6.709  13.513  0.00  0.00    +0.000 C 
BRANCH  14  15
ATOM     15  C   UNL     1      47.566   8.166  13.989  0.00  0.00    +0.000 C 
BRANCH  15  16
ATOM     16  C   UNL     1      46.864   9.084  13.034  0.00  0.00    +0.000 A 
ATOM     17  C   UNL     1      47.577  10.030  12.304  0.00  0.00    +0.000 A 
ATOM     18  N   UNL     1      46.980  10.906  11.461  0.00  0.00    +0.000 NA
ATOM     19  C   UNL     1      45.636  10.811  11.386  0.00  0.00    +0.000 A 
ATOM     20  C   UNL     1      44.917   9.881  12.116  0.00  0.00    +0.000 A 
ATOM     21  N   UNL     1      45.510   8.998  12.950  0.00  0.00    +0.000 NA
ENDBRANCH  15  16
ENDBRANCH  14  15
ENDBRANCH  12  14
ENDBRANCH   4  12
TORSDOF 5
ENDMDL
