MODEL 1
REMARK VINA RESULT:    -7.517      0.000      0.000
REMARK INTER + INTRA:         -10.612
REMARK INTER:                  -9.934
REMARK INTRA:                  -0.679
REMARK UNBOUND:                -0.679
REMARK  Name = 
REMARK  7 active torsions:
REMARK  status: ('A' for Active; 'I' for Inactive)
REMARK    1  A    between atoms: C_1  and  S_2
REMARK    2  A    between atoms: S_2  and  N_5
REMARK    3  A    between atoms: N_5  and  C_6
REMARK    4  A    between atoms: C_10  and  C_11
REMARK    5  A    between atoms: C_11  and  N_12
REMARK    6  A    between atoms: C_17  and  C_18
REMARK    7  A    between atoms: C_18  and  O_19
REMARK                            x       y       z     vdW  Elec       q    Type
REMARK                         _______ _______ _______ _____ _____    ______ ____
ROOT
ATOM      1  C   UNL     1      44.450   5.119  10.852  0.00  0.00    +0.000 C 
ENDROOT
BRANCH   1   2
ATOM      2  N   UNL     1      44.741   3.872  10.144  0.00  0.00    +0.000 N 
ATOM      3  C   UNL     1      44.113   2.676  10.406  0.00  0.00    +0.000 A 
ATOM      4  C   UNL     1      44.453   1.786   9.414  0.00  0.00    +0.000 A 
ATOM      5  C   UNL     1      45.317   2.459   8.509  0.00  0.00    +0.000 A 
ATOM      6  C   UNL     1      45.933   2.083   7.298  0.00  0.00    +0.000 A 
ATOM      7  C   UNL     1      46.728   2.999   6.587  0.00  0.00    +0.000 A 
ATOM      8  C   UNL     1      46.944   4.270   7.131  0.00  0.00    +0.000 A 
ATOM      9  C   UNL     1      46.341   4.669   8.333  0.00  0.00    +0.000 A 
ATOM     10  C   UNL     1      45.513   3.752   9.001  0.00  0.00    +0.000 A 
BRANCH   7  11
ATOM     11  C   UNL     1      47.368   2.562   5.294  0.00  0.00    +0.000 C 
BRANCH  11  12
ATOM     12  O   UNL     1      48.536   1.779   5.512  0.00  0.00    +0.000 OA
ATOM     13  H   UNL     1      49.205   2.104   4.885  0.00  0.00    +0.000 HD
ENDBRANCH  11  12
ENDBRANCH   7  11
ENDBRANCH   1   2
BRANCH   1  18
ATOM     14  C   UNL     1      46.508   5.306  14.050  0.00  0.00    +0.000 A 
ATOM     15  C   UNL     1      47.420   6.280  13.659  0.00  0.00    +0.000 A 
ATOM     16  N   UNL     1      47.412   6.869  12.439  0.00  0.00    +0.000 NA
ATOM     17  C   UNL     1      46.453   6.469  11.573  0.00  0.00    +0.000 A 
ATOM     18  C   UNL     1      45.508   5.485  11.854  0.00  0.00    +0.000 A 
ATOM     19  C   UNL     1      45.571   4.876  13.115  0.00  0.00    +0.000 A 
BRANCH  14  20
ATOM     20  N   UNL     1      46.469   4.770  15.377  0.00  0.00    +0.000 N 
ATOM     21  H   UNL     1      46.290   5.474  16.098  0.00  0.00    +0.000 HD
BRANCH  20  23
ATOM     22  C   UNL     1      47.118   3.167  17.415  0.00  0.00    +0.000 C 
ATOM     23  S   UNL     1      47.760   3.796  15.875  0.00  0.00    +0.000 S 
ATOM     24  O   UNL     1      48.842   4.700  16.178  0.00  0.00    +0.000 OA
ATOM     25  O   UNL     1      47.921   2.683  14.963  0.00  0.00    +0.000 OA
ENDBRANCH  20  23
ENDBRANCH  14  20
ENDBRANCH   1  18
TORSDOF 6
ENDMDL
MODEL 2
REMARK VINA RESULT:    -7.074      2.015      2.481
REMARK INTER + INTRA:         -10.027
REMARK INTER:                  -9.707
REMARK INTRA:                  -0.320
REMARK UNBOUND:                -0.679
REMARK  Name = 
REMARK  7 active torsions:
REMARK  status: ('A' for Active; 'I' for Inactive)
REMARK    1  A    between atoms: C_1  and  S_2
REMARK    2  A    between atoms: S_2  and  N_5
REMARK    3  A    between atoms: N_5  and  C_6
REMARK    4  A    between atoms: C_10  and  C_11
REMARK    5  A    between atoms: C_11  and  N_12
REMARK    6  A    between atoms: C_17  and  C_18
REMARK    7  A    between atoms: C_18  and  O_19
REMARK                            x       y       z     vdW  Elec       q    Type
REMARK                         _______ _______ _______ _____ _____    ______ ____
ROOT
ATOM      1  C   UNL     1      43.517   5.733  10.673  0.00  0.00    +0.000 C 
ENDROOT
BRANCH   1   2
ATOM      2  N   UNL     1      44.025   4.370  10.510  0.00  0.00    +0.000 N 
ATOM      3  C   UNL     1      43.534   3.281  11.194  0.00  0.00    +0.000 A 
ATOM      4  C   UNL     1      44.069   2.146  10.632  0.00  0.00    +0.000 A 
ATOM      5  C   UNL     1      44.914   2.549   9.563  0.00  0.00    +0.000 A 
ATOM      6  C   UNL     1      45.674   1.842   8.610  0.00  0.00    +0.000 A 
ATOM      7  C   UNL     1      46.402   2.531   7.624  0.00  0.00    +0.000 A 
ATOM      8  C   UNL     1      46.407   3.930   7.643  0.00  0.00    +0.000 A 
ATOM      9  C   UNL     1      45.658   4.657   8.580  0.00  0.00    +0.000 A 
ATOM     10  C   UNL     1      44.900   3.946   9.524  0.00  0.00    +0.000 A 
BRANCH   7  11
ATOM     11  C   UNL     1      47.200   1.741   6.619  0.00  0.00    +0.000 C 
BRANCH  11  12
ATOM     12  O   UNL     1      48.551   2.182   6.541  0.00  0.00    +0.000 OA
ATOM     13  H   UNL     1      49.022   1.530   5.994  0.00  0.00    +0.000 HD
ENDBRANCH  11  12
ENDBRANCH   7  11
ENDBRANCH   1   2
BRANCH   1  18
ATOM     14  C   UNL     1      46.158   6.945  13.135  0.00  0.00    +0.000 A 
ATOM     15  C   UNL     1      46.056   8.311  12.900  0.00  0.00    +0.000 A 
ATOM     16  N   UNL     1      45.199   8.857  12.004  0.00  0.00    +0.000 NA
ATOM     17  C   UNL     1      44.411   8.002  11.313  0.00  0.00    +0.000 A 
ATOM     18  C   UNL     1      44.450   6.616  11.452  0.00  0.00    +0.000 A 
ATOM     19  C   UNL     1      45.374   6.089  12.365  0.00  0.00    +0.000 A 
BRANCH  14  20
ATOM     20  N   UNL     1      46.995   6.395  14.158  0.00  0.00    +0.000 N 
ATOM     21  H   UNL     1      46.544   6.347  15.075  0.00  0.00    +0.000 HD
BRANCH  20  23
ATOM     22  C   UNL     1      49.137   6.971  12.667  0.00  0.00    +0.000 C 
ATOM     23  S   UNL     1      48.545   7.047  14.346  0.00  0.00    +0.000 S 
ATOM     24  O   UNL     1      49.286   6.083  15.124  0.00  0.00    +0.000 OA
ATOM     25  O   UNL     1      48.454   8.439  14.733  0.00  0.00    +0.000 OA
ENDBRANCH  20  23
ENDBRANCH  14  20
ENDBRANCH   1  18
TORSDOF 6
ENDMDL
MODEL 3
REMARK VINA RESULT:    -6.621      3.101      3.750
REMARK INTER + INTRA:          -9.429
REMARK INTER:                  -8.963
REMARK INTRA:                  -0.466
REMARK UNBOUND:                -0.679
REMARK  Name = 
REMARK  7 active torsions:
REMARK  status: ('A' for Active; 'I' for Inactive)
REMARK    1  A    between atoms: C_1  and  S_2
REMARK    2  A    between atoms: S_2  and  N_5
REMARK    3  A    between atoms: N_5  and  C_6
REMARK    4  A    between atoms: C_10  and  C_11
REMARK    5  A    between atoms: C_11  and  N_12
REMARK    6  A    between atoms: C_17  and  C_18
REMARK    7  A    between atoms: C_18  and  O_19
REMARK                            x       y       z     vdW  Elec       q    Type
REMARK                         _______ _______ _______ _____ _____    ______ ____
ROOT
ATOM      1  C   UNL     1      44.097   5.784  10.985  0.00  0.00    +0.000 C 
ENDROOT
BRANCH   1   2
ATOM      2  N   UNL     1      44.423   4.426  10.545  0.00  0.00    +0.000 N 
ATOM      3  C   UNL     1      43.818   3.293  11.040  0.00  0.00    +0.000 A 
ATOM      4  C   UNL     1      44.188   2.230  10.249  0.00  0.00    +0.000 A 
ATOM      5  C   UNL     1      45.047   2.726   9.232  0.00  0.00    +0.000 A 
ATOM      6  C   UNL     1      45.684   2.129   8.126  0.00  0.00    +0.000 A 
ATOM      7  C   UNL     1      46.465   2.901   7.250  0.00  0.00    +0.000 A 
ATOM      8  C   UNL     1      46.648   4.260   7.527  0.00  0.00    +0.000 A 
ATOM      9  C   UNL     1      46.024   4.879   8.621  0.00  0.00    +0.000 A 
ATOM     10  C   UNL     1      45.209   4.097   9.454  0.00  0.00    +0.000 A 
BRANCH   7  11
ATOM     11  C   UNL     1      47.128   2.228   6.075  0.00  0.00    +0.000 C 
BRANCH  11  12
ATOM     12  O   UNL     1      48.479   1.874   6.352  0.00  0.00    +0.000 OA
ATOM     13  H   UNL     1      48.541   1.762   7.316  0.00  0.00    +0.000 HD
ENDBRANCH  11  12
ENDBRANCH   7  11
ENDBRANCH   1   2
BRANCH   1  18
ATOM     14  C   UNL     1      46.303   8.256  12.861  0.00  0.00    +0.000 A 
ATOM     15  C   UNL     1      47.116   7.349  13.532  0.00  0.00    +0.000 A 
ATOM     16  N   UNL     1      46.993   6.005  13.419  0.00  0.00    +0.000 NA
ATOM     17  C   UNL     1      46.017   5.547  12.601  0.00  0.00    +0.000 A 
ATOM     18  C   UNL     1      45.133   6.366  11.903  0.00  0.00    +0.000 A 
ATOM     19  C   UNL     1      45.273   7.751  12.074  0.00  0.00    +0.000 A 
BRANCH  14  20
ATOM     20  N   UNL     1      46.514   9.671  12.914  0.00  0.00    +0.000 N 
ATOM     21  H   UNL     1      45.690  10.218  12.651  0.00  0.00    +0.000 HD
BRANCH  20  23
ATOM     22  C   UNL     1      48.837  10.857  13.498  0.00  0.00    +0.000 C 
ATOM     23  S   UNL     1      47.865  10.300  12.112  0.00  0.00    +0.000 S 
ATOM     24  O   UNL     1      47.394  11.463  11.400  0.00  0.00    +0.000 OA
ATOM     25  O   UNL     1      48.589   9.235  11.450  0.00  0.00    +0.000 OA
ENDBRANCH  20  23
ENDBRANCH  14  20
ENDBRANCH   1  18
TORSDOF 6
ENDMDL
MODEL 4
REMARK VINA RESULT:    -6.296      2.763      7.205
REMARK INTER + INTRA:          -8.999
REMARK INTER:                  -8.348
REMARK INTRA:                  -0.651
REMARK UNBOUND:                -0.679
REMARK  Name = 
REMARK  7 active torsions:
REMARK  status: ('A' for Active; 'I' for Inactive)
REMARK    1  A    between atoms: C_1  and  S_2
REMARK    2  A    between atoms: S_2  and  N_5
REMARK    3  A    between atoms: N_5  and  C_6
REMARK    4  A    between atoms: C_10  and  C_11
REMARK    5  A    between atoms: C_11  and  N_12
REMARK    6  A    between atoms: C_17  and  C_18
REMARK    7  A    between atoms: C_18  and  O_19
REMARK                            x       y       z     vdW  Elec       q    Type
REMARK                         _______ _______ _______ _____ _____    ______ ____
ROOT
ATOM      1  C   UNL     1      43.284   5.935  11.552  0.00  0.00    +0.000 C 
ENDROOT
BRANCH   1   2
ATOM      2  N   UNL     1      44.435   6.822  11.728  0.00  0.00    +0.000 N 
ATOM      3  C   UNL     1      44.471   8.128  11.295  0.00  0.00    +0.000 A 
ATOM      4  C   UNL     1      45.591   8.724  11.826  0.00  0.00    +0.000 A 
ATOM      5  C   UNL     1      46.264   7.754  12.615  0.00  0.00    +0.000 A 
ATOM      6  C   UNL     1      47.416   7.796  13.427  0.00  0.00    +0.000 A 
ATOM      7  C   UNL     1      47.831   6.655  14.135  0.00  0.00    +0.000 A 
ATOM      8  C   UNL     1      47.117   5.463  13.974  0.00  0.00    +0.000 A 
ATOM      9  C   UNL     1      45.968   5.396  13.173  0.00  0.00    +0.000 A 
ATOM     10  C   UNL     1      45.544   6.560  12.514  0.00  0.00    +0.000 A 
BRANCH   7  11
ATOM     11  C   UNL     1      49.066   6.739  14.996  0.00  0.00    +0.000 C 
BRANCH  11  12
ATOM     12  O   UNL     1      49.158   5.650  15.908  0.00  0.00    +0.000 OA
ATOM     13  H   UNL     1      49.935   5.825  16.467  0.00  0.00    +0.000 HD
ENDBRANCH  11  12
ENDBRANCH   7  11
ENDBRANCH   1   2
BRANCH   1  18
ATOM     14  C   UNL     1      44.413   3.392   8.953  0.00  0.00    +0.000 A 
ATOM     15  C   UNL     1      44.171   2.228   9.675  0.00  0.00    +0.000 A 
ATOM     16  N   UNL     1      43.674   2.217  10.935  0.00  0.00    +0.000 NA
ATOM     17  C   UNL     1      43.409   3.418  11.498  0.00  0.00    +0.000 A 
ATOM     18  C   UNL     1      43.638   4.642  10.875  0.00  0.00    +0.000 A 
ATOM     19  C   UNL     1      44.184   4.611   9.583  0.00  0.00    +0.000 A 
BRANCH  14  20
ATOM     20  N   UNL     1      44.842   3.381   7.587  0.00  0.00    +0.000 N 
ATOM     21  H   UNL     1      44.368   2.677   7.015  0.00  0.00    +0.000 HD
BRANCH  20  23
ATOM     22  C   UNL     1      46.497   3.044   5.516  0.00  0.00    +0.000 C 
ATOM     23  S   UNL     1      46.504   3.304   7.279  0.00  0.00    +0.000 S 
ATOM     24  O   UNL     1      46.965   2.090   7.908  0.00  0.00    +0.000 OA
ATOM     25  O   UNL     1      47.117   4.588   7.546  0.00  0.00    +0.000 OA
ENDBRANCH  20  23
ENDBRANCH  14  20
ENDBRANCH   1  18
TORSDOF 6
ENDMDL
MODEL 5
REMARK VINA RESULT:    -6.112      4.043      8.752
REMARK INTER + INTRA:          -8.756
REMARK INTER:                  -8.173
REMARK INTRA:                  -0.583
REMARK UNBOUND:                -0.679
REMARK  Name = 
REMARK  7 active torsions:
REMARK  status: ('A' for Active; 'I' for Inactive)
REMARK    1  A    between atoms: C_1  and  S_2
REMARK    2  A    between atoms: S_2  and  N_5
REMARK    3  A    between atoms: N_5  and  C_6
REMARK    4  A    between atoms: C_10  and  C_11
REMARK    5  A    between atoms: C_11  and  N_12
REMARK    6  A    between atoms: C_17  and  C_18
REMARK    7  A    between atoms: C_18  and  O_19
REMARK                            x       y       z     vdW  Elec       q    Type
REMARK                         _______ _______ _______ _____ _____    ______ ____
ROOT
ATOM      1  C   UNL     1      48.331   5.016  17.489  0.00  0.00    +0.000 C 
ENDROOT
BRANCH   1   2
ATOM      2  N   UNL     1      49.765   4.858  17.733  0.00  0.00    +0.000 N 
ATOM      3  C   UNL     1      50.555   5.823  18.315  0.00  0.00    +0.000 A 
ATOM      4  C   UNL     1      51.777   5.260  18.603  0.00  0.00    +0.000 A 
ATOM      5  C   UNL     1      51.736   3.903  18.186  0.00  0.00    +0.000 A 
ATOM      6  C   UNL     1      52.655   2.837  18.268  0.00  0.00    +0.000 A 
ATOM      7  C   UNL     1      52.311   1.561  17.789  0.00  0.00    +0.000 A 
ATOM      8  C   UNL     1      51.066   1.382  17.177  0.00  0.00    +0.000 A 
ATOM      9  C   UNL     1      50.134   2.426  17.085  0.00  0.00    +0.000 A 
ATOM     10  C   UNL     1      50.481   3.679  17.613  0.00  0.00    +0.000 A 
BRANCH   7  11
ATOM     11  C   UNL     1      53.318   0.444  17.897  0.00  0.00    +0.000 C 
BRANCH  11  12
ATOM     12  O   UNL     1      52.785  -0.696  18.562  0.00  0.00    +0.000 OA
ATOM     13  H   UNL     1      53.546  -1.192  18.911  0.00  0.00    +0.000 HD
ENDBRANCH  11  12
ENDBRANCH   7  11
ENDBRANCH   1   2
BRANCH   1  18
ATOM     14  C   UNL     1      46.908   4.546  13.989  0.00  0.00    +0.000 A 
ATOM     15  C   UNL     1      47.529   5.620  13.361  0.00  0.00    +0.000 A 
ATOM     16  N   UNL     1      48.366   6.477  13.993  0.00  0.00    +0.000 NA
ATOM     17  C   UNL     1      48.592   6.252  15.308  0.00  0.00    +0.000 A 
ATOM     18  C   UNL     1      48.002   5.223  16.038  0.00  0.00    +0.000 A 
ATOM     19  C   UNL     1      47.116   4.378  15.354  0.00  0.00    +0.000 A 
BRANCH  14  20
ATOM     20  N   UNL     1      46.108   3.592  13.281  0.00  0.00    +0.000 N 
ATOM     21  H   UNL     1      46.591   3.160  12.489  0.00  0.00    +0.000 HD
BRANCH  20  23
ATOM     22  C   UNL     1      44.868   4.408  11.058  0.00  0.00    +0.000 C 
ATOM     23  S   UNL     1      44.563   4.070  12.782  0.00  0.00    +0.000 S 
ATOM     24  O   UNL     1      44.306   5.325  13.444  0.00  0.00    +0.000 OA
ATOM     25  O   UNL     1      43.646   2.953  12.870  0.00  0.00    +0.000 OA
ENDBRANCH  20  23
ENDBRANCH  14  20
ENDBRANCH   1  18
TORSDOF 6
ENDMDL
MODEL 6
REMARK VINA RESULT:    -5.871      4.137      7.484
REMARK INTER + INTRA:          -8.438
REMARK INTER:                  -7.984
REMARK INTRA:                  -0.454
REMARK UNBOUND:                -0.679
REMARK  Name = 
REMARK  7 active torsions:
REMARK  status: ('A' for Active; 'I' for Inactive)
REMARK    1  A    between atoms: C_1  and  S_2
REMARK    2  A    between atoms: S_2  and  N_5
REMARK    3  A    between atoms: N_5  and  C_6
REMARK    4  A    between atoms: C_10  and  C_11
REMARK    5  A    between atoms: C_11  and  N_12
REMARK    6  A    between atoms: C_17  and  C_18
REMARK    7  A    between atoms: C_18  and  O_19
REMARK                            x       y       z     vdW  Elec       q    Type
REMARK                         _______ _______ _______ _____ _____    ______ ____
ROOT
ATOM      1  C   UNL     1      48.682   7.250  12.200  0.00  0.00    +0.000 C 
ENDROOT
BRANCH   1   2
ATOM      2  N   UNL     1      49.056   7.131  13.610  0.00  0.00    +0.000 N 
ATOM      3  C   UNL     1      49.825   8.055  14.281  0.00  0.00    +0.000 A 
ATOM      4  C   UNL     1      49.782   7.755  15.622  0.00  0.00    +0.000 A 
ATOM      5  C   UNL     1      48.955   6.611  15.783  0.00  0.00    +0.000 A 
ATOM      6  C   UNL     1      48.508   5.890  16.909  0.00  0.00    +0.000 A 
ATOM      7  C   UNL     1      47.644   4.792  16.756  0.00  0.00    +0.000 A 
ATOM      8  C   UNL     1      47.284   4.391  15.465  0.00  0.00    +0.000 A 
ATOM      9  C   UNL     1      47.715   5.092  14.329  0.00  0.00    +0.000 A 
ATOM     10  C   UNL     1      48.538   6.214  14.510  0.00  0.00    +0.000 A 
BRANCH   7  11
ATOM     11  C   UNL     1      47.183   4.048  17.983  0.00  0.00    +0.000 C 
BRANCH  11  12
ATOM     12  O   UNL     1      46.546   2.818  17.657  0.00  0.00    +0.000 OA
ATOM     13  H   UNL     1      46.531   2.291  18.474  0.00  0.00    +0.000 HD
ENDBRANCH  11  12
ENDBRANCH   7  11
ENDBRANCH   1   2
BRANCH   1  18
ATOM     14  C   UNL     1      45.046   6.663  11.236  0.00  0.00    +0.000 A 
ATOM     15  C   UNL     1      44.532   7.909  11.577  0.00  0.00    +0.000 A 
ATOM     16  N   UNL     1      45.279   8.913  12.097  0.00  0.00    +0.000 NA
ATOM     17  C   UNL     1      46.595   8.661  12.283  0.00  0.00    +0.000 A 
ATOM     18  C   UNL     1      47.206   7.442  11.999  0.00  0.00    +0.000 A 
ATOM     19  C   UNL     1      46.391   6.418  11.494  0.00  0.00    +0.000 A 
BRANCH  14  20
ATOM     20  N   UNL     1      44.262   5.652  10.594  0.00  0.00    +0.000 N 
ATOM     21  H   UNL     1      43.793   5.975   9.743  0.00  0.00    +0.000 HD
BRANCH  20  23
ATOM     22  C   UNL     1      44.063   4.642  13.060  0.00  0.00    +0.000 C 
ATOM     23  S   UNL     1      43.149   4.795  11.537  0.00  0.00    +0.000 S 
ATOM     24  O   UNL     1      43.053   3.485  10.941  0.00  0.00    +0.000 OA
ATOM     25  O   UNL     1      41.981   5.612  11.790  0.00  0.00    +0.000 OA
ENDBRANCH  20  23
ENDBRANCH  14  20
ENDBRANCH   1  18
TORSDOF 6
ENDMDL
MODEL 7
REMARK VINA RESULT:    -5.840      3.868      5.167
REMARK INTER + INTRA:          -8.397
REMARK INTER:                  -7.601
REMARK INTRA:                  -0.796
REMARK UNBOUND:                -0.679
REMARK  Name = 
REMARK  7 active torsions:
REMARK  status: ('A' for Active; 'I' for Inactive)
REMARK    1  A    between atoms: C_1  and  S_2
REMARK    2  A    between atoms: S_2  and  N_5
REMARK    3  A    between atoms: N_5  and  C_6
REMARK    4  A    between atoms: C_10  and  C_11
REMARK    5  A    between atoms: C_11  and  N_12
REMARK    6  A    between atoms: C_17  and  C_18
REMARK    7  A    between atoms: C_18  and  O_19
REMARK                            x       y       z     vdW  Elec       q    Type
REMARK                         _______ _______ _______ _____ _____    ______ ____
ROOT
ATOM      1  C   UNL     1      48.251   7.796  13.159  0.00  0.00    +0.000 C 
ENDROOT
BRANCH   1   2
ATOM      2  N   UNL     1      46.851   7.679  12.749  0.00  0.00    +0.000 N 
ATOM      3  C   UNL     1      46.125   8.709  12.194  0.00  0.00    +0.000 A 
ATOM      4  C   UNL     1      44.942   8.192  11.720  0.00  0.00    +0.000 A 
ATOM      5  C   UNL     1      44.940   6.797  11.991  0.00  0.00    +0.000 A 
ATOM      6  C   UNL     1      44.037   5.755  11.698  0.00  0.00    +0.000 A 
ATOM      7  C   UNL     1      44.330   4.432  12.071  0.00  0.00    +0.000 A 
ATOM      8  C   UNL     1      45.504   4.176  12.788  0.00  0.00    +0.000 A 
ATOM      9  C   UNL     1      46.419   5.195  13.090  0.00  0.00    +0.000 A 
ATOM     10  C   UNL     1      46.128   6.501  12.665  0.00  0.00    +0.000 A 
BRANCH   7  11
ATOM     11  C   UNL     1      43.342   3.343  11.738  0.00  0.00    +0.000 C 
BRANCH  11  12
ATOM     12  O   UNL     1      43.540   2.178  12.531  0.00  0.00    +0.000 OA
ATOM     13  H   UNL     1      42.935   2.256  13.289  0.00  0.00    +0.000 HD
ENDBRANCH  11  12
ENDBRANCH   7  11
ENDBRANCH   1   2
BRANCH   1  18
ATOM     14  C   UNL     1      48.909   6.655  16.731  0.00  0.00    +0.000 A 
ATOM     15  C   UNL     1      48.637   7.849  17.389  0.00  0.00    +0.000 A 
ATOM     16  N   UNL     1      48.262   8.986  16.756  0.00  0.00    +0.000 NA
ATOM     17  C   UNL     1      48.155   8.928  15.408  0.00  0.00    +0.000 A 
ATOM     18  C   UNL     1      48.428   7.792  14.650  0.00  0.00    +0.000 A 
ATOM     19  C   UNL     1      48.845   6.645  15.341  0.00  0.00    +0.000 A 
BRANCH  14  20
ATOM     20  N   UNL     1      49.204   5.437  17.425  0.00  0.00    +0.000 N 
ATOM     21  H   UNL     1      50.113   5.037  17.182  0.00  0.00    +0.000 HD
BRANCH  20  23
ATOM     22  C   UNL     1      48.634   3.167  18.715  0.00  0.00    +0.000 C 
ATOM     23  S   UNL     1      48.041   4.208  17.395  0.00  0.00    +0.000 S 
ATOM     24  O   UNL     1      48.241   3.508  16.150  0.00  0.00    +0.000 OA
ATOM     25  O   UNL     1      46.750   4.737  17.781  0.00  0.00    +0.000 OA
ENDBRANCH  20  23
ENDBRANCH  14  20
ENDBRANCH   1  18
TORSDOF 6
ENDMDL
MODEL 8
REMARK VINA RESULT:    -5.655      3.583      8.401
REMARK INTER + INTRA:          -8.152
REMARK INTER:                  -7.931
REMARK INTRA:                  -0.220
REMARK UNBOUND:                -0.679
REMARK  Name = 
REMARK  7 active torsions:
REMARK  status: ('A' for Active; 'I' for Inactive)
REMARK    1  A    between atoms: C_1  and  S_2
REMARK    2  A    between atoms: S_2  and  N_5
REMARK    3  A    between atoms: N_5  and  C_6
REMARK    4  A    between atoms: C_10  and  C_11
REMARK    5  A    between atoms: C_11  and  N_12
REMARK    6  A    between atoms: C_17  and  C_18
REMARK    7  A    between atoms: C_18  and  O_19
REMARK                            x       y       z     vdW  Elec       q    Type
REMARK                         _______ _______ _______ _____ _____    ______ ____
ROOT
ATOM      1  C   UNL     1      48.532   6.513  13.670  0.00  0.00    +0.000 C 
ENDROOT
BRANCH   1   2
ATOM      2  N   UNL     1      48.800   6.991  15.027  0.00  0.00    +0.000 N 
ATOM      3  C   UNL     1      48.942   8.318  15.360  0.00  0.00    +0.000 A 
ATOM      4  C   UNL     1      48.949   8.418  16.732  0.00  0.00    +0.000 A 
ATOM      5  C   UNL     1      48.802   7.108  17.261  0.00  0.00    +0.000 A 
ATOM      6  C   UNL     1      48.690   6.599  18.571  0.00  0.00    +0.000 A 
ATOM      7  C   UNL     1      48.514   5.222  18.788  0.00  0.00    +0.000 A 
ATOM      8  C   UNL     1      48.511   4.359  17.687  0.00  0.00    +0.000 A 
ATOM      9  C   UNL     1      48.618   4.840  16.374  0.00  0.00    +0.000 A 
ATOM     10  C   UNL     1      48.745   6.224  16.179  0.00  0.00    +0.000 A 
BRANCH   7  11
ATOM     11  C   UNL     1      48.395   4.715  20.204  0.00  0.00    +0.000 C 
BRANCH  11  12
ATOM     12  O   UNL     1      48.346   3.294  20.261  0.00  0.00    +0.000 OA
ATOM     13  H   UNL     1      49.266   2.991  20.350  0.00  0.00    +0.000 HD
ENDBRANCH  11  12
ENDBRANCH   7  11
ENDBRANCH   1   2
BRANCH   1  18
ATOM     14  C   UNL     1      45.033   5.137  13.074  0.00  0.00    +0.000 A 
ATOM     15  C   UNL     1      44.403   6.316  12.689  0.00  0.00    +0.000 A 
ATOM     16  N   UNL     1      45.033   7.513  12.615  0.00  0.00    +0.000 NA
ATOM     17  C   UNL     1      46.346   7.534  12.939  0.00  0.00    +0.000 A 
ATOM     18  C   UNL     1      47.066   6.418  13.361  0.00  0.00    +0.000 A 
ATOM     19  C   UNL     1      46.369   5.205  13.456  0.00  0.00    +0.000 A 
BRANCH  14  20
ATOM     20  N   UNL     1      44.377   3.864  13.047  0.00  0.00    +0.000 N 
ATOM     21  H   UNL     1      44.997   3.079  13.263  0.00  0.00    +0.000 HD
BRANCH  20  23
ATOM     22  C   UNL     1      44.719   3.530  10.417  0.00  0.00    +0.000 C 
ATOM     23  S   UNL     1      43.460   3.475  11.679  0.00  0.00    +0.000 S 
ATOM     24  O   UNL     1      42.571   4.592  11.470  0.00  0.00    +0.000 OA
ATOM     25  O   UNL     1      42.976   2.115  11.777  0.00  0.00    +0.000 OA
ENDBRANCH  20  23
ENDBRANCH  14  20
ENDBRANCH   1  18
TORSDOF 6
ENDMDL
MODEL 9
REMARK VINA RESULT:    -5.486      3.340      8.357
REMARK INTER + INTRA:          -7.929
REMARK INTER:                  -7.545
REMARK INTRA:                  -0.384
REMARK UNBOUND:                -0.679
REMARK  Name = 
REMARK  7 active torsions:
REMARK  status: ('A' for Active; 'I' for Inactive)
REMARK    1  A    between atoms: C_1  and  S_2
REMARK    2  A    between atoms: S_2  and  N_5
REMARK    3  A    between atoms: N_5  and  C_6
REMARK    4  A    between atoms: C_10  and  C_11
REMARK    5  A    between atoms: C_11  and  N_12
REMARK    6  A    between atoms: C_17  and  C_18
REMARK    7  A    between atoms: C_18  and  O_19
REMARK                            x       y       z     vdW  Elec       q    Type
REMARK                         _______ _______ _______ _____ _____    ______ ____
ROOT
ATOM      1  C   UNL     1      48.293   6.650  13.975  0.00  0.00    +0.000 C 
ENDROOT
BRANCH   1   2
ATOM      2  N   UNL     1      47.962   5.778  15.103  0.00  0.00    +0.000 N 
ATOM      3  C   UNL     1      47.171   4.656  15.000  0.00  0.00    +0.000 A 
ATOM      4  C   UNL     1      47.263   3.957  16.181  0.00  0.00    +0.000 A 
ATOM      5  C   UNL     1      48.142   4.671  17.038  0.00  0.00    +0.000 A 
ATOM      6  C   UNL     1      48.651   4.421  18.329  0.00  0.00    +0.000 A 
ATOM      7  C   UNL     1      49.556   5.316  18.924  0.00  0.00    +0.000 A 
ATOM      8  C   UNL     1      49.899   6.486  18.239  0.00  0.00    +0.000 A 
ATOM      9  C   UNL     1      49.408   6.757  16.953  0.00  0.00    +0.000 A 
ATOM     10  C   UNL     1      48.543   5.825  16.360  0.00  0.00    +0.000 A 
BRANCH   7  11
ATOM     11  C   UNL     1      50.081   5.014  20.305  0.00  0.00    +0.000 C 
BRANCH  11  12
ATOM     12  O   UNL     1      51.339   4.349  20.267  0.00  0.00    +0.000 OA
ATOM     13  H   UNL     1      51.931   4.911  19.737  0.00  0.00    +0.000 HD
ENDBRANCH  11  12
ENDBRANCH   7  11
ENDBRANCH   1   2
BRANCH   1  18
ATOM     14  C   UNL     1      45.730   6.448  11.167  0.00  0.00    +0.000 A 
ATOM     15  C   UNL     1      44.994   7.588  11.468  0.00  0.00    +0.000 A 
ATOM     16  N   UNL     1      45.270   8.405  12.513  0.00  0.00    +0.000 NA
ATOM     17  C   UNL     1      46.326   8.069  13.289  0.00  0.00    +0.000 A 
ATOM     18  C   UNL     1      47.113   6.937  13.091  0.00  0.00    +0.000 A 
ATOM     19  C   UNL     1      46.774   6.100  12.019  0.00  0.00    +0.000 A 
BRANCH  14  20
ATOM     20  N   UNL     1      45.486   5.654  10.000  0.00  0.00    +0.000 N 
ATOM     21  H   UNL     1      45.225   6.205   9.178  0.00  0.00    +0.000 HD
BRANCH  20  23
ATOM     22  C   UNL     1      44.506   3.678   8.492  0.00  0.00    +0.000 C 
ATOM     23  S   UNL     1      44.421   4.347  10.141  0.00  0.00    +0.000 S 
ATOM     24  O   UNL     1      43.111   4.924  10.322  0.00  0.00    +0.000 OA
ATOM     25  O   UNL     1      44.961   3.365  11.058  0.00  0.00    +0.000 OA
ENDBRANCH  20  23
ENDBRANCH  14  20
ENDBRANCH   1  18
TORSDOF 6
ENDMDL
