MODEL 1
REMARK VINA RESULT:    -6.970      0.000      0.000
REMARK INTER + INTRA:          -8.852
REMARK INTER:                  -8.600
REMARK INTRA:                  -0.252
REMARK UNBOUND:                -0.252
REMARK  Name = 
REMARK  4 active torsions:
REMARK  status: ('A' for Active; 'I' for Inactive)
REMARK    1  A    between atoms: C_2  and  C_3
REMARK    2  A    between atoms: C_7  and  C_8
REMARK    3  A    between atoms: C_8  and  C_9
REMARK    4  A    between atoms: C_13  and  C_14
REMARK                            x       y       z     vdW  Elec       q    Type
REMARK                         _______ _______ _______ _____ _____    ______ ____
ROOT
ATOM      1  C   UNL     1      44.449   3.876  11.359  0.00  0.00    +0.000 C 
ATOM      2  C   UNL     1      43.324   2.947  11.772  0.00  0.00    +0.000 C 
ATOM      3  C   UNL     1      42.992   4.286  11.194  0.00  0.00    +0.000 C 
ENDROOT
BRANCH   1   8
ATOM      4  C   UNL     1      46.123   2.189   8.349  0.00  0.00    +0.000 A 
ATOM      5  C   UNL     1      46.309   3.268   7.484  0.00  0.00    +0.000 A 
ATOM      6  C   UNL     1      45.974   4.557   7.894  0.00  0.00    +0.000 A 
ATOM      7  C   UNL     1      45.448   4.774   9.171  0.00  0.00    +0.000 A 
ATOM      8  C   UNL     1      45.239   3.705  10.057  0.00  0.00    +0.000 A 
ATOM      9  C   UNL     1      45.591   2.414   9.623  0.00  0.00    +0.000 A 
BRANCH   4  11
ATOM     10  N   UNL     1      46.712  -0.222   7.593  0.00  0.00    +0.000 NA
ATOM     11  C   UNL     1      46.443   0.858   7.926  0.00  0.00    +0.000 C 
ENDBRANCH   4  11
ENDBRANCH   1   8
BRANCH   1  12
ATOM     12  C   UNL     1      45.328   4.479  12.453  0.00  0.00    +0.000 A 
ATOM     13  C   UNL     1      46.114   3.636  13.231  0.00  0.00    +0.000 A 
ATOM     14  C   UNL     1      47.197   4.193  13.868  0.00  0.00    +0.000 A 
ATOM     15  N   UNL     1      47.497   5.498  13.801  0.00  0.00    +0.000 NA
ATOM     16  C   UNL     1      46.619   6.257  13.101  0.00  0.00    +0.000 A 
ATOM     17  N   UNL     1      45.540   5.811  12.435  0.00  0.00    +0.000 NA
BRANCH  16  18
ATOM     18  C   UNL     1      47.020   7.692  12.861  0.00  0.00    +0.000 C 
ATOM     19  N   UNL     1      46.427   8.616  13.690  0.00  0.00    +0.000 N 
ATOM     20  O   UNL     1      47.850   8.040  12.030  0.00  0.00    +0.000 OA
ATOM     21  H   UNL     1      45.828   8.301  14.446  0.00  0.00    +0.000 HD
ATOM     22  H   UNL     1      46.769   9.566  13.672  0.00  0.00    +0.000 HD
ENDBRANCH  16  18
ENDBRANCH   1  12
TORSDOF 4
ENDMDL
MODEL 2
REMARK VINA RESULT:    -6.860      2.092      2.979
REMARK INTER + INTRA:          -8.716
REMARK INTER:                  -8.578
REMARK INTRA:                  -0.138
REMARK UNBOUND:                -0.252
REMARK  Name = 
REMARK  4 active torsions:
REMARK  status: ('A' for Active; 'I' for Inactive)
REMARK    1  A    between atoms: C_2  and  C_3
REMARK    2  A    between atoms: C_7  and  C_8
REMARK    3  A    between atoms: C_8  and  C_9
REMARK    4  A    between atoms: C_13  and  C_14
REMARK                            x       y       z     vdW  Elec       q    Type
REMARK                         _______ _______ _______ _____ _____    ______ ____
ROOT
ATOM      1  C   UNL     1      44.233   5.174  11.625  0.00  0.00    +0.000 C 
ATOM      2  C   UNL     1      42.999   5.331  12.493  0.00  0.00    +0.000 C 
ATOM      3  C   UNL     1      43.232   6.293  11.372  0.00  0.00    +0.000 C 
ENDROOT
BRANCH   1   8
ATOM      4  C   UNL     1      45.399   3.431   8.415  0.00  0.00    +0.000 A 
ATOM      5  C   UNL     1      44.961   2.123   8.625  0.00  0.00    +0.000 A 
ATOM      6  C   UNL     1      44.215   1.810   9.761  0.00  0.00    +0.000 A 
ATOM      7  C   UNL     1      43.907   2.804  10.694  0.00  0.00    +0.000 A 
ATOM      8  C   UNL     1      44.346   4.126  10.515  0.00  0.00    +0.000 A 
ATOM      9  C   UNL     1      45.091   4.418   9.357  0.00  0.00    +0.000 A 
BRANCH   4  11
ATOM     10  N   UNL     1      46.813   4.023   6.322  0.00  0.00    +0.000 NA
ATOM     11  C   UNL     1      46.186   3.754   7.262  0.00  0.00    +0.000 C 
ENDBRANCH   4  11
ENDBRANCH   1   8
BRANCH   1  12
ATOM     12  C   UNL     1      45.598   5.452  12.252  0.00  0.00    +0.000 A 
ATOM     13  C   UNL     1      46.168   6.712  12.101  0.00  0.00    +0.000 A 
ATOM     14  C   UNL     1      47.129   7.082  13.011  0.00  0.00    +0.000 A 
ATOM     15  N   UNL     1      47.556   6.279  13.995  0.00  0.00    +0.000 NA
ATOM     16  C   UNL     1      47.015   5.037  14.003  0.00  0.00    +0.000 A 
ATOM     17  N   UNL     1      46.065   4.580  13.168  0.00  0.00    +0.000 NA
BRANCH  16  18
ATOM     18  C   UNL     1      47.343   4.172  15.196  0.00  0.00    +0.000 C 
ATOM     19  N   UNL     1      47.150   4.763  16.424  0.00  0.00    +0.000 N 
ATOM     20  O   UNL     1      47.707   3.005  15.115  0.00  0.00    +0.000 OA
ATOM     21  H   UNL     1      46.742   5.690  16.475  0.00  0.00    +0.000 HD
ATOM     22  H   UNL     1      47.211   4.185  17.249  0.00  0.00    +0.000 HD
ENDBRANCH  16  18
ENDBRANCH   1  12
TORSDOF 4
ENDMDL
MODEL 3
REMARK VINA RESULT:    -6.228      1.581      2.157
REMARK INTER + INTRA:          -7.937
REMARK INTER:                  -7.659
REMARK INTRA:                  -0.277
REMARK UNBOUND:                -0.252
REMARK  Name = 
REMARK  4 active torsions:
REMARK  status: ('A' for Active; 'I' for Inactive)
REMARK    1  A    between atoms: C_2  and  C_3
REMARK    2  A    between atoms: C_7  and  C_8
REMARK    3  A    between atoms: C_8  and  C_9
REMARK    4  A    between atoms: C_13  and  C_14
REMARK                            x       y       z     vdW  Elec       q    Type
REMARK                         _______ _______ _______ _____ _____    ______ ____
ROOT
ATOM      1  C   UNL     1      43.926   5.251  11.714  0.00  0.00    +0.000 C 
ATOM      2  C   UNL     1      42.595   5.429  12.420  0.00  0.00    +0.000 C 
ATOM      3  C   UNL     1      42.976   6.376  11.327  0.00  0.00    +0.000 C 
ENDROOT
BRANCH   1   8
ATOM      4  C   UNL     1      45.382   3.518   8.619  0.00  0.00    +0.000 A 
ATOM      5  C   UNL     1      45.010   2.190   8.834  0.00  0.00    +0.000 A 
ATOM      6  C   UNL     1      44.219   1.855   9.932  0.00  0.00    +0.000 A 
ATOM      7  C   UNL     1      43.797   2.847  10.822  0.00  0.00    +0.000 A 
ATOM      8  C   UNL     1      44.167   4.189  10.637  0.00  0.00    +0.000 A 
ATOM      9  C   UNL     1      44.960   4.503   9.518  0.00  0.00    +0.000 A 
BRANCH   4  11
ATOM     10  N   UNL     1      46.887   4.134   6.598  0.00  0.00    +0.000 NA
ATOM     11  C   UNL     1      46.215   3.865   7.505  0.00  0.00    +0.000 C 
ENDBRANCH   4  11
ENDBRANCH   1   8
BRANCH   1  12
ATOM     12  C   UNL     1      45.205   5.525  12.504  0.00  0.00    +0.000 A 
ATOM     13  C   UNL     1      45.747   4.511  13.287  0.00  0.00    +0.000 A 
ATOM     14  C   UNL     1      47.080   4.607  13.609  0.00  0.00    +0.000 A 
ATOM     15  N   UNL     1      47.852   5.637  13.238  0.00  0.00    +0.000 NA
ATOM     16  C   UNL     1      47.215   6.623  12.562  0.00  0.00    +0.000 A 
ATOM     17  N   UNL     1      45.923   6.622  12.190  0.00  0.00    +0.000 NA
BRANCH  16  18
ATOM     18  C   UNL     1      48.088   7.708  11.981  0.00  0.00    +0.000 C 
ATOM     19  N   UNL     1      47.575   8.983  12.060  0.00  0.00    +0.000 N 
ATOM     20  O   UNL     1      49.202   7.512  11.511  0.00  0.00    +0.000 OA
ATOM     21  H   UNL     1      46.702   9.143  12.552  0.00  0.00    +0.000 HD
ATOM     22  H   UNL     1      48.177   9.758  11.824  0.00  0.00    +0.000 HD
ENDBRANCH  16  18
ENDBRANCH   1  12
TORSDOF 4
ENDMDL
MODEL 4
REMARK VINA RESULT:    -6.108      2.188      3.294
REMARK INTER + INTRA:          -7.789
REMARK INTER:                  -7.670
REMARK INTRA:                  -0.118
REMARK UNBOUND:                -0.252
REMARK  Name = 
REMARK  4 active torsions:
REMARK  status: ('A' for Active; 'I' for Inactive)
REMARK    1  A    between atoms: C_2  and  C_3
REMARK    2  A    between atoms: C_7  and  C_8
REMARK    3  A    between atoms: C_8  and  C_9
REMARK    4  A    between atoms: C_13  and  C_14
REMARK                            x       y       z     vdW  Elec       q    Type
REMARK                         _______ _______ _______ _____ _____    ______ ____
ROOT
ATOM      1  C   UNL     1      45.319   6.390  11.735  0.00  0.00    +0.000 C 
ATOM      2  C   UNL     1      44.292   7.155  12.547  0.00  0.00    +0.000 C 
ATOM      3  C   UNL     1      44.836   7.764  11.294  0.00  0.00    +0.000 C 
ENDROOT
BRANCH   1   8
ATOM      4  C   UNL     1      45.445   3.982   8.753  0.00  0.00    +0.000 A 
ATOM      5  C   UNL     1      44.667   2.918   9.212  0.00  0.00    +0.000 A 
ATOM      6  C   UNL     1      44.029   3.002  10.449  0.00  0.00    +0.000 A 
ATOM      7  C   UNL     1      44.168   4.150  11.234  0.00  0.00    +0.000 A 
ATOM      8  C   UNL     1      44.955   5.230  10.803  0.00  0.00    +0.000 A 
ATOM      9  C   UNL     1      45.583   5.124   9.548  0.00  0.00    +0.000 A 
BRANCH   4  11
ATOM     10  N   UNL     1      46.660   3.818   6.467  0.00  0.00    +0.000 NA
ATOM     11  C   UNL     1      46.123   3.892   7.494  0.00  0.00    +0.000 C 
ENDBRANCH   4  11
ENDBRANCH   1   8
BRANCH   1  12
ATOM     12  C   UNL     1      46.710   6.188  12.335  0.00  0.00    +0.000 A 
ATOM     13  C   UNL     1      47.762   6.980  11.885  0.00  0.00    +0.000 A 
ATOM     14  C   UNL     1      48.852   7.110  12.713  0.00  0.00    +0.000 A 
ATOM     15  N   UNL     1      48.954   6.486  13.894  0.00  0.00    +0.000 NA
ATOM     16  C   UNL     1      47.926   5.660  14.203  0.00  0.00    +0.000 A 
ATOM     17  N   UNL     1      46.814   5.470  13.472  0.00  0.00    +0.000 NA
BRANCH  16  18
ATOM     18  C   UNL     1      47.928   5.081  15.597  0.00  0.00    +0.000 C 
ATOM     19  N   UNL     1      46.811   4.350  15.933  0.00  0.00    +0.000 N 
ATOM     20  O   UNL     1      48.862   5.190  16.381  0.00  0.00    +0.000 OA
ATOM     21  H   UNL     1      46.097   4.176  15.235  0.00  0.00    +0.000 HD
ATOM     22  H   UNL     1      46.825   3.820  16.793  0.00  0.00    +0.000 HD
ENDBRANCH  16  18
ENDBRANCH   1  12
TORSDOF 4
ENDMDL
MODEL 5
REMARK VINA RESULT:    -6.050      2.884      4.431
REMARK INTER + INTRA:          -7.717
REMARK INTER:                  -7.595
REMARK INTRA:                  -0.122
REMARK UNBOUND:                -0.252
REMARK  Name = 
REMARK  4 active torsions:
REMARK  status: ('A' for Active; 'I' for Inactive)
REMARK    1  A    between atoms: C_2  and  C_3
REMARK    2  A    between atoms: C_7  and  C_8
REMARK    3  A    between atoms: C_8  and  C_9
REMARK    4  A    between atoms: C_13  and  C_14
REMARK                            x       y       z     vdW  Elec       q    Type
REMARK                         _______ _______ _______ _____ _____    ______ ____
ROOT
ATOM      1  C   UNL     1      46.175   6.640  12.219  0.00  0.00    +0.000 C 
ATOM      2  C   UNL     1      47.633   6.364  12.529  0.00  0.00    +0.000 C 
ATOM      3  C   UNL     1      46.586   5.967  13.521  0.00  0.00    +0.000 C 
ENDROOT
BRANCH   1   8
ATOM      4  C   UNL     1      45.246   4.494   9.179  0.00  0.00    +0.000 A 
ATOM      5  C   UNL     1      44.085   3.860   9.622  0.00  0.00    +0.000 A 
ATOM      6  C   UNL     1      43.546   4.179  10.867  0.00  0.00    +0.000 A 
ATOM      7  C   UNL     1      44.168   5.133  11.678  0.00  0.00    +0.000 A 
ATOM      8  C   UNL     1      45.344   5.777  11.263  0.00  0.00    +0.000 A 
ATOM      9  C   UNL     1      45.865   5.443  10.000  0.00  0.00    +0.000 A 
BRANCH   4  11
ATOM     10  N   UNL     1      46.289   3.867   6.888  0.00  0.00    +0.000 NA
ATOM     11  C   UNL     1      45.818   4.154   7.910  0.00  0.00    +0.000 C 
ENDBRANCH   4  11
ENDBRANCH   1   8
BRANCH   1  12
ATOM     12  C   UNL     1      45.705   8.094  12.186  0.00  0.00    +0.000 A 
ATOM     13  C   UNL     1      46.642   9.111  12.333  0.00  0.00    +0.000 A 
ATOM     14  C   UNL     1      46.300  10.356  11.861  0.00  0.00    +0.000 A 
ATOM     15  N   UNL     1      45.109  10.631  11.311  0.00  0.00    +0.000 NA
ATOM     16  C   UNL     1      44.227   9.602  11.300  0.00  0.00    +0.000 A 
ATOM     17  N   UNL     1      44.464   8.349  11.725  0.00  0.00    +0.000 NA
BRANCH  16  18
ATOM     18  C   UNL     1      42.946   9.828  10.534  0.00  0.00    +0.000 C 
ATOM     19  N   UNL     1      41.824   9.243  11.074  0.00  0.00    +0.000 N 
ATOM     20  O   UNL     1      42.865  10.521   9.527  0.00  0.00    +0.000 OA
ATOM     21  H   UNL     1      41.888   8.766  11.968  0.00  0.00    +0.000 HD
ATOM     22  H   UNL     1      40.923   9.483  10.688  0.00  0.00    +0.000 HD
ENDBRANCH  16  18
ENDBRANCH   1  12
TORSDOF 4
ENDMDL
MODEL 6
REMARK VINA RESULT:    -5.834      2.920      6.343
REMARK INTER + INTRA:          -7.450
REMARK INTER:                  -7.692
REMARK INTRA:                   0.242
REMARK UNBOUND:                -0.252
REMARK  Name = 
REMARK  4 active torsions:
REMARK  status: ('A' for Active; 'I' for Inactive)
REMARK    1  A    between atoms: C_2  and  C_3
REMARK    2  A    between atoms: C_7  and  C_8
REMARK    3  A    between atoms: C_8  and  C_9
REMARK    4  A    between atoms: C_13  and  C_14
REMARK                            x       y       z     vdW  Elec       q    Type
REMARK                         _______ _______ _______ _____ _____    ______ ____
ROOT
ATOM      1  C   UNL     1      46.612   6.413  12.597  0.00  0.00    +0.000 C 
ATOM      2  C   UNL     1      47.382   6.849  11.366  0.00  0.00    +0.000 C 
ATOM      3  C   UNL     1      46.528   7.844  12.085  0.00  0.00    +0.000 C 
ENDROOT
BRANCH   1   8
ATOM      4  C   UNL     1      47.577   4.841  15.959  0.00  0.00    +0.000 A 
ATOM      5  C   UNL     1      48.692   5.599  16.319  0.00  0.00    +0.000 A 
ATOM      6  C   UNL     1      49.091   6.674  15.526  0.00  0.00    +0.000 A 
ATOM      7  C   UNL     1      48.379   6.994  14.366  0.00  0.00    +0.000 A 
ATOM      8  C   UNL     1      47.261   6.240  13.973  0.00  0.00    +0.000 A 
ATOM      9  C   UNL     1      46.874   5.165  14.794  0.00  0.00    +0.000 A 
BRANCH   4  11
ATOM     10  N   UNL     1      46.839   2.812  17.397  0.00  0.00    +0.000 NA
ATOM     11  C   UNL     1      47.176   3.720  16.757  0.00  0.00    +0.000 C 
ENDBRANCH   4  11
ENDBRANCH   1   8
BRANCH   1  12
ATOM     12  C   UNL     1      45.453   5.433  12.416  0.00  0.00    +0.000 A 
ATOM     13  C   UNL     1      44.272   5.644  13.119  0.00  0.00    +0.000 A 
ATOM     14  C   UNL     1      43.131   5.057  12.626  0.00  0.00    +0.000 A 
ATOM     15  N   UNL     1      43.120   4.275  11.538  0.00  0.00    +0.000 NA
ATOM     16  C   UNL     1      44.332   4.048  10.977  0.00  0.00    +0.000 A 
ATOM     17  N   UNL     1      45.501   4.579  11.373  0.00  0.00    +0.000 NA
BRANCH  16  18
ATOM     18  C   UNL     1      44.331   3.319   9.655  0.00  0.00    +0.000 C 
ATOM     19  N   UNL     1      44.145   4.110   8.545  0.00  0.00    +0.000 N 
ATOM     20  O   UNL     1      44.531   2.116   9.538  0.00  0.00    +0.000 OA
ATOM     21  H   UNL     1      44.093   5.118   8.650  0.00  0.00    +0.000 HD
ATOM     22  H   UNL     1      44.284   3.699   7.634  0.00  0.00    +0.000 HD
ENDBRANCH  16  18
ENDBRANCH   1  12
TORSDOF 4
ENDMDL
MODEL 7
REMARK VINA RESULT:    -5.747      2.926      6.773
REMARK INTER + INTRA:          -7.343
REMARK INTER:                  -7.638
REMARK INTRA:                   0.295
REMARK UNBOUND:                -0.252
REMARK  Name = 
REMARK  4 active torsions:
REMARK  status: ('A' for Active; 'I' for Inactive)
REMARK    1  A    between atoms: C_2  and  C_3
REMARK    2  A    between atoms: C_7  and  C_8
REMARK    3  A    between atoms: C_8  and  C_9
REMARK    4  A    between atoms: C_13  and  C_14
REMARK                            x       y       z     vdW  Elec       q    Type
REMARK                         _______ _______ _______ _____ _____    ______ ____
ROOT
ATOM      1  C   UNL     1      46.416   6.113  12.881  0.00  0.00    +0.000 C 
ATOM      2  C   UNL     1      47.108   6.901  11.785  0.00  0.00    +0.000 C 
ATOM      3  C   UNL     1      46.285   7.628  12.801  0.00  0.00    +0.000 C 
ENDROOT
BRANCH   1   8
ATOM      4  C   UNL     1      48.598   6.044  16.033  0.00  0.00    +0.000 A 
ATOM      5  C   UNL     1      48.212   4.839  16.622  0.00  0.00    +0.000 A 
ATOM      6  C   UNL     1      47.309   4.001  15.969  0.00  0.00    +0.000 A 
ATOM      7  C   UNL     1      46.786   4.366  14.725  0.00  0.00    +0.000 A 
ATOM      8  C   UNL     1      47.147   5.578  14.116  0.00  0.00    +0.000 A 
ATOM      9  C   UNL     1      48.065   6.403  14.791  0.00  0.00    +0.000 A 
BRANCH   4  11
ATOM     10  N   UNL     1      50.243   7.624  17.270  0.00  0.00    +0.000 NA
ATOM     11  C   UNL     1      49.507   6.921  16.710  0.00  0.00    +0.000 C 
ENDBRANCH   4  11
ENDBRANCH   1   8
BRANCH   1  12
ATOM     12  C   UNL     1      45.262   5.191  12.490  0.00  0.00    +0.000 A 
ATOM     13  C   UNL     1      44.005   5.408  13.045  0.00  0.00    +0.000 A 
ATOM     14  C   UNL     1      42.922   4.896  12.372  0.00  0.00    +0.000 A 
ATOM     15  N   UNL     1      43.030   4.178  11.246  0.00  0.00    +0.000 NA
ATOM     16  C   UNL     1      44.298   3.935  10.834  0.00  0.00    +0.000 A 
ATOM     17  N   UNL     1      45.421   4.397  11.412  0.00  0.00    +0.000 NA
BRANCH  16  18
ATOM     18  C   UNL     1      44.450   3.283   9.482  0.00  0.00    +0.000 C 
ATOM     19  N   UNL     1      44.196   4.098   8.403  0.00  0.00    +0.000 N 
ATOM     20  O   UNL     1      44.821   2.128   9.318  0.00  0.00    +0.000 OA
ATOM     21  H   UNL     1      43.999   5.082   8.552  0.00  0.00    +0.000 HD
ATOM     22  H   UNL     1      44.425   3.758   7.480  0.00  0.00    +0.000 HD
ENDBRANCH  16  18
ENDBRANCH   1  12
TORSDOF 4
ENDMDL
MODEL 8
REMARK VINA RESULT:    -5.694      2.468      5.697
REMARK INTER + INTRA:          -7.278
REMARK INTER:                  -7.266
REMARK INTRA:                  -0.011
REMARK UNBOUND:                -0.252
REMARK  Name = 
REMARK  4 active torsions:
REMARK  status: ('A' for Active; 'I' for Inactive)
REMARK    1  A    between atoms: C_2  and  C_3
REMARK    2  A    between atoms: C_7  and  C_8
REMARK    3  A    between atoms: C_8  and  C_9
REMARK    4  A    between atoms: C_13  and  C_14
REMARK                            x       y       z     vdW  Elec       q    Type
REMARK                         _______ _______ _______ _____ _____    ______ ____
ROOT
ATOM      1  C   UNL     1      44.314   5.122  11.432  0.00  0.00    +0.000 C 
ATOM      2  C   UNL     1      43.238   6.013  10.843  0.00  0.00    +0.000 C 
ATOM      3  C   UNL     1      42.945   5.238  12.088  0.00  0.00    +0.000 C 
ENDROOT
BRANCH   1   8
ATOM      4  C   UNL     1      47.083   5.301  14.079  0.00  0.00    +0.000 A 
ATOM      5  C   UNL     1      47.885   6.329  13.584  0.00  0.00    +0.000 A 
ATOM      6  C   UNL     1      47.499   7.028  12.441  0.00  0.00    +0.000 A 
ATOM      7  C   UNL     1      46.309   6.699  11.786  0.00  0.00    +0.000 A 
ATOM      8  C   UNL     1      45.488   5.661  12.255  0.00  0.00    +0.000 A 
ATOM      9  C   UNL     1      45.896   4.975  13.414  0.00  0.00    +0.000 A 
BRANCH   4  11
ATOM     10  N   UNL     1      47.825   3.961  16.173  0.00  0.00    +0.000 NA
ATOM     11  C   UNL     1      47.486   4.563  15.240  0.00  0.00    +0.000 C 
ENDBRANCH   4  11
ENDBRANCH   1   8
BRANCH   1  12
ATOM     12  C   UNL     1      44.723   3.871  10.655  0.00  0.00    +0.000 A 
ATOM     13  C   UNL     1      43.969   2.711  10.796  0.00  0.00    +0.000 A 
ATOM     14  C   UNL     1      44.058   1.776   9.792  0.00  0.00    +0.000 A 
ATOM     15  N   UNL     1      44.857   1.918   8.726  0.00  0.00    +0.000 NA
ATOM     16  C   UNL     1      45.626   3.033   8.724  0.00  0.00    +0.000 A 
ATOM     17  N   UNL     1      45.607   4.011   9.647  0.00  0.00    +0.000 NA
BRANCH  16  18
ATOM     18  C   UNL     1      46.403   3.309   7.460  0.00  0.00    +0.000 C 
ATOM     19  N   UNL     1      47.017   2.214   6.895  0.00  0.00    +0.000 N 
ATOM     20  O   UNL     1      46.460   4.406   6.918  0.00  0.00    +0.000 OA
ATOM     21  H   UNL     1      46.867   1.294   7.294  0.00  0.00    +0.000 HD
ATOM     22  H   UNL     1      47.422   2.312   5.976  0.00  0.00    +0.000 HD
ENDBRANCH  16  18
ENDBRANCH   1  12
TORSDOF 4
ENDMDL
MODEL 9
REMARK VINA RESULT:    -5.493      3.012      6.575
REMARK INTER + INTRA:          -7.029
REMARK INTER:                  -6.988
REMARK INTRA:                  -0.042
REMARK UNBOUND:                -0.252
REMARK  Name = 
REMARK  4 active torsions:
REMARK  status: ('A' for Active; 'I' for Inactive)
REMARK    1  A    between atoms: C_2  and  C_3
REMARK    2  A    between atoms: C_7  and  C_8
REMARK    3  A    between atoms: C_8  and  C_9
REMARK    4  A    between atoms: C_13  and  C_14
REMARK                            x       y       z     vdW  Elec       q    Type
REMARK                         _______ _______ _______ _____ _____    ______ ____
ROOT
ATOM      1  C   UNL     1      46.419   7.330  12.230  0.00  0.00    +0.000 C 
ATOM      2  C   UNL     1      45.313   8.009  11.444  0.00  0.00    +0.000 C 
ATOM      3  C   UNL     1      45.354   8.162  12.932  0.00  0.00    +0.000 C 
ENDROOT
BRANCH   1   8
ATOM      4  C   UNL     1      49.623   8.849  13.691  0.00  0.00    +0.000 A 
ATOM      5  C   UNL     1      50.561   8.539  12.705  0.00  0.00    +0.000 A 
ATOM      6  C   UNL     1      50.155   7.914  11.527  0.00  0.00    +0.000 A 
ATOM      7  C   UNL     1      48.809   7.592  11.330  0.00  0.00    +0.000 A 
ATOM      8  C   UNL     1      47.846   7.881  12.310  0.00  0.00    +0.000 A 
ATOM      9  C   UNL     1      48.279   8.518  13.488  0.00  0.00    +0.000 A 
BRANCH   4  11
ATOM     10  N   UNL     1      50.359   9.976  15.909  0.00  0.00    +0.000 NA
ATOM     11  C   UNL     1      50.037   9.470  14.915  0.00  0.00    +0.000 C 
ENDBRANCH   4  11
ENDBRANCH   1   8
BRANCH   1  12
ATOM     12  C   UNL     1      46.419   5.805  12.308  0.00  0.00    +0.000 A 
ATOM     13  C   UNL     1      47.024   5.183  13.396  0.00  0.00    +0.000 A 
ATOM     14  C   UNL     1      46.634   3.896  13.683  0.00  0.00    +0.000 A 
ATOM     15  N   UNL     1      45.743   3.218  12.949  0.00  0.00    +0.000 NA
ATOM     16  C   UNL     1      45.282   3.869  11.853  0.00  0.00    +0.000 A 
ATOM     17  N   UNL     1      45.589   5.126  11.490  0.00  0.00    +0.000 NA
BRANCH  16  18
ATOM     18  C   UNL     1      44.151   3.205  11.107  0.00  0.00    +0.000 C 
ATOM     19  N   UNL     1      44.533   2.302  10.140  0.00  0.00    +0.000 N 
ATOM     20  O   UNL     1      42.966   3.392  11.352  0.00  0.00    +0.000 OA
ATOM     21  H   UNL     1      45.514   2.075  10.026  0.00  0.00    +0.000 HD
ATOM     22  H   UNL     1      43.822   1.723   9.717  0.00  0.00    +0.000 HD
ENDBRANCH  16  18
ENDBRANCH   1  12
TORSDOF 4
ENDMDL
