MODEL 1
REMARK VINA RESULT:    -7.354      0.000      0.000
REMARK INTER + INTRA:         -11.226
REMARK INTER:                 -10.364
REMARK INTRA:                  -0.863
REMARK UNBOUND:                -0.863
REMARK  Name = 
REMARK  7 active torsions:
REMARK  status: ('A' for Active; 'I' for Inactive)
REMARK    1  A    between atoms: C_2  and  C_3
REMARK    2  A    between atoms: C_6  and  C_7
REMARK    3  A    between atoms: N_9  and  C_10
REMARK    4  A    between atoms: C_10  and  C_11
REMARK    5  A    between atoms: C_14  and  C_15
REMARK    6  A    between atoms: C_15  and  N_16
REMARK    7  A    between atoms: C_17  and  C_19
REMARK                            x       y       z     vdW  Elec       q    Type
REMARK                         _______ _______ _______ _____ _____    ______ ____
ROOT
ATOM      1  C   UNL     1      44.090   6.328  11.954  0.00  0.00    +0.000 C 
ATOM      2  C   UNL     1      44.507   7.680  11.355  0.00  0.00    +0.000 C 
ATOM      3  C   UNL     1      45.463   8.449  12.268  0.00  0.00    +0.000 C 
ATOM      4  C   UNL     1      46.714   7.625  12.609  0.00  0.00    +0.000 C 
ATOM      5  C   UNL     1      46.301   6.279  13.224  0.00  0.00    +0.000 C 
ATOM      6  C   UNL     1      45.337   5.505  12.323  0.00  0.00    +0.000 C 
ENDROOT
BRANCH   1   7
ATOM      7  C   UNL     1      43.195   5.530  10.984  0.00  0.00    +0.000 C 
BRANCH   7  10
ATOM      8  C   UNL     1      43.930   3.328  10.104  0.00  0.00    +0.000 C 
ATOM      9  O   UNL     1      43.317   2.693  10.955  0.00  0.00    +0.000 OA
ATOM     10  N   UNL     1      43.956   4.705  10.059  0.00  0.00    +0.000 N 
ATOM     11  H   UNL     1      44.419   5.165   9.287  0.00  0.00    +0.000 HD
BRANCH   8  15
ATOM     12  C   UNL     1      46.794   2.392   7.811  0.00  0.00    +0.000 C 
ATOM     13  C   UNL     1      45.896   3.229   6.897  0.00  0.00    +0.000 C 
ATOM     14  C   UNL     1      44.556   3.396   7.626  0.00  0.00    +0.000 C 
ATOM     15  C   UNL     1      44.692   2.663   8.964  0.00  0.00    +0.000 C 
ATOM     16  C   UNL     1      46.205   2.616   9.200  0.00  0.00    +0.000 C 
BRANCH  12  18
ATOM     17  N   UNL     1      46.751  -0.156   7.138  0.00  0.00    +0.000 NA
ATOM     18  C   UNL     1      46.765   0.968   7.434  0.00  0.00    +0.000 C 
ENDBRANCH  12  18
ENDBRANCH   8  15
ENDBRANCH   7  10
ENDBRANCH   1   7
BRANCH   4  19
ATOM     19  C   UNL     1      47.652   8.378  13.569  0.00  0.00    +0.000 C 
BRANCH  19  20
ATOM     20  N   UNL     1      47.869   7.676  14.818  0.00  0.00    +0.000 N 
ATOM     21  C   UNL     1      49.100   7.214  15.210  0.00  0.00    +0.000 C 
ATOM     22  O   UNL     1      50.108   7.387  14.529  0.00  0.00    +0.000 OA
ATOM     23  H   UNL     1      47.046   7.422  15.356  0.00  0.00    +0.000 HD
BRANCH  21  24
ATOM     24  C   UNL     1      49.169   6.545  16.516  0.00  0.00    +0.000 A 
ATOM     25  C   UNL     1      49.821   7.173  17.570  0.00  0.00    +0.000 A 
ATOM     26  S   UNL     1      49.820   6.268  19.015  0.00  0.00    +0.000 S 
ATOM     27  C   UNL     1      48.975   4.989  18.276  0.00  0.00    +0.000 A 
ATOM     28  N   UNL     1      48.674   3.859  18.972  0.00  0.00    +0.000 NA
ATOM     29  C   UNL     1      48.056   2.958  18.284  0.00  0.00    +0.000 A 
ATOM     30  N   UNL     1      47.701   3.089  16.968  0.00  0.00    +0.000 N 
ATOM     31  C   UNL     1      47.941   4.231  16.238  0.00  0.00    +0.000 A 
ATOM     32  O   UNL     1      47.527   4.351  15.089  0.00  0.00    +0.000 OA
ATOM     33  C   UNL     1      48.669   5.262  16.954  0.00  0.00    +0.000 A 
ATOM     34  H   UNL     1      47.192   2.355  16.495  0.00  0.00    +0.000 HD
ENDBRANCH  21  24
ENDBRANCH  19  20
ENDBRANCH   4  19
TORSDOF 7
ENDMDL
MODEL 2
REMARK VINA RESULT:    -6.781      5.184     10.323
REMARK INTER + INTRA:         -10.419
REMARK INTER:                  -9.618
REMARK INTRA:                  -0.800
REMARK UNBOUND:                -0.863
REMARK  Name = 
REMARK  7 active torsions:
REMARK  status: ('A' for Active; 'I' for Inactive)
REMARK    1  A    between atoms: C_2  and  C_3
REMARK    2  A    between atoms: C_6  and  C_7
REMARK    3  A    between atoms: N_9  and  C_10
REMARK    4  A    between atoms: C_10  and  C_11
REMARK    5  A    between atoms: C_14  and  C_15
REMARK    6  A    between atoms: C_15  and  N_16
REMARK    7  A    between atoms: C_17  and  C_19
REMARK                            x       y       z     vdW  Elec       q    Type
REMARK                         _______ _______ _______ _____ _____    ______ ____
ROOT
ATOM      1  C   UNL     1      51.403   2.833  18.125  0.00  0.00    +0.000 C 
ATOM      2  C   UNL     1      50.807   1.959  17.010  0.00  0.00    +0.000 C 
ATOM      3  C   UNL     1      49.282   2.060  16.949  0.00  0.00    +0.000 C 
ATOM      4  C   UNL     1      48.811   3.512  16.778  0.00  0.00    +0.000 C 
ATOM      5  C   UNL     1      49.392   4.385  17.901  0.00  0.00    +0.000 C 
ATOM      6  C   UNL     1      50.916   4.286  17.978  0.00  0.00    +0.000 C 
ENDROOT
BRANCH   1   7
ATOM      7  C   UNL     1      52.945   2.786  18.118  0.00  0.00    +0.000 C 
BRANCH   7  10
ATOM      8  C   UNL     1      54.469   0.855  17.788  0.00  0.00    +0.000 C 
ATOM      9  O   UNL     1      54.943   1.303  16.749  0.00  0.00    +0.000 OA
ATOM     10  N   UNL     1      53.474   1.487  18.502  0.00  0.00    +0.000 N 
ATOM     11  H   UNL     1      53.181   1.101  19.389  0.00  0.00    +0.000 HD
BRANCH   8  15
ATOM     12  C   UNL     1      54.471  -2.305  19.874  0.00  0.00    +0.000 C 
ATOM     13  C   UNL     1      55.417  -1.391  20.655  0.00  0.00    +0.000 C 
ATOM     14  C   UNL     1      55.739  -0.202  19.739  0.00  0.00    +0.000 C 
ATOM     15  C   UNL     1      54.966  -0.432  18.438  0.00  0.00    +0.000 C 
ATOM     16  C   UNL     1      53.831  -1.373  18.850  0.00  0.00    +0.000 C 
BRANCH  12  18
ATOM     17  N   UNL     1      55.775  -4.277  18.709  0.00  0.00    +0.000 NA
ATOM     18  C   UNL     1      55.204  -3.405  19.222  0.00  0.00    +0.000 C 
ENDBRANCH  12  18
ENDBRANCH   8  15
ENDBRANCH   7  10
ENDBRANCH   1   7
BRANCH   4  19
ATOM     19  C   UNL     1      47.275   3.619  16.768  0.00  0.00    +0.000 C 
BRANCH  19  20
ATOM     20  N   UNL     1      46.776   4.528  15.756  0.00  0.00    +0.000 N 
ATOM     21  C   UNL     1      46.766   4.221  14.418  0.00  0.00    +0.000 C 
ATOM     22  O   UNL     1      47.164   3.138  13.994  0.00  0.00    +0.000 OA
ATOM     23  H   UNL     1      46.538   5.469  16.054  0.00  0.00    +0.000 HD
BRANCH  21  24
ATOM     24  C   UNL     1      46.203   5.233  13.514  0.00  0.00    +0.000 A 
ATOM     25  C   UNL     1      46.931   6.385  13.242  0.00  0.00    +0.000 A 
ATOM     26  S   UNL     1      46.142   7.461  12.182  0.00  0.00    +0.000 S 
ATOM     27  C   UNL     1      44.784   6.442  12.072  0.00  0.00    +0.000 A 
ATOM     28  N   UNL     1      43.703   6.801  11.327  0.00  0.00    +0.000 NA
ATOM     29  C   UNL     1      42.732   5.950  11.353  0.00  0.00    +0.000 A 
ATOM     30  N   UNL     1      42.748   4.769  12.045  0.00  0.00    +0.000 N 
ATOM     31  C   UNL     1      43.837   4.343  12.773  0.00  0.00    +0.000 A 
ATOM     32  O   UNL     1      43.854   3.237  13.304  0.00  0.00    +0.000 OA
ATOM     33  C   UNL     1      44.943   5.281  12.808  0.00  0.00    +0.000 A 
ATOM     34  H   UNL     1      41.965   4.133  12.000  0.00  0.00    +0.000 HD
ENDBRANCH  21  24
ENDBRANCH  19  20
ENDBRANCH   4  19
TORSDOF 7
ENDMDL
MODEL 3
REMARK VINA RESULT:    -6.746      5.336      8.211
REMARK INTER + INTRA:         -10.369
REMARK INTER:                  -9.312
REMARK INTRA:                  -1.057
REMARK UNBOUND:                -0.863
REMARK  Name = 
REMARK  7 active torsions:
REMARK  status: ('A' for Active; 'I' for Inactive)
REMARK    1  A    between atoms: C_2  and  C_3
REMARK    2  A    between atoms: C_6  and  C_7
REMARK    3  A    between atoms: N_9  and  C_10
REMARK    4  A    between atoms: C_10  and  C_11
REMARK    5  A    between atoms: C_14  and  C_15
REMARK    6  A    between atoms: C_15  and  N_16
REMARK    7  A    between atoms: C_17  and  C_19
REMARK                            x       y       z     vdW  Elec       q    Type
REMARK                         _______ _______ _______ _____ _____    ______ ____
ROOT
ATOM      1  C   UNL     1      50.781   9.502  11.491  0.00  0.00    +0.000 C 
ATOM      2  C   UNL     1      50.536   7.989  11.379  0.00  0.00    +0.000 C 
ATOM      3  C   UNL     1      49.374   7.524  12.258  0.00  0.00    +0.000 C 
ATOM      4  C   UNL     1      48.077   8.285  11.944  0.00  0.00    +0.000 C 
ATOM      5  C   UNL     1      48.316   9.798  12.071  0.00  0.00    +0.000 C 
ATOM      6  C   UNL     1      49.481  10.274  11.203  0.00  0.00    +0.000 C 
ENDROOT
BRANCH   1   7
ATOM      7  C   UNL     1      51.898   9.967  10.535  0.00  0.00    +0.000 C 
BRANCH   7  10
ATOM      8  C   UNL     1      53.730   8.786   9.346  0.00  0.00    +0.000 C 
ATOM      9  O   UNL     1      54.582   9.604   9.678  0.00  0.00    +0.000 OA
ATOM     10  N   UNL     1      52.399   8.898   9.686  0.00  0.00    +0.000 N 
ATOM     11  H   UNL     1      51.764   8.150   9.443  0.00  0.00    +0.000 HD
BRANCH   8  15
ATOM     12  C   UNL     1      53.451   5.251   8.018  0.00  0.00    +0.000 C 
ATOM     13  C   UNL     1      54.690   5.174   8.913  0.00  0.00    +0.000 C 
ATOM     14  C   UNL     1      55.082   6.618   9.251  0.00  0.00    +0.000 C 
ATOM     15  C   UNL     1      54.058   7.522   8.559  0.00  0.00    +0.000 C 
ATOM     16  C   UNL     1      52.845   6.610   8.357  0.00  0.00    +0.000 C 
BRANCH  12  18
ATOM     17  N   UNL     1      54.102   5.097   5.468  0.00  0.00    +0.000 NA
ATOM     18  C   UNL     1      53.813   5.161   6.592  0.00  0.00    +0.000 C 
ENDBRANCH  12  18
ENDBRANCH   8  15
ENDBRANCH   7  10
ENDBRANCH   1   7
BRANCH   4  19
ATOM     19  C   UNL     1      46.921   7.854  12.864  0.00  0.00    +0.000 C 
BRANCH  19  20
ATOM     20  N   UNL     1      46.331   6.588  12.478  0.00  0.00    +0.000 N 
ATOM     21  C   UNL     1      45.124   6.495  11.831  0.00  0.00    +0.000 C 
ATOM     22  O   UNL     1      44.473   7.490  11.519  0.00  0.00    +0.000 OA
ATOM     23  H   UNL     1      46.785   5.743  12.811  0.00  0.00    +0.000 HD
BRANCH  21  24
ATOM     24  C   UNL     1      44.666   5.144  11.479  0.00  0.00    +0.000 A 
ATOM     25  C   UNL     1      43.889   4.430  12.383  0.00  0.00    +0.000 A 
ATOM     26  S   UNL     1      43.444   2.880  11.831  0.00  0.00    +0.000 S 
ATOM     27  C   UNL     1      44.301   3.093  10.377  0.00  0.00    +0.000 A 
ATOM     28  N   UNL     1      44.354   2.100   9.448  0.00  0.00    +0.000 NA
ATOM     29  C   UNL     1      45.060   2.383   8.405  0.00  0.00    +0.000 A 
ATOM     30  N   UNL     1      45.707   3.572   8.200  0.00  0.00    +0.000 N 
ATOM     31  C   UNL     1      45.643   4.622   9.088  0.00  0.00    +0.000 A 
ATOM     32  O   UNL     1      46.156   5.706   8.831  0.00  0.00    +0.000 OA
ATOM     33  C   UNL     1      44.892   4.342  10.298  0.00  0.00    +0.000 A 
ATOM     34  H   UNL     1      46.221   3.741   7.347  0.00  0.00    +0.000 HD
ENDBRANCH  21  24
ENDBRANCH  19  20
ENDBRANCH   4  19
TORSDOF 7
ENDMDL
MODEL 4
REMARK VINA RESULT:    -6.721      3.181      8.759
REMARK INTER + INTRA:         -10.334
REMARK INTER:                  -9.211
REMARK INTRA:                  -1.123
REMARK UNBOUND:                -0.863
REMARK  Name = 
REMARK  7 active torsions:
REMARK  status: ('A' for Active; 'I' for Inactive)
REMARK    1  A    between atoms: C_2  and  C_3
REMARK    2  A    between atoms: C_6  and  C_7
REMARK    3  A    between atoms: N_9  and  C_10
REMARK    4  A    between atoms: C_10  and  C_11
REMARK    5  A    between atoms: C_14  and  C_15
REMARK    6  A    between atoms: C_15  and  N_16
REMARK    7  A    between atoms: C_17  and  C_19
REMARK                            x       y       z     vdW  Elec       q    Type
REMARK                         _______ _______ _______ _____ _____    ______ ____
ROOT
ATOM      1  C   UNL     1      48.506   7.856  16.277  0.00  0.00    +0.000 C 
ATOM      2  C   UNL     1      48.952   6.646  15.441  0.00  0.00    +0.000 C 
ATOM      3  C   UNL     1      48.249   6.589  14.084  0.00  0.00    +0.000 C 
ATOM      4  C   UNL     1      48.454   7.880  13.278  0.00  0.00    +0.000 C 
ATOM      5  C   UNL     1      47.994   9.091  14.105  0.00  0.00    +0.000 C 
ATOM      6  C   UNL     1      48.684   9.154  15.468  0.00  0.00    +0.000 C 
ENDROOT
BRANCH   1   7
ATOM      7  C   UNL     1      49.286   7.946  17.604  0.00  0.00    +0.000 C 
BRANCH   7  10
ATOM      8  C   UNL     1      49.562   5.668  18.551  0.00  0.00    +0.000 C 
ATOM      9  O   UNL     1      48.428   5.637  19.018  0.00  0.00    +0.000 OA
ATOM     10  N   UNL     1      50.076   6.756  17.879  0.00  0.00    +0.000 N 
ATOM     11  H   UNL     1      50.991   6.687  17.455  0.00  0.00    +0.000 HD
BRANCH   8  15
ATOM     12  C   UNL     1      52.341   3.282  17.587  0.00  0.00    +0.000 C 
ATOM     13  C   UNL     1      51.086   2.430  17.385  0.00  0.00    +0.000 C 
ATOM     14  C   UNL     1      49.926   3.188  18.045  0.00  0.00    +0.000 C 
ATOM     15  C   UNL     1      50.516   4.481  18.615  0.00  0.00    +0.000 C 
ATOM     16  C   UNL     1      51.792   4.691  17.793  0.00  0.00    +0.000 C 
BRANCH  12  18
ATOM     17  N   UNL     1      53.733   2.477  19.675  0.00  0.00    +0.000 NA
ATOM     18  C   UNL     1      53.116   2.828  18.755  0.00  0.00    +0.000 C 
ENDBRANCH  12  18
ENDBRANCH   8  15
ENDBRANCH   7  10
ENDBRANCH   1   7
BRANCH   4  19
ATOM     19  C   UNL     1      47.704   7.843  11.934  0.00  0.00    +0.000 C 
BRANCH  19  20
ATOM     20  N   UNL     1      46.924   6.636  11.753  0.00  0.00    +0.000 N 
ATOM     21  C   UNL     1      45.553   6.619  11.807  0.00  0.00    +0.000 C 
ATOM     22  O   UNL     1      44.895   7.640  11.995  0.00  0.00    +0.000 OA
ATOM     23  H   UNL     1      47.433   5.759  11.701  0.00  0.00    +0.000 HD
BRANCH  21  24
ATOM     24  C   UNL     1      44.900   5.324  11.576  0.00  0.00    +0.000 A 
ATOM     25  C   UNL     1      44.129   4.759  12.585  0.00  0.00    +0.000 A 
ATOM     26  S   UNL     1      43.445   3.255  12.166  0.00  0.00    +0.000 S 
ATOM     27  C   UNL     1      44.179   3.288  10.631  0.00  0.00    +0.000 A 
ATOM     28  N   UNL     1      44.018   2.255   9.760  0.00  0.00    +0.000 NA
ATOM     29  C   UNL     1      44.652   2.396   8.644  0.00  0.00    +0.000 A 
ATOM     30  N   UNL     1      45.419   3.481   8.314  0.00  0.00    +0.000 N 
ATOM     31  C   UNL     1      45.571   4.570   9.142  0.00  0.00    +0.000 A 
ATOM     32  O   UNL     1      46.189   5.566   8.778  0.00  0.00    +0.000 OA
ATOM     33  C   UNL     1      44.910   4.445  10.428  0.00  0.00    +0.000 A 
ATOM     34  H   UNL     1      45.866   3.542   7.410  0.00  0.00    +0.000 HD
ENDBRANCH  21  24
ENDBRANCH  19  20
ENDBRANCH   4  19
TORSDOF 7
ENDMDL
MODEL 5
REMARK VINA RESULT:    -6.602      4.297      8.700
REMARK INTER + INTRA:         -10.167
REMARK INTER:                  -9.297
REMARK INTRA:                  -0.870
REMARK UNBOUND:                -0.863
REMARK  Name = 
REMARK  7 active torsions:
REMARK  status: ('A' for Active; 'I' for Inactive)
REMARK    1  A    between atoms: C_2  and  C_3
REMARK    2  A    between atoms: C_6  and  C_7
REMARK    3  A    between atoms: N_9  and  C_10
REMARK    4  A    between atoms: C_10  and  C_11
REMARK    5  A    between atoms: C_14  and  C_15
REMARK    6  A    between atoms: C_15  and  N_16
REMARK    7  A    between atoms: C_17  and  C_19
REMARK                            x       y       z     vdW  Elec       q    Type
REMARK                         _______ _______ _______ _____ _____    ______ ____
ROOT
ATOM      1  C   UNL     1      50.398   4.597  17.355  0.00  0.00    +0.000 C 
ATOM      2  C   UNL     1      51.247   5.878  17.361  0.00  0.00    +0.000 C 
ATOM      3  C   UNL     1      50.857   6.836  16.234  0.00  0.00    +0.000 C 
ATOM      4  C   UNL     1      49.366   7.201  16.283  0.00  0.00    +0.000 C 
ATOM      5  C   UNL     1      48.514   5.922  16.261  0.00  0.00    +0.000 C 
ATOM      6  C   UNL     1      48.900   4.952  17.378  0.00  0.00    +0.000 C 
ENDROOT
BRANCH   1   7
ATOM      7  C   UNL     1      50.745   3.682  18.548  0.00  0.00    +0.000 C 
BRANCH   7  10
ATOM      8  C   UNL     1      51.725   1.658  17.495  0.00  0.00    +0.000 C 
ATOM      9  O   UNL     1      50.654   1.285  17.028  0.00  0.00    +0.000 OA
ATOM     10  N   UNL     1      51.859   2.789  18.271  0.00  0.00    +0.000 N 
ATOM     11  H   UNL     1      52.782   3.081  18.562  0.00  0.00    +0.000 HD
BRANCH   8  15
ATOM     12  C   UNL     1      54.825  -0.430  18.098  0.00  0.00    +0.000 C 
ATOM     13  C   UNL     1      55.401   0.974  17.910  0.00  0.00    +0.000 C 
ATOM     14  C   UNL     1      54.270   1.845  17.347  0.00  0.00    +0.000 C 
ATOM     15  C   UNL     1      53.042   0.940  17.225  0.00  0.00    +0.000 C 
ATOM     16  C   UNL     1      53.323  -0.192  18.218  0.00  0.00    +0.000 C 
BRANCH  12  18
ATOM     17  N   UNL     1      55.388  -1.989  16.048  0.00  0.00    +0.000 NA
ATOM     18  C   UNL     1      55.144  -1.299  16.951  0.00  0.00    +0.000 C 
ENDBRANCH  12  18
ENDBRANCH   8  15
ENDBRANCH   7  10
ENDBRANCH   1   7
BRANCH   4  19
ATOM     19  C   UNL     1      48.963   8.123  15.119  0.00  0.00    +0.000 C 
BRANCH  19  20
ATOM     20  N   UNL     1      47.798   7.652  14.398  0.00  0.00    +0.000 N 
ATOM     21  C   UNL     1      47.884   6.865  13.276  0.00  0.00    +0.000 C 
ATOM     22  O   UNL     1      48.963   6.492  12.822  0.00  0.00    +0.000 OA
ATOM     23  H   UNL     1      46.896   8.024  14.679  0.00  0.00    +0.000 HD
BRANCH  21  24
ATOM     24  C   UNL     1      46.614   6.442  12.669  0.00  0.00    +0.000 A 
ATOM     25  C   UNL     1      45.807   7.386  12.048  0.00  0.00    +0.000 A 
ATOM     26  S   UNL     1      44.369   6.741  11.400  0.00  0.00    +0.000 S 
ATOM     27  C   UNL     1      44.757   5.179  11.953  0.00  0.00    +0.000 A 
ATOM     28  N   UNL     1      43.906   4.137  11.749  0.00  0.00    +0.000 NA
ATOM     29  C   UNL     1      44.311   3.015  12.244  0.00  0.00    +0.000 A 
ATOM     30  N   UNL     1      45.493   2.838  12.912  0.00  0.00    +0.000 N 
ATOM     31  C   UNL     1      46.406   3.851  13.099  0.00  0.00    +0.000 A 
ATOM     32  O   UNL     1      47.497   3.637  13.619  0.00  0.00    +0.000 OA
ATOM     33  C   UNL     1      45.983   5.144  12.596  0.00  0.00    +0.000 A 
ATOM     34  H   UNL     1      45.763   1.925  13.250  0.00  0.00    +0.000 HD
ENDBRANCH  21  24
ENDBRANCH  19  20
ENDBRANCH   4  19
TORSDOF 7
ENDMDL
MODEL 6
REMARK VINA RESULT:    -6.495      2.757      4.386
REMARK INTER + INTRA:         -10.016
REMARK INTER:                  -8.936
REMARK INTRA:                  -1.080
REMARK UNBOUND:                -0.863
REMARK  Name = 
REMARK  7 active torsions:
REMARK  status: ('A' for Active; 'I' for Inactive)
REMARK    1  A    between atoms: C_2  and  C_3
REMARK    2  A    between atoms: C_6  and  C_7
REMARK    3  A    between atoms: N_9  and  C_10
REMARK    4  A    between atoms: C_10  and  C_11
REMARK    5  A    between atoms: C_14  and  C_15
REMARK    6  A    between atoms: C_15  and  N_16
REMARK    7  A    between atoms: C_17  and  C_19
REMARK                            x       y       z     vdW  Elec       q    Type
REMARK                         _______ _______ _______ _____ _____    ______ ____
ROOT
ATOM      1  C   UNL     1      48.602   8.283  13.284  0.00  0.00    +0.000 C 
ATOM      2  C   UNL     1      48.852   6.899  13.904  0.00  0.00    +0.000 C 
ATOM      3  C   UNL     1      49.575   6.990  15.249  0.00  0.00    +0.000 C 
ATOM      4  C   UNL     1      48.816   7.876  16.248  0.00  0.00    +0.000 C 
ATOM      5  C   UNL     1      48.578   9.266  15.636  0.00  0.00    +0.000 C 
ATOM      6  C   UNL     1      47.864   9.188  14.286  0.00  0.00    +0.000 C 
ENDROOT
BRANCH   1   7
ATOM      7  C   UNL     1      47.799   8.178  11.971  0.00  0.00    +0.000 C 
BRANCH   7  10
ATOM      8  C   UNL     1      45.933   6.545  12.100  0.00  0.00    +0.000 C 
ATOM      9  O   UNL     1      45.177   7.331  12.661  0.00  0.00    +0.000 OA
ATOM     10  N   UNL     1      47.231   6.857  11.758  0.00  0.00    +0.000 N 
ATOM     11  H   UNL     1      47.776   6.188  11.230  0.00  0.00    +0.000 HD
BRANCH   8  15
ATOM     12  C   UNL     1      43.739   3.731  10.834  0.00  0.00    +0.000 C 
ATOM     13  C   UNL     1      43.942   3.359  12.304  0.00  0.00    +0.000 C 
ATOM     14  C   UNL     1      45.070   4.254  12.835  0.00  0.00    +0.000 C 
ATOM     15  C   UNL     1      45.504   5.147  11.670  0.00  0.00    +0.000 C 
ATOM     16  C   UNL     1      44.285   5.152  10.742  0.00  0.00    +0.000 C 
BRANCH  12  18
ATOM     17  N   UNL     1      45.052   2.091   9.241  0.00  0.00    +0.000 NA
ATOM     18  C   UNL     1      44.469   2.812   9.942  0.00  0.00    +0.000 C 
ENDBRANCH  12  18
ENDBRANCH   8  15
ENDBRANCH   7  10
ENDBRANCH   1   7
BRANCH   4  19
ATOM     19  C   UNL     1      49.568   8.009  17.584  0.00  0.00    +0.000 C 
BRANCH  19  20
ATOM     20  N   UNL     1      50.493   6.921  17.825  0.00  0.00    +0.000 N 
ATOM     21  C   UNL     1      50.196   5.856  18.637  0.00  0.00    +0.000 C 
ATOM     22  O   UNL     1      49.108   5.748  19.199  0.00  0.00    +0.000 OA
ATOM     23  H   UNL     1      51.437   7.025  17.464  0.00  0.00    +0.000 HD
BRANCH  21  24
ATOM     24  C   UNL     1      51.224   4.814  18.763  0.00  0.00    +0.000 A 
ATOM     25  C   UNL     1      52.360   5.066  19.523  0.00  0.00    +0.000 A 
ATOM     26  S   UNL     1      53.459   3.764  19.566  0.00  0.00    +0.000 S 
ATOM     27  C   UNL     1      52.473   2.827  18.544  0.00  0.00    +0.000 A 
ATOM     28  N   UNL     1      52.860   1.582  18.153  0.00  0.00    +0.000 NA
ATOM     29  C   UNL     1      52.032   0.993  17.356  0.00  0.00    +0.000 A 
ATOM     30  N   UNL     1      50.848   1.529  16.926  0.00  0.00    +0.000 N 
ATOM     31  C   UNL     1      50.393   2.763  17.334  0.00  0.00    +0.000 A 
ATOM     32  O   UNL     1      49.284   3.174  17.004  0.00  0.00    +0.000 OA
ATOM     33  C   UNL     1      51.305   3.485  18.200  0.00  0.00    +0.000 A 
ATOM     34  H   UNL     1      50.231   1.002  16.325  0.00  0.00    +0.000 HD
ENDBRANCH  21  24
ENDBRANCH  19  20
ENDBRANCH   4  19
TORSDOF 7
ENDMDL
MODEL 7
REMARK VINA RESULT:    -6.239      5.685      7.665
REMARK INTER + INTRA:          -9.654
REMARK INTER:                  -8.690
REMARK INTRA:                  -0.964
REMARK UNBOUND:                -0.863
REMARK  Name = 
REMARK  7 active torsions:
REMARK  status: ('A' for Active; 'I' for Inactive)
REMARK    1  A    between atoms: C_2  and  C_3
REMARK    2  A    between atoms: C_6  and  C_7
REMARK    3  A    between atoms: N_9  and  C_10
REMARK    4  A    between atoms: C_10  and  C_11
REMARK    5  A    between atoms: C_14  and  C_15
REMARK    6  A    between atoms: C_15  and  N_16
REMARK    7  A    between atoms: C_17  and  C_19
REMARK                            x       y       z     vdW  Elec       q    Type
REMARK                         _______ _______ _______ _____ _____    ______ ____
ROOT
ATOM      1  C   UNL     1      47.873   8.473  12.368  0.00  0.00    +0.000 C 
ATOM      2  C   UNL     1      48.902   7.415  11.940  0.00  0.00    +0.000 C 
ATOM      3  C   UNL     1      50.140   8.039  11.293  0.00  0.00    +0.000 C 
ATOM      4  C   UNL     1      50.808   9.071  12.214  0.00  0.00    +0.000 C 
ATOM      5  C   UNL     1      49.785  10.139  12.630  0.00  0.00    +0.000 C 
ATOM      6  C   UNL     1      48.539   9.527  13.270  0.00  0.00    +0.000 C 
ENDROOT
BRANCH   1   7
ATOM      7  C   UNL     1      46.672   7.834  13.094  0.00  0.00    +0.000 C 
BRANCH   7  10
ATOM      8  C   UNL     1      46.081   5.428  12.938  0.00  0.00    +0.000 C 
ATOM      9  O   UNL     1      46.550   5.159  14.039  0.00  0.00    +0.000 OA
ATOM     10  N   UNL     1      46.124   6.689  12.384  0.00  0.00    +0.000 N 
ATOM     11  H   UNL     1      45.652   6.859  11.506  0.00  0.00    +0.000 HD
BRANCH   8  15
ATOM     12  C   UNL     1      43.809   4.006  10.263  0.00  0.00    +0.000 C 
ATOM     13  C   UNL     1      43.071   3.643  11.554  0.00  0.00    +0.000 C 
ATOM     14  C   UNL     1      44.052   3.889  12.708  0.00  0.00    +0.000 C 
ATOM     15  C   UNL     1      45.348   4.405  12.077  0.00  0.00    +0.000 C 
ATOM     16  C   UNL     1      44.896   4.970  10.728  0.00  0.00    +0.000 C 
BRANCH  12  18
ATOM     17  N   UNL     1      44.834   1.864   9.118  0.00  0.00    +0.000 NA
ATOM     18  C   UNL     1      44.384   2.811   9.620  0.00  0.00    +0.000 C 
ENDBRANCH  12  18
ENDBRANCH   8  15
ENDBRANCH   7  10
ENDBRANCH   1   7
BRANCH   4  19
ATOM     19  C   UNL     1      52.023   9.736  11.543  0.00  0.00    +0.000 C 
BRANCH  19  20
ATOM     20  N   UNL     1      52.291   9.221  10.216  0.00  0.00    +0.000 N 
ATOM     21  C   UNL     1      53.499   8.678   9.856  0.00  0.00    +0.000 C 
ATOM     22  O   UNL     1      54.430   8.574  10.651  0.00  0.00    +0.000 OA
ATOM     23  H   UNL     1      51.585   9.384   9.503  0.00  0.00    +0.000 HD
BRANCH  21  24
ATOM     24  C   UNL     1      53.612   8.172   8.481  0.00  0.00    +0.000 A 
ATOM     25  C   UNL     1      53.623   9.072   7.422  0.00  0.00    +0.000 A 
ATOM     26  S   UNL     1      53.753   8.331   5.893  0.00  0.00    +0.000 S 
ATOM     27  C   UNL     1      53.766   6.777   6.587  0.00  0.00    +0.000 A 
ATOM     28  N   UNL     1      53.830   5.666   5.805  0.00  0.00    +0.000 NA
ATOM     29  C   UNL     1      53.804   4.552   6.458  0.00  0.00    +0.000 A 
ATOM     30  N   UNL     1      53.734   4.449   7.822  0.00  0.00    +0.000 N 
ATOM     31  C   UNL     1      53.717   5.545   8.655  0.00  0.00    +0.000 A 
ATOM     32  O   UNL     1      53.750   5.418   9.875  0.00  0.00    +0.000 OA
ATOM     33  C   UNL     1      53.705   6.824   7.969  0.00  0.00    +0.000 A 
ATOM     34  H   UNL     1      53.747   3.546   8.273  0.00  0.00    +0.000 HD
ENDBRANCH  21  24
ENDBRANCH  19  20
ENDBRANCH   4  19
TORSDOF 7
ENDMDL
MODEL 8
REMARK VINA RESULT:    -5.959      1.650      2.314
REMARK INTER + INTRA:          -9.260
REMARK INTER:                  -8.084
REMARK INTRA:                  -1.176
REMARK UNBOUND:                -0.863
REMARK  Name = 
REMARK  7 active torsions:
REMARK  status: ('A' for Active; 'I' for Inactive)
REMARK    1  A    between atoms: C_2  and  C_3
REMARK    2  A    between atoms: C_6  and  C_7
REMARK    3  A    between atoms: N_9  and  C_10
REMARK    4  A    between atoms: C_10  and  C_11
REMARK    5  A    between atoms: C_14  and  C_15
REMARK    6  A    between atoms: C_15  and  N_16
REMARK    7  A    between atoms: C_17  and  C_19
REMARK                            x       y       z     vdW  Elec       q    Type
REMARK                         _______ _______ _______ _____ _____    ______ ____
ROOT
ATOM      1  C   UNL     1      46.448   7.428  11.963  0.00  0.00    +0.000 C 
ATOM      2  C   UNL     1      46.865   6.529  13.138  0.00  0.00    +0.000 C 
ATOM      3  C   UNL     1      48.001   7.140  13.960  0.00  0.00    +0.000 C 
ATOM      4  C   UNL     1      47.643   8.541  14.479  0.00  0.00    +0.000 C 
ATOM      5  C   UNL     1      47.241   9.446  13.304  0.00  0.00    +0.000 C 
ATOM      6  C   UNL     1      46.112   8.842  12.469  0.00  0.00    +0.000 C 
ENDROOT
BRANCH   1   7
ATOM      7  C   UNL     1      45.246   6.838  11.197  0.00  0.00    +0.000 C 
BRANCH   7  10
ATOM      8  C   UNL     1      45.257   4.480  10.419  0.00  0.00    +0.000 C 
ATOM      9  O   UNL     1      44.630   4.072  11.391  0.00  0.00    +0.000 OA
ATOM     10  N   UNL     1      45.629   5.797  10.256  0.00  0.00    +0.000 N 
ATOM     11  H   UNL     1      46.080   6.080   9.396  0.00  0.00    +0.000 HD
BRANCH   8  15
ATOM     12  C   UNL     1      46.206   3.420   6.910  0.00  0.00    +0.000 C 
ATOM     13  C   UNL     1      44.811   2.814   7.075  0.00  0.00    +0.000 C 
ATOM     14  C   UNL     1      44.461   2.909   8.566  0.00  0.00    +0.000 C 
ATOM     15  C   UNL     1      45.652   3.582   9.252  0.00  0.00    +0.000 C 
ATOM     16  C   UNL     1      46.344   4.343   8.117  0.00  0.00    +0.000 C 
BRANCH  12  18
ATOM     17  N   UNL     1      48.074   1.561   6.895  0.00  0.00    +0.000 NA
ATOM     18  C   UNL     1      47.247   2.378   6.904  0.00  0.00    +0.000 C 
ENDBRANCH  12  18
ENDBRANCH   8  15
ENDBRANCH   7  10
ENDBRANCH   1   7
BRANCH   4  19
ATOM     19  C   UNL     1      48.805   9.177  15.262  0.00  0.00    +0.000 C 
BRANCH  19  20
ATOM     20  N   UNL     1      49.056   8.527  16.532  0.00  0.00    +0.000 N 
ATOM     21  C   UNL     1      50.244   7.911  16.833  0.00  0.00    +0.000 C 
ATOM     22  O   UNL     1      51.186   7.889  16.043  0.00  0.00    +0.000 OA
ATOM     23  H   UNL     1      48.270   8.433  17.168  0.00  0.00    +0.000 HD
BRANCH  21  24
ATOM     24  C   UNL     1      50.361   7.319  18.173  0.00  0.00    +0.000 A 
ATOM     25  C   UNL     1      51.316   7.810  19.054  0.00  0.00    +0.000 A 
ATOM     26  S   UNL     1      51.330   7.017  20.563  0.00  0.00    +0.000 S 
ATOM     27  C   UNL     1      50.081   5.966  20.082  0.00  0.00    +0.000 A 
ATOM     28  N   UNL     1      49.628   4.995  20.920  0.00  0.00    +0.000 NA
ATOM     29  C   UNL     1      48.698   4.251  20.420  0.00  0.00    +0.000 A 
ATOM     30  N   UNL     1      48.173   4.398  19.164  0.00  0.00    +0.000 N 
ATOM     31  C   UNL     1      48.565   5.395  18.301  0.00  0.00    +0.000 A 
ATOM     32  O   UNL     1      48.008   5.557  17.219  0.00  0.00    +0.000 OA
ATOM     33  C   UNL     1      49.637   6.237  18.800  0.00  0.00    +0.000 A 
ATOM     34  H   UNL     1      47.425   3.799  18.844  0.00  0.00    +0.000 HD
ENDBRANCH  21  24
ENDBRANCH  19  20
ENDBRANCH   4  19
TORSDOF 7
ENDMDL
MODEL 9
REMARK VINA RESULT:    -5.901      5.634      8.149
REMARK INTER + INTRA:          -9.178
REMARK INTER:                  -8.265
REMARK INTRA:                  -0.913
REMARK UNBOUND:                -0.863
REMARK  Name = 
REMARK  7 active torsions:
REMARK  status: ('A' for Active; 'I' for Inactive)
REMARK    1  A    between atoms: C_2  and  C_3
REMARK    2  A    between atoms: C_6  and  C_7
REMARK    3  A    between atoms: N_9  and  C_10
REMARK    4  A    between atoms: C_10  and  C_11
REMARK    5  A    between atoms: C_14  and  C_15
REMARK    6  A    between atoms: C_15  and  N_16
REMARK    7  A    between atoms: C_17  and  C_19
REMARK                            x       y       z     vdW  Elec       q    Type
REMARK                         _______ _______ _______ _____ _____    ______ ____
ROOT
ATOM      1  C   UNL     1      51.883   8.856  12.079  0.00  0.00    +0.000 C 
ATOM      2  C   UNL     1      51.151   7.912  11.113  0.00  0.00    +0.000 C 
ATOM      3  C   UNL     1      49.781   7.487  11.646  0.00  0.00    +0.000 C 
ATOM      4  C   UNL     1      48.891   8.698  11.965  0.00  0.00    +0.000 C 
ATOM      5  C   UNL     1      49.614   9.636  12.943  0.00  0.00    +0.000 C 
ATOM      6  C   UNL     1      50.989  10.060  12.425  0.00  0.00    +0.000 C 
ENDROOT
BRANCH   1   7
ATOM      7  C   UNL     1      53.223   9.342  11.489  0.00  0.00    +0.000 C 
BRANCH   7  10
ATOM      8  C   UNL     1      54.435   7.539  10.287  0.00  0.00    +0.000 C 
ATOM      9  O   UNL     1      54.973   7.113  11.303  0.00  0.00    +0.000 OA
ATOM     10  N   UNL     1      53.598   8.634  10.275  0.00  0.00    +0.000 N 
ATOM     11  H   UNL     1      53.128   8.886   9.416  0.00  0.00    +0.000 HD
BRANCH   8  15
ATOM     12  C   UNL     1      53.681   5.338   7.299  0.00  0.00    +0.000 C 
ATOM     13  C   UNL     1      54.896   4.648   7.922  0.00  0.00    +0.000 C 
ATOM     14  C   UNL     1      55.480   5.625   8.951  0.00  0.00    +0.000 C 
ATOM     15  C   UNL     1      54.589   6.871   8.926  0.00  0.00    +0.000 C 
ATOM     16  C   UNL     1      53.264   6.358   8.354  0.00  0.00    +0.000 C 
BRANCH  12  18
ATOM     17  N   UNL     1      54.311   6.502   5.020  0.00  0.00    +0.000 NA
ATOM     18  C   UNL     1      54.028   5.990   6.024  0.00  0.00    +0.000 C 
ENDBRANCH  12  18
ENDBRANCH   8  15
ENDBRANCH   7  10
ENDBRANCH   1   7
BRANCH   4  19
ATOM     19  C   UNL     1      47.532   8.272  12.549  0.00  0.00    +0.000 C 
BRANCH  19  20
ATOM     20  N   UNL     1      47.002   7.070  11.938  0.00  0.00    +0.000 N 
ATOM     21  C   UNL     1      45.743   7.001  11.397  0.00  0.00    +0.000 C 
ATOM     22  O   UNL     1      44.987   7.970  11.379  0.00  0.00    +0.000 OA
ATOM     23  H   UNL     1      47.555   6.222  12.027  0.00  0.00    +0.000 HD
BRANCH  21  24
ATOM     24  C   UNL     1      45.356   5.721  10.787  0.00  0.00    +0.000 A 
ATOM     25  C   UNL     1      45.654   5.485   9.451  0.00  0.00    +0.000 A 
ATOM     26  S   UNL     1      45.135   3.962   8.890  0.00  0.00    +0.000 S 
ATOM     27  C   UNL     1      44.464   3.573  10.405  0.00  0.00    +0.000 A 
ATOM     28  N   UNL     1      43.821   2.390  10.599  0.00  0.00    +0.000 NA
ATOM     29  C   UNL     1      43.336   2.235  11.786  0.00  0.00    +0.000 A 
ATOM     30  N   UNL     1      43.447   3.150  12.799  0.00  0.00    +0.000 N 
ATOM     31  C   UNL     1      44.129   4.338  12.664  0.00  0.00    +0.000 A 
ATOM     32  O   UNL     1      44.289   5.092  13.618  0.00  0.00    +0.000 OA
ATOM     33  C   UNL     1      44.661   4.579  11.336  0.00  0.00    +0.000 A 
ATOM     34  H   UNL     1      43.068   2.955  13.715  0.00  0.00    +0.000 HD
ENDBRANCH  21  24
ENDBRANCH  19  20
ENDBRANCH   4  19
TORSDOF 7
ENDMDL
