MODEL 1
REMARK VINA RESULT:    -8.289      0.000      0.000
REMARK INTER + INTRA:         -12.746
REMARK INTER:                 -11.682
REMARK INTRA:                  -1.065
REMARK UNBOUND:                -1.065
REMARK  Name = 
REMARK  7 active torsions:
REMARK  status: ('A' for Active; 'I' for Inactive)
REMARK    1  A    between atoms: C_2  and  C_19
REMARK    2  A    between atoms: N_3  and  C_4
REMARK    3  A    between atoms: C_4  and  C_5
REMARK    4  A    between atoms: C_8  and  C_9
REMARK    5  A    between atoms: C_9  and  N_10
REMARK    6  A    between atoms: N_10  and  C_11
REMARK    7  A    between atoms: C_11  and  C_12
REMARK                            x       y       z     vdW  Elec       q    Type
REMARK                         _______ _______ _______ _____ _____    ______ ____
ROOT
ATOM      1  C   UNL     1      46.808   7.972  12.999  0.00  0.00    +0.000 C 
ENDROOT
BRANCH   1   2
ATOM      2  C   UNL     1      46.008   6.934  12.274  0.00  0.00    +0.000 A 
ATOM      3  C   UNL     1      46.329   6.560  10.968  0.00  0.00    +0.000 A 
ATOM      4  C   UNL     1      45.603   5.555  10.336  0.00  0.00    +0.000 A 
ATOM      5  C   UNL     1      44.557   4.953  11.025  0.00  0.00    +0.000 A 
ATOM      6  N   UNL     1      44.219   5.304  12.296  0.00  0.00    +0.000 NA
ATOM      7  C   UNL     1      44.932   6.294  12.877  0.00  0.00    +0.000 A 
BRANCH   5   8
ATOM      8  C   UNL     1      43.762   3.843  10.357  0.00  0.00    +0.000 C 
BRANCH   8   9
ATOM      9  N   UNL     1      44.375   2.511  10.467  0.00  0.00    +0.000 NA
ATOM     10  H   UNL     1      43.726   1.948  11.020  0.00  0.00    +0.000 HD
BRANCH   9  11
ATOM     11  C   UNL     1      44.517   1.864   9.152  0.00  0.00    +0.000 C 
BRANCH  11  12
ATOM     12  C   UNL     1      45.924   2.125   8.591  0.00  0.00    +0.000 C 
ATOM     13  C   UNL     1      45.935   3.102   7.427  0.00  0.00    +0.000 C 
ATOM     14  C   UNL     1      47.305   2.868   6.828  0.00  0.00    +0.000 C 
ATOM     15  C   UNL     1      47.585   1.394   7.090  0.00  0.00    +0.000 C 
ATOM     16  N   UNL     1      46.546   0.924   8.010  0.00  0.00    +0.000 NA
ATOM     17  H   UNL     1      46.945   0.345   8.745  0.00  0.00    +0.000 HD
ENDBRANCH  11  12
ENDBRANCH   9  11
ENDBRANCH   8   9
ENDBRANCH   5   8
ENDBRANCH   1   2
BRANCH   1  20
ATOM     18  O   UNL     1      49.027   6.308  13.468  0.00  0.00    +0.000 OA
ATOM     19  C   UNL     1      48.371   6.712  14.425  0.00  0.00    +0.000 C 
ATOM     20  N   UNL     1      47.268   7.510  14.281  0.00  0.00    +0.000 N 
ATOM     21  H   UNL     1      46.867   7.955  15.099  0.00  0.00    +0.000 HD
BRANCH  19  22
ATOM     22  C   UNL     1      48.700   6.306  15.793  0.00  0.00    +0.000 A 
ATOM     23  C   UNL     1      49.422   7.152  16.620  0.00  0.00    +0.000 A 
ATOM     24  S   UNL     1      49.695   6.515  18.179  0.00  0.00    +0.000 S 
ATOM     25  C   UNL     1      48.829   5.095  17.810  0.00  0.00    +0.000 A 
ATOM     26  N   UNL     1      48.646   4.122  18.745  0.00  0.00    +0.000 NA
ATOM     27  C   UNL     1      47.940   3.121  18.336  0.00  0.00    +0.000 A 
ATOM     28  N   UNL     1      47.414   2.994  17.077  0.00  0.00    +0.000 N 
ATOM     29  C   UNL     1      47.641   3.910  16.082  0.00  0.00    +0.000 A 
ATOM     30  O   UNL     1      47.291   3.697  14.926  0.00  0.00    +0.000 OA
ATOM     31  C   UNL     1      48.374   5.093  16.507  0.00  0.00    +0.000 A 
ATOM     32  H   UNL     1      46.904   2.166  16.810  0.00  0.00    +0.000 HD
ENDBRANCH  19  22
ENDBRANCH   1  20
TORSDOF 7
ENDMDL
MODEL 2
REMARK VINA RESULT:    -7.799      1.489      1.720
REMARK INTER + INTRA:         -12.055
REMARK INTER:                 -11.381
REMARK INTRA:                  -0.674
REMARK UNBOUND:                -1.065
REMARK  Name = 
REMARK  7 active torsions:
REMARK  status: ('A' for Active; 'I' for Inactive)
REMARK    1  A    between atoms: C_2  and  C_19
REMARK    2  A    between atoms: N_3  and  C_4
REMARK    3  A    between atoms: C_4  and  C_5
REMARK    4  A    between atoms: C_8  and  C_9
REMARK    5  A    between atoms: C_9  and  N_10
REMARK    6  A    between atoms: N_10  and  C_11
REMARK    7  A    between atoms: C_11  and  C_12
REMARK                            x       y       z     vdW  Elec       q    Type
REMARK                         _______ _______ _______ _____ _____    ______ ____
ROOT
ATOM      1  C   UNL     1      47.937   6.694  13.444  0.00  0.00    +0.000 C 
ENDROOT
BRANCH   1   2
ATOM      2  C   UNL     1      46.847   5.822  12.902  0.00  0.00    +0.000 A 
ATOM      3  C   UNL     1      46.125   6.193  11.765  0.00  0.00    +0.000 A 
ATOM      4  C   UNL     1      45.155   5.339  11.251  0.00  0.00    +0.000 A 
ATOM      5  C   UNL     1      44.917   4.131  11.896  0.00  0.00    +0.000 A 
ATOM      6  N   UNL     1      45.602   3.749  13.009  0.00  0.00    +0.000 NA
ATOM      7  C   UNL     1      46.526   4.607  13.494  0.00  0.00    +0.000 A 
BRANCH   5   8
ATOM      8  C   UNL     1      43.873   3.179  11.339  0.00  0.00    +0.000 C 
BRANCH   8   9
ATOM      9  N   UNL     1      44.393   2.220  10.353  0.00  0.00    +0.000 NA
ATOM     10  H   UNL     1      43.681   1.490  10.269  0.00  0.00    +0.000 HD
BRANCH   9  11
ATOM     11  C   UNL     1      44.558   2.836   9.026  0.00  0.00    +0.000 C 
BRANCH  11  12
ATOM     12  C   UNL     1      45.966   2.541   8.486  0.00  0.00    +0.000 C 
ATOM     13  C   UNL     1      46.224   3.150   7.116  0.00  0.00    +0.000 C 
ATOM     14  C   UNL     1      47.455   2.397   6.661  0.00  0.00    +0.000 C 
ATOM     15  C   UNL     1      47.313   1.020   7.295  0.00  0.00    +0.000 C 
ATOM     16  N   UNL     1      46.208   1.108   8.252  0.00  0.00    +0.000 NA
ATOM     17  H   UNL     1      46.445   0.646   9.126  0.00  0.00    +0.000 HD
ENDBRANCH  11  12
ENDBRANCH   9  11
ENDBRANCH   8   9
ENDBRANCH   5   8
ENDBRANCH   1   2
BRANCH   1  20
ATOM     18  O   UNL     1      50.160   6.729  15.166  0.00  0.00    +0.000 OA
ATOM     19  C   UNL     1      49.033   6.815  15.646  0.00  0.00    +0.000 C 
ATOM     20  N   UNL     1      47.899   6.789  14.877  0.00  0.00    +0.000 N 
ATOM     21  H   UNL     1      47.009   7.035  15.297  0.00  0.00    +0.000 HD
BRANCH  19  22
ATOM     22  C   UNL     1      48.829   6.891  17.094  0.00  0.00    +0.000 A 
ATOM     23  C   UNL     1      48.513   8.099  17.694  0.00  0.00    +0.000 A 
ATOM     24  S   UNL     1      48.300   7.988  19.383  0.00  0.00    +0.000 S 
ATOM     25  C   UNL     1      48.595   6.310  19.365  0.00  0.00    +0.000 A 
ATOM     26  N   UNL     1      48.528   5.574  20.509  0.00  0.00    +0.000 NA
ATOM     27  C   UNL     1      48.739   4.311  20.338  0.00  0.00    +0.000 A 
ATOM     28  N   UNL     1      49.027   3.719  19.136  0.00  0.00    +0.000 N 
ATOM     29  C   UNL     1      49.184   4.432  17.976  0.00  0.00    +0.000 A 
ATOM     30  O   UNL     1      49.593   3.901  16.950  0.00  0.00    +0.000 OA
ATOM     31  C   UNL     1      48.890   5.853  18.097  0.00  0.00    +0.000 A 
ATOM     32  H   UNL     1      49.220   2.731  19.079  0.00  0.00    +0.000 HD
ENDBRANCH  19  22
ENDBRANCH   1  20
TORSDOF 7
ENDMDL
MODEL 3
REMARK VINA RESULT:    -7.486      2.130      2.686
REMARK INTER + INTRA:         -11.614
REMARK INTER:                 -10.678
REMARK INTRA:                  -0.936
REMARK UNBOUND:                -1.065
REMARK  Name = 
REMARK  7 active torsions:
REMARK  status: ('A' for Active; 'I' for Inactive)
REMARK    1  A    between atoms: C_2  and  C_19
REMARK    2  A    between atoms: N_3  and  C_4
REMARK    3  A    between atoms: C_4  and  C_5
REMARK    4  A    between atoms: C_8  and  C_9
REMARK    5  A    between atoms: C_9  and  N_10
REMARK    6  A    between atoms: N_10  and  C_11
REMARK    7  A    between atoms: C_11  and  C_12
REMARK                            x       y       z     vdW  Elec       q    Type
REMARK                         _______ _______ _______ _____ _____    ______ ____
ROOT
ATOM      1  C   UNL     1      47.855   6.750  13.708  0.00  0.00    +0.000 C 
ENDROOT
BRANCH   1   2
ATOM      2  C   UNL     1      46.783   5.952  13.032  0.00  0.00    +0.000 A 
ATOM      3  C   UNL     1      46.422   6.208  11.707  0.00  0.00    +0.000 A 
ATOM      4  C   UNL     1      45.462   5.418  11.085  0.00  0.00    +0.000 A 
ATOM      5  C   UNL     1      44.870   4.390  11.809  0.00  0.00    +0.000 A 
ATOM      6  N   UNL     1      45.199   4.123  13.104  0.00  0.00    +0.000 NA
ATOM      7  C   UNL     1      46.123   4.919  13.686  0.00  0.00    +0.000 A 
BRANCH   5   8
ATOM      8  C   UNL     1      43.831   3.506  11.142  0.00  0.00    +0.000 C 
BRANCH   8   9
ATOM      9  N   UNL     1      43.957   3.422   9.679  0.00  0.00    +0.000 NA
ATOM     10  H   UNL     1      44.663   4.116   9.419  0.00  0.00    +0.000 HD
BRANCH   9  11
ATOM     11  C   UNL     1      44.448   2.103   9.247  0.00  0.00    +0.000 C 
BRANCH  11  12
ATOM     12  C   UNL     1      45.864   2.238   8.663  0.00  0.00    +0.000 C 
ATOM     13  C   UNL     1      45.936   3.187   7.478  0.00  0.00    +0.000 C 
ATOM     14  C   UNL     1      47.275   2.831   6.868  0.00  0.00    +0.000 C 
ATOM     15  C   UNL     1      47.440   1.345   7.159  0.00  0.00    +0.000 C 
ATOM     16  N   UNL     1      46.379   0.980   8.101  0.00  0.00    +0.000 NA
ATOM     17  H   UNL     1      46.741   0.386   8.844  0.00  0.00    +0.000 HD
ENDBRANCH  11  12
ENDBRANCH   9  11
ENDBRANCH   8   9
ENDBRANCH   5   8
ENDBRANCH   1   2
BRANCH   1  20
ATOM     18  O   UNL     1      50.151   6.629  15.329  0.00  0.00    +0.000 OA
ATOM     19  C   UNL     1      49.046   6.505  15.850  0.00  0.00    +0.000 C 
ATOM     20  N   UNL     1      47.881   6.535  15.129  0.00  0.00    +0.000 N 
ATOM     21  H   UNL     1      46.996   6.601  15.619  0.00  0.00    +0.000 HD
BRANCH  19  22
ATOM     22  C   UNL     1      48.910   6.253  17.286  0.00  0.00    +0.000 A 
ATOM     23  C   UNL     1      49.268   5.025  17.819  0.00  0.00    +0.000 A 
ATOM     24  S   UNL     1      49.052   4.924  19.508  0.00  0.00    +0.000 S 
ATOM     25  C   UNL     1      48.499   6.533  19.589  0.00  0.00    +0.000 A 
ATOM     26  N   UNL     1      48.171   7.102  20.781  0.00  0.00    +0.000 NA
ATOM     27  C   UNL     1      47.802   8.337  20.694  0.00  0.00    +0.000 A 
ATOM     28  N   UNL     1      47.714   9.050  19.527  0.00  0.00    +0.000 N 
ATOM     29  C   UNL     1      47.957   8.493  18.298  0.00  0.00    +0.000 A 
ATOM     30  O   UNL     1      47.722   9.106  17.262  0.00  0.00    +0.000 OA
ATOM     31  C   UNL     1      48.443   7.122  18.342  0.00  0.00    +0.000 A 
ATOM     32  H   UNL     1      47.381  10.002  19.525  0.00  0.00    +0.000 HD
ENDBRANCH  19  22
ENDBRANCH   1  20
TORSDOF 7
ENDMDL
MODEL 4
REMARK VINA RESULT:    -7.023      2.797      7.909
REMARK INTER + INTRA:         -10.962
REMARK INTER:                  -9.344
REMARK INTRA:                  -1.617
REMARK UNBOUND:                -1.065
REMARK  Name = 
REMARK  7 active torsions:
REMARK  status: ('A' for Active; 'I' for Inactive)
REMARK    1  A    between atoms: C_2  and  C_19
REMARK    2  A    between atoms: N_3  and  C_4
REMARK    3  A    between atoms: C_4  and  C_5
REMARK    4  A    between atoms: C_8  and  C_9
REMARK    5  A    between atoms: C_9  and  N_10
REMARK    6  A    between atoms: N_10  and  C_11
REMARK    7  A    between atoms: C_11  and  C_12
REMARK                            x       y       z     vdW  Elec       q    Type
REMARK                         _______ _______ _______ _____ _____    ______ ____
ROOT
ATOM      1  C   UNL     1      47.687   7.756  11.974  0.00  0.00    +0.000 C 
ENDROOT
BRANCH   1   2
ATOM      2  C   UNL     1      48.188   7.844  13.383  0.00  0.00    +0.000 A 
ATOM      3  C   UNL     1      47.884   8.944  14.188  0.00  0.00    +0.000 A 
ATOM      4  C   UNL     1      48.316   8.976  15.510  0.00  0.00    +0.000 A 
ATOM      5  C   UNL     1      49.059   7.907  15.996  0.00  0.00    +0.000 A 
ATOM      6  N   UNL     1      49.375   6.827  15.231  0.00  0.00    +0.000 NA
ATOM      7  C   UNL     1      48.955   6.832  13.946  0.00  0.00    +0.000 A 
BRANCH   5   8
ATOM      8  C   UNL     1      49.527   7.917  17.442  0.00  0.00    +0.000 C 
BRANCH   8   9
ATOM      9  N   UNL     1      49.577   6.589  18.070  0.00  0.00    +0.000 NA
ATOM     10  H   UNL     1      50.242   6.669  18.843  0.00  0.00    +0.000 HD
BRANCH   9  11
ATOM     11  C   UNL     1      48.276   6.203  18.640  0.00  0.00    +0.000 C 
BRANCH  11  12
ATOM     12  C   UNL     1      47.817   4.866  18.037  0.00  0.00    +0.000 C 
ATOM     13  C   UNL     1      48.946   3.860  17.877  0.00  0.00    +0.000 C 
ATOM     14  C   UNL     1      48.338   2.849  16.929  0.00  0.00    +0.000 C 
ATOM     15  C   UNL     1      47.400   3.668  16.053  0.00  0.00    +0.000 C 
ATOM     16  N   UNL     1      47.304   4.996  16.664  0.00  0.00    +0.000 NA
ATOM     17  H   UNL     1      46.340   5.321  16.679  0.00  0.00    +0.000 HD
ENDBRANCH  11  12
ENDBRANCH   9  11
ENDBRANCH   8   9
ENDBRANCH   5   8
ENDBRANCH   1   2
BRANCH   1  20
ATOM     18  O   UNL     1      44.891   7.467  12.069  0.00  0.00    +0.000 OA
ATOM     19  C   UNL     1      45.582   6.493  11.782  0.00  0.00    +0.000 C 
ATOM     20  N   UNL     1      46.950   6.547  11.731  0.00  0.00    +0.000 N 
ATOM     21  H   UNL     1      47.462   5.771  11.325  0.00  0.00    +0.000 HD
BRANCH  19  22
ATOM     22  C   UNL     1      44.978   5.183  11.533  0.00  0.00    +0.000 A 
ATOM     23  C   UNL     1      44.276   4.533  12.535  0.00  0.00    +0.000 A 
ATOM     24  S   UNL     1      43.634   3.027  12.055  0.00  0.00    +0.000 S 
ATOM     25  C   UNL     1      44.251   3.206  10.478  0.00  0.00    +0.000 A 
ATOM     26  N   UNL     1      44.020   2.262   9.524  0.00  0.00    +0.000 NA
ATOM     27  C   UNL     1      44.517   2.547   8.366  0.00  0.00    +0.000 A 
ATOM     28  N   UNL     1      45.235   3.678   8.077  0.00  0.00    +0.000 N 
ATOM     29  C   UNL     1      45.559   4.614   9.025  0.00  0.00    +0.000 A 
ATOM     30  O   UNL     1      46.331   5.534   8.777  0.00  0.00    +0.000 OA
ATOM     31  C   UNL     1      44.967   4.377  10.334  0.00  0.00    +0.000 A 
ATOM     32  H   UNL     1      45.629   3.821   7.160  0.00  0.00    +0.000 HD
ENDBRANCH  19  22
ENDBRANCH   1  20
TORSDOF 7
ENDMDL
MODEL 5
REMARK VINA RESULT:    -6.860      2.350      3.312
REMARK INTER + INTRA:         -10.732
REMARK INTER:                 -10.028
REMARK INTRA:                  -0.704
REMARK UNBOUND:                -1.065
REMARK  Name = 
REMARK  7 active torsions:
REMARK  status: ('A' for Active; 'I' for Inactive)
REMARK    1  A    between atoms: C_2  and  C_19
REMARK    2  A    between atoms: N_3  and  C_4
REMARK    3  A    between atoms: C_4  and  C_5
REMARK    4  A    between atoms: C_8  and  C_9
REMARK    5  A    between atoms: C_9  and  N_10
REMARK    6  A    between atoms: N_10  and  C_11
REMARK    7  A    between atoms: C_11  and  C_12
REMARK                            x       y       z     vdW  Elec       q    Type
REMARK                         _______ _______ _______ _____ _____    ______ ____
ROOT
ATOM      1  C   UNL     1      47.143   4.557  14.726  0.00  0.00    +0.000 C 
ENDROOT
BRANCH   1   2
ATOM      2  C   UNL     1      46.196   4.560  13.567  0.00  0.00    +0.000 A 
ATOM      3  C   UNL     1      45.515   5.721  13.196  0.00  0.00    +0.000 A 
ATOM      4  C   UNL     1      44.682   5.711  12.082  0.00  0.00    +0.000 A 
ATOM      5  C   UNL     1      44.536   4.528  11.367  0.00  0.00    +0.000 A 
ATOM      6  N   UNL     1      45.183   3.380  11.711  0.00  0.00    +0.000 NA
ATOM      7  C   UNL     1      45.972   3.418  12.808  0.00  0.00    +0.000 A 
BRANCH   5   8
ATOM      8  C   UNL     1      43.643   4.501  10.139  0.00  0.00    +0.000 C 
BRANCH   8   9
ATOM      9  N   UNL     1      44.129   3.632   9.057  0.00  0.00    +0.000 NA
ATOM     10  H   UNL     1      43.360   3.562   8.386  0.00  0.00    +0.000 HD
BRANCH   9  11
ATOM     11  C   UNL     1      45.279   4.223   8.355  0.00  0.00    +0.000 C 
BRANCH  11  12
ATOM     12  C   UNL     1      45.950   3.164   7.466  0.00  0.00    +0.000 C 
ATOM     13  C   UNL     1      46.199   1.847   8.185  0.00  0.00    +0.000 C 
ATOM     14  C   UNL     1      47.191   1.167   7.267  0.00  0.00    +0.000 C 
ATOM     15  C   UNL     1      47.993   2.311   6.661  0.00  0.00    +0.000 C 
ATOM     16  N   UNL     1      47.300   3.550   7.025  0.00  0.00    +0.000 NA
ATOM     17  H   UNL     1      47.241   4.181   6.229  0.00  0.00    +0.000 HD
ENDBRANCH  11  12
ENDBRANCH   9  11
ENDBRANCH   8   9
ENDBRANCH   5   8
ENDBRANCH   1   2
BRANCH   1  20
ATOM     18  O   UNL     1      49.048   6.230  13.509  0.00  0.00    +0.000 OA
ATOM     19  C   UNL     1      48.429   6.643  14.486  0.00  0.00    +0.000 C 
ATOM     20  N   UNL     1      47.498   5.885  15.145  0.00  0.00    +0.000 N 
ATOM     21  H   UNL     1      46.895   6.326  15.831  0.00  0.00    +0.000 HD
BRANCH  19  22
ATOM     22  C   UNL     1      48.698   7.968  15.048  0.00  0.00    +0.000 A 
ATOM     23  C   UNL     1      48.766   9.079  14.222  0.00  0.00    +0.000 A 
ATOM     24  S   UNL     1      49.073  10.534  15.058  0.00  0.00    +0.000 S 
ATOM     25  C   UNL     1      49.095   9.731  16.560  0.00  0.00    +0.000 A 
ATOM     26  N   UNL     1      49.277  10.419  17.720  0.00  0.00    +0.000 NA
ATOM     27  C   UNL     1      49.235   9.686  18.783  0.00  0.00    +0.000 A 
ATOM     28  N   UNL     1      49.045   8.328  18.793  0.00  0.00    +0.000 N 
ATOM     29  C   UNL     1      48.939   7.586  17.645  0.00  0.00    +0.000 A 
ATOM     30  O   UNL     1      48.926   6.360  17.677  0.00  0.00    +0.000 OA
ATOM     31  C   UNL     1      48.911   8.370  16.419  0.00  0.00    +0.000 A 
ATOM     32  H   UNL     1      49.062   7.810  19.657  0.00  0.00    +0.000 HD
ENDBRANCH  19  22
ENDBRANCH   1  20
TORSDOF 7
ENDMDL
MODEL 6
REMARK VINA RESULT:    -6.800      2.798      3.520
REMARK INTER + INTRA:         -10.648
REMARK INTER:                  -9.855
REMARK INTRA:                  -0.792
REMARK UNBOUND:                -1.065
REMARK  Name = 
REMARK  7 active torsions:
REMARK  status: ('A' for Active; 'I' for Inactive)
REMARK    1  A    between atoms: C_2  and  C_19
REMARK    2  A    between atoms: N_3  and  C_4
REMARK    3  A    between atoms: C_4  and  C_5
REMARK    4  A    between atoms: C_8  and  C_9
REMARK    5  A    between atoms: C_9  and  N_10
REMARK    6  A    between atoms: N_10  and  C_11
REMARK    7  A    between atoms: C_11  and  C_12
REMARK                            x       y       z     vdW  Elec       q    Type
REMARK                         _______ _______ _______ _____ _____    ______ ____
ROOT
ATOM      1  C   UNL     1      49.181   7.278  15.476  0.00  0.00    +0.000 C 
ENDROOT
BRANCH   1   2
ATOM      2  C   UNL     1      48.142   6.582  14.652  0.00  0.00    +0.000 A 
ATOM      3  C   UNL     1      47.705   5.296  14.979  0.00  0.00    +0.000 A 
ATOM      4  C   UNL     1      46.700   4.694  14.229  0.00  0.00    +0.000 A 
ATOM      5  C   UNL     1      46.160   5.389  13.154  0.00  0.00    +0.000 A 
ATOM      6  N   UNL     1      46.572   6.640  12.810  0.00  0.00    +0.000 NA
ATOM      7  C   UNL     1      47.561   7.192  13.547  0.00  0.00    +0.000 A 
BRANCH   5   8
ATOM      8  C   UNL     1      45.050   4.754  12.333  0.00  0.00    +0.000 C 
BRANCH   8   9
ATOM      9  N   UNL     1      44.938   5.275  10.963  0.00  0.00    +0.000 NA
ATOM     10  H   UNL     1      45.830   5.066  10.509  0.00  0.00    +0.000 HD
BRANCH   9  11
ATOM     11  C   UNL     1      43.880   4.591  10.202  0.00  0.00    +0.000 C 
BRANCH  11  12
ATOM     12  C   UNL     1      44.477   3.944   8.942  0.00  0.00    +0.000 C 
ATOM     13  C   UNL     1      45.112   2.588   9.206  0.00  0.00    +0.000 C 
ATOM     14  C   UNL     1      45.945   2.380   7.960  0.00  0.00    +0.000 C 
ATOM     15  C   UNL     1      46.370   3.784   7.549  0.00  0.00    +0.000 C 
ATOM     16  N   UNL     1      45.592   4.716   8.369  0.00  0.00    +0.000 NA
ATOM     17  H   UNL     1      45.234   5.484   7.807  0.00  0.00    +0.000 HD
ENDBRANCH  11  12
ENDBRANCH   9  11
ENDBRANCH   8   9
ENDBRANCH   5   8
ENDBRANCH   1   2
BRANCH   1  20
ATOM     18  O   UNL     1      49.351   6.117  18.032  0.00  0.00    +0.000 OA
ATOM     19  C   UNL     1      50.207   5.844  17.195  0.00  0.00    +0.000 C 
ATOM     20  N   UNL     1      50.205   6.380  15.935  0.00  0.00    +0.000 N 
ATOM     21  H   UNL     1      50.827   5.996  15.231  0.00  0.00    +0.000 HD
BRANCH  19  22
ATOM     22  C   UNL     1      51.331   4.964  17.520  0.00  0.00    +0.000 A 
ATOM     23  C   UNL     1      52.548   5.498  17.913  0.00  0.00    +0.000 A 
ATOM     24  S   UNL     1      53.731   4.319  18.263  0.00  0.00    +0.000 S 
ATOM     25  C   UNL     1      52.644   3.051  17.929  0.00  0.00    +0.000 A 
ATOM     26  N   UNL     1      53.019   1.750  18.074  0.00  0.00    +0.000 NA
ATOM     27  C   UNL     1      52.081   0.898  17.821  0.00  0.00    +0.000 A 
ATOM     28  N   UNL     1      50.812   1.223  17.421  0.00  0.00    +0.000 N 
ATOM     29  C   UNL     1      50.417   2.514  17.184  0.00  0.00    +0.000 A 
ATOM     30  O   UNL     1      49.328   2.767  16.680  0.00  0.00    +0.000 OA
ATOM     31  C   UNL     1      51.413   3.521  17.519  0.00  0.00    +0.000 A 
ATOM     32  H   UNL     1      50.138   0.505  17.201  0.00  0.00    +0.000 HD
ENDBRANCH  19  22
ENDBRANCH   1  20
TORSDOF 7
ENDMDL
MODEL 7
REMARK VINA RESULT:    -6.756      3.288      7.700
REMARK INTER + INTRA:         -10.586
REMARK INTER:                  -9.024
REMARK INTRA:                  -1.562
REMARK UNBOUND:                -1.065
REMARK  Name = 
REMARK  7 active torsions:
REMARK  status: ('A' for Active; 'I' for Inactive)
REMARK    1  A    between atoms: C_2  and  C_19
REMARK    2  A    between atoms: N_3  and  C_4
REMARK    3  A    between atoms: C_4  and  C_5
REMARK    4  A    between atoms: C_8  and  C_9
REMARK    5  A    between atoms: C_9  and  N_10
REMARK    6  A    between atoms: N_10  and  C_11
REMARK    7  A    between atoms: C_11  and  C_12
REMARK                            x       y       z     vdW  Elec       q    Type
REMARK                         _______ _______ _______ _____ _____    ______ ____
ROOT
ATOM      1  C   UNL     1      47.857   8.832  14.038  0.00  0.00    +0.000 C 
ENDROOT
BRANCH   1   2
ATOM      2  C   UNL     1      48.287   8.403  15.407  0.00  0.00    +0.000 A 
ATOM      3  C   UNL     1      48.205   9.276  16.495  0.00  0.00    +0.000 A 
ATOM      4  C   UNL     1      48.560   8.835  17.765  0.00  0.00    +0.000 A 
ATOM      5  C   UNL     1      49.005   7.527  17.919  0.00  0.00    +0.000 A 
ATOM      6  N   UNL     1      49.100   6.659  16.875  0.00  0.00    +0.000 NA
ATOM      7  C   UNL     1      48.764   7.121  15.651  0.00  0.00    +0.000 A 
BRANCH   5   8
ATOM      8  C   UNL     1      49.382   7.023  19.302  0.00  0.00    +0.000 C 
BRANCH   8   9
ATOM      9  N   UNL     1      48.470   6.006  19.844  0.00  0.00    +0.000 NA
ATOM     10  H   UNL     1      47.708   5.923  19.167  0.00  0.00    +0.000 HD
BRANCH   9  11
ATOM     11  C   UNL     1      49.119   4.689  19.948  0.00  0.00    +0.000 C 
BRANCH  11  12
ATOM     12  C   UNL     1      48.493   3.717  18.935  0.00  0.00    +0.000 C 
ATOM     13  C   UNL     1      49.444   3.320  17.817  0.00  0.00    +0.000 C 
ATOM     14  C   UNL     1      48.501   2.731  16.792  0.00  0.00    +0.000 C 
ATOM     15  C   UNL     1      47.207   3.515  16.973  0.00  0.00    +0.000 C 
ATOM     16  N   UNL     1      47.358   4.298  18.201  0.00  0.00    +0.000 NA
ATOM     17  H   UNL     1      46.514   4.252  18.768  0.00  0.00    +0.000 HD
ENDBRANCH  11  12
ENDBRANCH   9  11
ENDBRANCH   8   9
ENDBRANCH   5   8
ENDBRANCH   1   2
BRANCH   1  20
ATOM     18  O   UNL     1      47.813   6.949  11.950  0.00  0.00    +0.000 OA
ATOM     19  C   UNL     1      46.773   7.190  12.557  0.00  0.00    +0.000 C 
ATOM     20  N   UNL     1      46.707   8.105  13.574  0.00  0.00    +0.000 N 
ATOM     21  H   UNL     1      45.876   8.144  14.154  0.00  0.00    +0.000 HD
BRANCH  19  22
ATOM     22  C   UNL     1      45.511   6.548  12.184  0.00  0.00    +0.000 A 
ATOM     23  C   UNL     1      44.495   7.288  11.602  0.00  0.00    +0.000 A 
ATOM     24  S   UNL     1      43.109   6.368  11.224  0.00  0.00    +0.000 S 
ATOM     25  C   UNL     1      43.834   4.938  11.800  0.00  0.00    +0.000 A 
ATOM     26  N   UNL     1      43.183   3.745  11.732  0.00  0.00    +0.000 NA
ATOM     27  C   UNL     1      43.868   2.742  12.173  0.00  0.00    +0.000 A 
ATOM     28  N   UNL     1      45.135   2.823  12.689  0.00  0.00    +0.000 N 
ATOM     29  C   UNL     1      45.795   4.014  12.850  0.00  0.00    +0.000 A 
ATOM     30  O   UNL     1      46.860   4.077  13.455  0.00  0.00    +0.000 OA
ATOM     31  C   UNL     1      45.097   5.170  12.308  0.00  0.00    +0.000 A 
ATOM     32  H   UNL     1      45.600   2.005  13.052  0.00  0.00    +0.000 HD
ENDBRANCH  19  22
ENDBRANCH   1  20
TORSDOF 7
ENDMDL
MODEL 8
REMARK VINA RESULT:    -6.709      3.590      8.414
REMARK INTER + INTRA:         -10.520
REMARK INTER:                  -9.112
REMARK INTRA:                  -1.408
REMARK UNBOUND:                -1.065
REMARK  Name = 
REMARK  7 active torsions:
REMARK  status: ('A' for Active; 'I' for Inactive)
REMARK    1  A    between atoms: C_2  and  C_19
REMARK    2  A    between atoms: N_3  and  C_4
REMARK    3  A    between atoms: C_4  and  C_5
REMARK    4  A    between atoms: C_8  and  C_9
REMARK    5  A    between atoms: C_9  and  N_10
REMARK    6  A    between atoms: N_10  and  C_11
REMARK    7  A    between atoms: C_11  and  C_12
REMARK                            x       y       z     vdW  Elec       q    Type
REMARK                         _______ _______ _______ _____ _____    ______ ____
ROOT
ATOM      1  C   UNL     1      47.220   3.368  16.789  0.00  0.00    +0.000 C 
ENDROOT
BRANCH   1   2
ATOM      2  C   UNL     1      48.664   3.538  17.151  0.00  0.00    +0.000 A 
ATOM      3  C   UNL     1      49.555   2.465  17.081  0.00  0.00    +0.000 A 
ATOM      4  C   UNL     1      50.901   2.662  17.369  0.00  0.00    +0.000 A 
ATOM      5  C   UNL     1      51.327   3.933  17.737  0.00  0.00    +0.000 A 
ATOM      6  N   UNL     1      50.478   4.994  17.820  0.00  0.00    +0.000 NA
ATOM      7  C   UNL     1      49.174   4.767  17.549  0.00  0.00    +0.000 A 
BRANCH   5   8
ATOM      8  C   UNL     1      52.797   4.171  18.041  0.00  0.00    +0.000 C 
BRANCH   8   9
ATOM      9  N   UNL     1      53.217   5.575  17.928  0.00  0.00    +0.000 NA
ATOM     10  H   UNL     1      53.980   5.694  18.599  0.00  0.00    +0.000 HD
BRANCH   9  11
ATOM     11  C   UNL     1      53.748   5.882  16.590  0.00  0.00    +0.000 C 
BRANCH  11  12
ATOM     12  C   UNL     1      52.967   7.053  15.974  0.00  0.00    +0.000 C 
ATOM     13  C   UNL     1      52.726   8.194  16.949  0.00  0.00    +0.000 C 
ATOM     14  C   UNL     1      51.637   8.982  16.254  0.00  0.00    +0.000 C 
ATOM     15  C   UNL     1      50.834   7.931  15.498  0.00  0.00    +0.000 C 
ATOM     16  N   UNL     1      51.602   6.685  15.565  0.00  0.00    +0.000 NA
ATOM     17  H   UNL     1      51.620   6.220  14.660  0.00  0.00    +0.000 HD
ENDBRANCH  11  12
ENDBRANCH   9  11
ENDBRANCH   8   9
ENDBRANCH   5   8
ENDBRANCH   1   2
BRANCH   1  20
ATOM     18  O   UNL     1      47.291   3.102  13.990  0.00  0.00    +0.000 OA
ATOM     19  C   UNL     1      46.832   4.131  14.480  0.00  0.00    +0.000 C 
ATOM     20  N   UNL     1      46.778   4.345  15.832  0.00  0.00    +0.000 N 
ATOM     21  H   UNL     1      46.238   5.126  16.190  0.00  0.00    +0.000 HD
BRANCH  19  22
ATOM     22  C   UNL     1      46.365   5.231  13.634  0.00  0.00    +0.000 A 
ATOM     23  C   UNL     1      47.171   6.335  13.413  0.00  0.00    +0.000 A 
ATOM     24  S   UNL     1      46.464   7.505  12.392  0.00  0.00    +0.000 S 
ATOM     25  C   UNL     1      45.064   6.557  12.186  0.00  0.00    +0.000 A 
ATOM     26  N   UNL     1      44.050   6.972  11.377  0.00  0.00    +0.000 NA
ATOM     27  C   UNL     1      43.068   6.136  11.289  0.00  0.00    +0.000 A 
ATOM     28  N   UNL     1      42.999   4.935  11.945  0.00  0.00    +0.000 N 
ATOM     29  C   UNL     1      43.958   4.516  12.830  0.00  0.00    +0.000 A 
ATOM     30  O   UNL     1      43.798   3.514  13.518  0.00  0.00    +0.000 OA
ATOM     31  C   UNL     1      45.120   5.388  12.917  0.00  0.00    +0.000 A 
ATOM     32  H   UNL     1      42.184   4.346  11.862  0.00  0.00    +0.000 HD
ENDBRANCH  19  22
ENDBRANCH   1  20
TORSDOF 7
ENDMDL
MODEL 9
REMARK VINA RESULT:    -6.690      4.162      8.863
REMARK INTER + INTRA:         -10.493
REMARK INTER:                  -9.679
REMARK INTRA:                  -0.814
REMARK UNBOUND:                -1.065
REMARK  Name = 
REMARK  7 active torsions:
REMARK  status: ('A' for Active; 'I' for Inactive)
REMARK    1  A    between atoms: C_2  and  C_19
REMARK    2  A    between atoms: N_3  and  C_4
REMARK    3  A    between atoms: C_4  and  C_5
REMARK    4  A    between atoms: C_8  and  C_9
REMARK    5  A    between atoms: C_9  and  N_10
REMARK    6  A    between atoms: N_10  and  C_11
REMARK    7  A    between atoms: C_11  and  C_12
REMARK                            x       y       z     vdW  Elec       q    Type
REMARK                         _______ _______ _______ _____ _____    ______ ____
ROOT
ATOM      1  C   UNL     1      47.141   3.395  16.822  0.00  0.00    +0.000 C 
ENDROOT
BRANCH   1   2
ATOM      2  C   UNL     1      48.599   3.526  17.140  0.00  0.00    +0.000 A 
ATOM      3  C   UNL     1      49.440   2.411  17.137  0.00  0.00    +0.000 A 
ATOM      4  C   UNL     1      50.800   2.567  17.383  0.00  0.00    +0.000 A 
ATOM      5  C   UNL     1      51.290   3.842  17.642  0.00  0.00    +0.000 A 
ATOM      6  N   UNL     1      50.491   4.944  17.658  0.00  0.00    +0.000 NA
ATOM      7  C   UNL     1      49.172   4.757  17.432  0.00  0.00    +0.000 A 
BRANCH   5   8
ATOM      8  C   UNL     1      52.775   4.035  17.898  0.00  0.00    +0.000 C 
BRANCH   8   9
ATOM      9  N   UNL     1      53.458   2.843  18.423  0.00  0.00    +0.000 NA
ATOM     10  H   UNL     1      52.756   2.100  18.434  0.00  0.00    +0.000 HD
BRANCH   9  11
ATOM     11  C   UNL     1      54.555   2.409  17.544  0.00  0.00    +0.000 C 
BRANCH  11  12
ATOM     12  C   UNL     1      54.931   0.952  17.859  0.00  0.00    +0.000 C 
ATOM     13  C   UNL     1      54.911   0.049  16.635  0.00  0.00    +0.000 C 
ATOM     14  C   UNL     1      54.905  -1.330  17.259  0.00  0.00    +0.000 C 
ATOM     15  C   UNL     1      54.141  -1.151  18.565  0.00  0.00    +0.000 C 
ATOM     16  N   UNL     1      53.976   0.291  18.763  0.00  0.00    +0.000 NA
ATOM     17  H   UNL     1      54.170   0.551  19.727  0.00  0.00    +0.000 HD
ENDBRANCH  11  12
ENDBRANCH   9  11
ENDBRANCH   8   9
ENDBRANCH   5   8
ENDBRANCH   1   2
BRANCH   1  20
ATOM     18  O   UNL     1      47.256   3.111  14.026  0.00  0.00    +0.000 OA
ATOM     19  C   UNL     1      46.781   4.139  14.502  0.00  0.00    +0.000 C 
ATOM     20  N   UNL     1      46.705   4.361  15.851  0.00  0.00    +0.000 N 
ATOM     21  H   UNL     1      46.153   5.140  16.196  0.00  0.00    +0.000 HD
BRANCH  19  22
ATOM     22  C   UNL     1      46.318   5.229  13.641  0.00  0.00    +0.000 A 
ATOM     23  C   UNL     1      47.130   6.325  13.401  0.00  0.00    +0.000 A 
ATOM     24  S   UNL     1      46.427   7.483  12.364  0.00  0.00    +0.000 S 
ATOM     25  C   UNL     1      45.020   6.542  12.178  0.00  0.00    +0.000 A 
ATOM     26  N   UNL     1      44.005   6.950  11.367  0.00  0.00    +0.000 NA
ATOM     27  C   UNL     1      43.018   6.119  11.295  0.00  0.00    +0.000 A 
ATOM     28  N   UNL     1      42.944   4.929  11.969  0.00  0.00    +0.000 N 
ATOM     29  C   UNL     1      43.904   4.517  12.856  0.00  0.00    +0.000 A 
ATOM     30  O   UNL     1      43.740   3.527  13.561  0.00  0.00    +0.000 OA
ATOM     31  C   UNL     1      45.072   5.383  12.926  0.00  0.00    +0.000 A 
ATOM     32  H   UNL     1      42.125   4.344  11.898  0.00  0.00    +0.000 HD
ENDBRANCH  19  22
ENDBRANCH   1  20
TORSDOF 7
ENDMDL
