MODEL 1
REMARK VINA RESULT:    -7.191      0.000      0.000
REMARK INTER + INTRA:         -12.021
REMARK INTER:                 -10.975
REMARK INTRA:                  -1.045
REMARK UNBOUND:                -1.045
REMARK  Name = 
REMARK  13 active torsions:
REMARK  status: ('A' for Active; 'I' for Inactive)
REMARK    1  A    between atoms: C_1  and  N_2
REMARK    2  A    between atoms: N_2  and  C_3
REMARK    3  A    between atoms: N_2  and  C_4
REMARK    4  A    between atoms: C_4  and  C_5
REMARK    5  A    between atoms: C_5  and  N_6
REMARK    6  A    between atoms: C_7  and  C_9
REMARK    7  A    between atoms: C_13  and  O_14
REMARK    8  A    between atoms: O_14  and  C_15
REMARK    9  A    between atoms: C_15  and  C_16
REMARK   10  A    between atoms: C_16  and  C_17
REMARK   11  A    between atoms: C_16  and  C_18
REMARK   12  A    between atoms: C_16  and  C_19
REMARK   13  A    between atoms: C_23  and  C_24
REMARK                            x       y       z     vdW  Elec       q    Type
REMARK                         _______ _______ _______ _____ _____    ______ ____
ROOT
ATOM      1  O   UNL     1      45.852   6.682  13.139  0.00  0.00    +0.000 OA
ENDROOT
BRANCH   1   6
ATOM      2  C   UNL     1      44.320   4.258  10.900  0.00  0.00    +0.000 A 
ATOM      3  C   UNL     1      43.093   4.072  11.534  0.00  0.00    +0.000 A 
ATOM      4  C   UNL     1      42.852   4.792  12.689  0.00  0.00    +0.000 A 
ATOM      5  N   UNL     1      43.734   5.651  13.237  0.00  0.00    +0.000 NA
ATOM      6  C   UNL     1      44.926   5.798  12.613  0.00  0.00    +0.000 A 
ATOM      7  C   UNL     1      45.259   5.139  11.446  0.00  0.00    +0.000 A 
BRANCH   2   9
ATOM      8  N   UNL     1      45.150   4.184   8.601  0.00  0.00    +0.000 N 
ATOM      9  C   UNL     1      44.687   3.474   9.691  0.00  0.00    +0.000 C 
ATOM     10  O   UNL     1      44.580   2.252   9.704  0.00  0.00    +0.000 OA
ATOM     11  H   UNL     1      45.515   5.121   8.724  0.00  0.00    +0.000 HD
BRANCH   8  12
ATOM     12  C   UNL     1      45.581   3.477   7.407  0.00  0.00    +0.000 C 
BRANCH  12  13
ATOM     13  C   UNL     1      47.090   3.625   7.133  0.00  0.00    +0.000 C 
BRANCH  13  15
ATOM     14  C   UNL     1      47.078   1.199   7.353  0.00  0.00    +0.000 C 
ATOM     15  N   UNL     1      47.782   2.359   6.795  0.00  0.00    +0.000 NA
ATOM     16  C   UNL     1      47.854   2.215   5.335  0.00  0.00    +0.000 C 
ENDBRANCH  13  15
ENDBRANCH  12  13
ENDBRANCH   8  12
ENDBRANCH   2   9
ENDBRANCH   1   6
BRANCH   1  17
ATOM     17  C   UNL     1      47.192   6.178  13.022  0.00  0.00    +0.000 C 
BRANCH  17  18
ATOM     18  C   UNL     1      48.217   7.082  13.768  0.00  0.00    +0.000 C 
ATOM     19  C   UNL     1      49.415   7.337  12.822  0.00  0.00    +0.000 C 
ATOM     20  C   UNL     1      47.542   8.455  14.014  0.00  0.00    +0.000 C 
BRANCH  18  21
ATOM     21  C   UNL     1      48.632   6.484  15.124  0.00  0.00    +0.000 A 
ATOM     22  C   UNL     1      49.698   6.991  15.882  0.00  0.00    +0.000 A 
ATOM     23  C   UNL     1      50.000   6.431  17.118  0.00  0.00    +0.000 A 
ATOM     24  N   UNL     1      49.322   5.406  17.667  0.00  0.00    +0.000 NA
ATOM     25  C   UNL     1      48.294   4.911  16.926  0.00  0.00    +0.000 A 
ATOM     26  C   UNL     1      47.924   5.403  15.676  0.00  0.00    +0.000 A 
BRANCH  25  27
ATOM     27  C   UNL     1      47.528   3.780  17.539  0.00  0.00    +0.000 C 
ATOM     28  N   UNL     1      48.041   3.303  18.716  0.00  0.00    +0.000 N 
ATOM     29  O   UNL     1      46.512   3.314  17.038  0.00  0.00    +0.000 OA
ATOM     30  H   UNL     1      48.885   3.722  19.091  0.00  0.00    +0.000 HD
ATOM     31  H   UNL     1      47.587   2.539  19.192  0.00  0.00    +0.000 HD
ENDBRANCH  25  27
ENDBRANCH  18  21
ENDBRANCH  17  18
ENDBRANCH   1  17
TORSDOF 9
ENDMDL
MODEL 2
REMARK VINA RESULT:    -6.978      2.732      3.788
REMARK INTER + INTRA:         -11.694
REMARK INTER:                 -10.891
REMARK INTRA:                  -0.803
REMARK UNBOUND:                -1.045
REMARK  Name = 
REMARK  13 active torsions:
REMARK  status: ('A' for Active; 'I' for Inactive)
REMARK    1  A    between atoms: C_1  and  N_2
REMARK    2  A    between atoms: N_2  and  C_3
REMARK    3  A    between atoms: N_2  and  C_4
REMARK    4  A    between atoms: C_4  and  C_5
REMARK    5  A    between atoms: C_5  and  N_6
REMARK    6  A    between atoms: C_7  and  C_9
REMARK    7  A    between atoms: C_13  and  O_14
REMARK    8  A    between atoms: O_14  and  C_15
REMARK    9  A    between atoms: C_15  and  C_16
REMARK   10  A    between atoms: C_16  and  C_17
REMARK   11  A    between atoms: C_16  and  C_18
REMARK   12  A    between atoms: C_16  and  C_19
REMARK   13  A    between atoms: C_23  and  C_24
REMARK                            x       y       z     vdW  Elec       q    Type
REMARK                         _______ _______ _______ _____ _____    ______ ____
ROOT
ATOM      1  O   UNL     1      46.921   4.227  15.166  0.00  0.00    +0.000 OA
ENDROOT
BRANCH   1   6
ATOM      2  C   UNL     1      45.614   4.884  11.835  0.00  0.00    +0.000 A 
ATOM      3  C   UNL     1      45.959   6.226  11.691  0.00  0.00    +0.000 A 
ATOM      4  C   UNL     1      46.627   6.833  12.739  0.00  0.00    +0.000 A 
ATOM      5  N   UNL     1      46.954   6.206  13.885  0.00  0.00    +0.000 NA
ATOM      6  C   UNL     1      46.590   4.909  14.008  0.00  0.00    +0.000 A 
ATOM      7  C   UNL     1      45.935   4.206  13.015  0.00  0.00    +0.000 A 
BRANCH   2   9
ATOM      8  N   UNL     1      45.199   2.870  10.511  0.00  0.00    +0.000 N 
ATOM      9  C   UNL     1      44.835   4.174  10.786  0.00  0.00    +0.000 C 
ATOM     10  O   UNL     1      43.912   4.750  10.220  0.00  0.00    +0.000 OA
ATOM     11  H   UNL     1      45.734   2.339  11.190  0.00  0.00    +0.000 HD
BRANCH   8  12
ATOM     12  C   UNL     1      44.445   2.098   9.540  0.00  0.00    +0.000 C 
BRANCH  12  13
ATOM     13  C   UNL     1      45.344   1.358   8.531  0.00  0.00    +0.000 C 
BRANCH  13  15
ATOM     14  C   UNL     1      47.362   1.356   7.167  0.00  0.00    +0.000 C 
ATOM     15  N   UNL     1      46.455   2.171   7.983  0.00  0.00    +0.000 NA
ATOM     16  C   UNL     1      45.908   3.252   7.152  0.00  0.00    +0.000 C 
ENDBRANCH  13  15
ENDBRANCH  12  13
ENDBRANCH   8  12
ENDBRANCH   2   9
ENDBRANCH   1   6
BRANCH   1  17
ATOM     17  C   UNL     1      47.820   4.986  15.990  0.00  0.00    +0.000 C 
BRANCH  17  18
ATOM     18  C   UNL     1      48.234   4.201  17.270  0.00  0.00    +0.000 C 
ATOM     19  C   UNL     1      47.594   4.898  18.494  0.00  0.00    +0.000 C 
ATOM     20  C   UNL     1      47.604   2.788  17.179  0.00  0.00    +0.000 C 
BRANCH  18  21
ATOM     21  C   UNL     1      49.762   4.055  17.385  0.00  0.00    +0.000 A 
ATOM     22  C   UNL     1      50.627   5.159  17.444  0.00  0.00    +0.000 A 
ATOM     23  C   UNL     1      51.995   4.963  17.586  0.00  0.00    +0.000 A 
ATOM     24  N   UNL     1      52.578   3.753  17.678  0.00  0.00    +0.000 NA
ATOM     25  C   UNL     1      51.738   2.685  17.612  0.00  0.00    +0.000 A 
ATOM     26  C   UNL     1      50.357   2.785  17.464  0.00  0.00    +0.000 A 
BRANCH  25  27
ATOM     27  C   UNL     1      52.379   1.336  17.730  0.00  0.00    +0.000 C 
ATOM     28  N   UNL     1      51.532   0.320  18.084  0.00  0.00    +0.000 N 
ATOM     29  O   UNL     1      53.570   1.143  17.521  0.00  0.00    +0.000 OA
ATOM     30  H   UNL     1      50.553   0.530  18.248  0.00  0.00    +0.000 HD
ATOM     31  H   UNL     1      51.884  -0.619  18.189  0.00  0.00    +0.000 HD
ENDBRANCH  25  27
ENDBRANCH  18  21
ENDBRANCH  17  18
ENDBRANCH   1  17
TORSDOF 9
ENDMDL
MODEL 3
REMARK VINA RESULT:    -6.817      2.706      4.857
REMARK INTER + INTRA:         -11.450
REMARK INTER:                 -10.211
REMARK INTRA:                  -1.239
REMARK UNBOUND:                -1.045
REMARK  Name = 
REMARK  13 active torsions:
REMARK  status: ('A' for Active; 'I' for Inactive)
REMARK    1  A    between atoms: C_1  and  N_2
REMARK    2  A    between atoms: N_2  and  C_3
REMARK    3  A    between atoms: N_2  and  C_4
REMARK    4  A    between atoms: C_4  and  C_5
REMARK    5  A    between atoms: C_5  and  N_6
REMARK    6  A    between atoms: C_7  and  C_9
REMARK    7  A    between atoms: C_13  and  O_14
REMARK    8  A    between atoms: O_14  and  C_15
REMARK    9  A    between atoms: C_15  and  C_16
REMARK   10  A    between atoms: C_16  and  C_17
REMARK   11  A    between atoms: C_16  and  C_18
REMARK   12  A    between atoms: C_16  and  C_19
REMARK   13  A    between atoms: C_23  and  C_24
REMARK                            x       y       z     vdW  Elec       q    Type
REMARK                         _______ _______ _______ _____ _____    ______ ____
ROOT
ATOM      1  O   UNL     1      49.741   6.633  15.502  0.00  0.00    +0.000 OA
ENDROOT
BRANCH   1   6
ATOM      2  C   UNL     1      47.187   6.481  12.915  0.00  0.00    +0.000 A 
ATOM      3  C   UNL     1      47.810   7.212  11.906  0.00  0.00    +0.000 A 
ATOM      4  C   UNL     1      49.074   7.711  12.161  0.00  0.00    +0.000 A 
ATOM      5  N   UNL     1      49.729   7.538  13.325  0.00  0.00    +0.000 NA
ATOM      6  C   UNL     1      49.094   6.843  14.297  0.00  0.00    +0.000 A 
ATOM      7  C   UNL     1      47.838   6.288  14.138  0.00  0.00    +0.000 A 
BRANCH   2   9
ATOM      8  N   UNL     1      45.109   6.383  11.630  0.00  0.00    +0.000 N 
ATOM      9  C   UNL     1      45.802   5.967  12.750  0.00  0.00    +0.000 C 
ATOM     10  O   UNL     1      45.334   5.202  13.587  0.00  0.00    +0.000 OA
ATOM     11  H   UNL     1      45.612   6.744  10.827  0.00  0.00    +0.000 HD
BRANCH   8  12
ATOM     12  C   UNL     1      43.773   5.874  11.376  0.00  0.00    +0.000 C 
BRANCH  12  13
ATOM     13  C   UNL     1      43.746   4.755  10.317  0.00  0.00    +0.000 C 
BRANCH  13  15
ATOM     14  C   UNL     1      43.362   2.809  11.732  0.00  0.00    +0.000 C 
ATOM     15  N   UNL     1      44.278   3.453  10.783  0.00  0.00    +0.000 NA
ATOM     16  C   UNL     1      44.473   2.562   9.631  0.00  0.00    +0.000 C 
ENDBRANCH  13  15
ENDBRANCH  12  13
ENDBRANCH   8  12
ENDBRANCH   2   9
ENDBRANCH   1   6
BRANCH   1  17
ATOM     17  C   UNL     1      48.865   6.852  16.619  0.00  0.00    +0.000 C 
BRANCH  17  18
ATOM     18  C   UNL     1      49.228   5.938  17.827  0.00  0.00    +0.000 C 
ATOM     19  C   UNL     1      50.507   6.500  18.492  0.00  0.00    +0.000 C 
ATOM     20  C   UNL     1      48.089   6.064  18.871  0.00  0.00    +0.000 C 
BRANCH  18  21
ATOM     21  C   UNL     1      49.358   4.462  17.413  0.00  0.00    +0.000 A 
ATOM     22  C   UNL     1      48.363   3.788  16.688  0.00  0.00    +0.000 A 
ATOM     23  C   UNL     1      48.554   2.464  16.310  0.00  0.00    +0.000 A 
ATOM     24  N   UNL     1      49.663   1.753  16.591  0.00  0.00    +0.000 NA
ATOM     25  C   UNL     1      50.622   2.407  17.300  0.00  0.00    +0.000 A 
ATOM     26  C   UNL     1      50.514   3.728  17.727  0.00  0.00    +0.000 A 
BRANCH  25  27
ATOM     27  C   UNL     1      51.863   1.625  17.602  0.00  0.00    +0.000 C 
ATOM     28  N   UNL     1      51.650   0.342  18.029  0.00  0.00    +0.000 N 
ATOM     29  O   UNL     1      52.990   2.086  17.472  0.00  0.00    +0.000 OA
ATOM     30  H   UNL     1      50.697   0.005  18.122  0.00  0.00    +0.000 HD
ATOM     31  H   UNL     1      52.432  -0.252  18.257  0.00  0.00    +0.000 HD
ENDBRANCH  25  27
ENDBRANCH  18  21
ENDBRANCH  17  18
ENDBRANCH   1  17
TORSDOF 9
ENDMDL
MODEL 4
REMARK VINA RESULT:    -6.403      2.595      4.341
REMARK INTER + INTRA:         -10.817
REMARK INTER:                  -9.231
REMARK INTRA:                  -1.586
REMARK UNBOUND:                -1.045
REMARK  Name = 
REMARK  13 active torsions:
REMARK  status: ('A' for Active; 'I' for Inactive)
REMARK    1  A    between atoms: C_1  and  N_2
REMARK    2  A    between atoms: N_2  and  C_3
REMARK    3  A    between atoms: N_2  and  C_4
REMARK    4  A    between atoms: C_4  and  C_5
REMARK    5  A    between atoms: C_5  and  N_6
REMARK    6  A    between atoms: C_7  and  C_9
REMARK    7  A    between atoms: C_13  and  O_14
REMARK    8  A    between atoms: O_14  and  C_15
REMARK    9  A    between atoms: C_15  and  C_16
REMARK   10  A    between atoms: C_16  and  C_17
REMARK   11  A    between atoms: C_16  and  C_18
REMARK   12  A    between atoms: C_16  and  C_19
REMARK   13  A    between atoms: C_23  and  C_24
REMARK                            x       y       z     vdW  Elec       q    Type
REMARK                         _______ _______ _______ _____ _____    ______ ____
ROOT
ATOM      1  O   UNL     1      49.610   8.803  13.627  0.00  0.00    +0.000 OA
ENDROOT
BRANCH   1   6
ATOM      2  C   UNL     1      46.310   7.590  12.694  0.00  0.00    +0.000 A 
ATOM      3  C   UNL     1      45.755   8.754  12.168  0.00  0.00    +0.000 A 
ATOM      4  C   UNL     1      46.542   9.890  12.153  0.00  0.00    +0.000 A 
ATOM      5  N   UNL     1      47.803   9.937  12.622  0.00  0.00    +0.000 NA
ATOM      6  C   UNL     1      48.312   8.798  13.147  0.00  0.00    +0.000 A 
ATOM      7  C   UNL     1      47.616   7.606  13.195  0.00  0.00    +0.000 A 
BRANCH   2   9
ATOM      8  N   UNL     1      44.142   6.482  12.932  0.00  0.00    +0.000 N 
ATOM      9  C   UNL     1      45.511   6.341  12.811  0.00  0.00    +0.000 C 
ATOM     10  O   UNL     1      46.077   5.253  12.787  0.00  0.00    +0.000 OA
ATOM     11  H   UNL     1      43.694   7.342  12.639  0.00  0.00    +0.000 HD
BRANCH   8  12
ATOM     12  C   UNL     1      43.296   5.303  12.992  0.00  0.00    +0.000 C 
BRANCH  12  13
ATOM     13  C   UNL     1      42.623   4.976  11.646  0.00  0.00    +0.000 C 
BRANCH  13  15
ATOM     14  C   UNL     1      44.145   3.966  10.034  0.00  0.00    +0.000 C 
ATOM     15  N   UNL     1      43.083   3.717  11.015  0.00  0.00    +0.000 NA
ATOM     16  C   UNL     1      43.595   2.809  12.051  0.00  0.00    +0.000 C 
ENDBRANCH  13  15
ENDBRANCH  12  13
ENDBRANCH   8  12
ENDBRANCH   2   9
ENDBRANCH   1   6
BRANCH   1  17
ATOM     17  C   UNL     1      49.905   7.611  14.372  0.00  0.00    +0.000 C 
BRANCH  17  18
ATOM     18  C   UNL     1      50.130   7.914  15.883  0.00  0.00    +0.000 C 
ATOM     19  C   UNL     1      51.625   8.257  16.090  0.00  0.00    +0.000 C 
ATOM     20  C   UNL     1      49.326   9.192  16.232  0.00  0.00    +0.000 C 
BRANCH  18  21
ATOM     21  C   UNL     1      49.642   6.762  16.779  0.00  0.00    +0.000 A 
ATOM     22  C   UNL     1      50.112   6.569  18.087  0.00  0.00    +0.000 A 
ATOM     23  C   UNL     1      49.605   5.532  18.862  0.00  0.00    +0.000 A 
ATOM     24  N   UNL     1      48.660   4.669  18.441  0.00  0.00    +0.000 NA
ATOM     25  C   UNL     1      48.213   4.855  17.170  0.00  0.00    +0.000 A 
ATOM     26  C   UNL     1      48.667   5.861  16.321  0.00  0.00    +0.000 A 
BRANCH  25  27
ATOM     27  C   UNL     1      47.151   3.908  16.703  0.00  0.00    +0.000 C 
ATOM     28  N   UNL     1      46.814   4.022  15.380  0.00  0.00    +0.000 N 
ATOM     29  O   UNL     1      46.623   3.083  17.437  0.00  0.00    +0.000 OA
ATOM     30  H   UNL     1      47.280   4.721  14.811  0.00  0.00    +0.000 HD
ATOM     31  H   UNL     1      46.105   3.423  14.986  0.00  0.00    +0.000 HD
ENDBRANCH  25  27
ENDBRANCH  18  21
ENDBRANCH  17  18
ENDBRANCH   1  17
TORSDOF 9
ENDMDL
MODEL 5
REMARK VINA RESULT:    -6.316      2.387      8.824
REMARK INTER + INTRA:         -10.685
REMARK INTER:                  -9.549
REMARK INTRA:                  -1.136
REMARK UNBOUND:                -1.045
REMARK  Name = 
REMARK  13 active torsions:
REMARK  status: ('A' for Active; 'I' for Inactive)
REMARK    1  A    between atoms: C_1  and  N_2
REMARK    2  A    between atoms: N_2  and  C_3
REMARK    3  A    between atoms: N_2  and  C_4
REMARK    4  A    between atoms: C_4  and  C_5
REMARK    5  A    between atoms: C_5  and  N_6
REMARK    6  A    between atoms: C_7  and  C_9
REMARK    7  A    between atoms: C_13  and  O_14
REMARK    8  A    between atoms: O_14  and  C_15
REMARK    9  A    between atoms: C_15  and  C_16
REMARK   10  A    between atoms: C_16  and  C_17
REMARK   11  A    between atoms: C_16  and  C_18
REMARK   12  A    between atoms: C_16  and  C_19
REMARK   13  A    between atoms: C_23  and  C_24
REMARK                            x       y       z     vdW  Elec       q    Type
REMARK                         _______ _______ _______ _____ _____    ______ ____
ROOT
ATOM      1  O   UNL     1      47.032   4.628  13.791  0.00  0.00    +0.000 OA
ENDROOT
BRANCH   1   6
ATOM      2  C   UNL     1      47.902   4.623  17.324  0.00  0.00    +0.000 A 
ATOM      3  C   UNL     1      48.267   3.288  17.490  0.00  0.00    +0.000 A 
ATOM      4  C   UNL     1      48.202   2.463  16.383  0.00  0.00    +0.000 A 
ATOM      5  N   UNL     1      47.803   2.872  15.163  0.00  0.00    +0.000 NA
ATOM      6  C   UNL     1      47.435   4.168  15.033  0.00  0.00    +0.000 A 
ATOM      7  C   UNL     1      47.478   5.078  16.071  0.00  0.00    +0.000 A 
BRANCH   2   9
ATOM      8  N   UNL     1      49.071   6.165  18.820  0.00  0.00    +0.000 N 
ATOM      9  C   UNL     1      47.877   5.562  18.477  0.00  0.00    +0.000 C 
ATOM     10  O   UNL     1      46.822   5.774  19.065  0.00  0.00    +0.000 OA
ATOM     11  H   UNL     1      49.827   6.213  18.145  0.00  0.00    +0.000 HD
BRANCH   8  12
ATOM     12  C   UNL     1      49.108   7.136  19.898  0.00  0.00    +0.000 C 
BRANCH  12  13
ATOM     13  C   UNL     1      49.550   8.536  19.432  0.00  0.00    +0.000 C 
BRANCH  13  15
ATOM     14  C   UNL     1      47.982   9.428  17.795  0.00  0.00    +0.000 C 
ATOM     15  N   UNL     1      48.439   9.485  19.188  0.00  0.00    +0.000 NA
ATOM     16  C   UNL     1      47.312   9.157  20.072  0.00  0.00    +0.000 C 
ENDBRANCH  13  15
ENDBRANCH  12  13
ENDBRANCH   8  12
ENDBRANCH   2   9
ENDBRANCH   1   6
BRANCH   1  17
ATOM     17  C   UNL     1      47.055   6.063  13.725  0.00  0.00    +0.000 C 
BRANCH  17  18
ATOM     18  C   UNL     1      46.242   6.599  12.510  0.00  0.00    +0.000 C 
ATOM     19  C   UNL     1      45.666   7.985  12.886  0.00  0.00    +0.000 C 
ATOM     20  C   UNL     1      47.236   6.829  11.343  0.00  0.00    +0.000 C 
BRANCH  18  21
ATOM     21  C   UNL     1      45.166   5.599  12.052  0.00  0.00    +0.000 A 
ATOM     22  C   UNL     1      43.955   5.422  12.739  0.00  0.00    +0.000 A 
ATOM     23  C   UNL     1      43.005   4.530  12.254  0.00  0.00    +0.000 A 
ATOM     24  N   UNL     1      43.160   3.798  11.135  0.00  0.00    +0.000 NA
ATOM     25  C   UNL     1      44.339   3.966  10.476  0.00  0.00    +0.000 A 
ATOM     26  C   UNL     1      45.349   4.830  10.890  0.00  0.00    +0.000 A 
BRANCH  25  27
ATOM     27  C   UNL     1      44.510   3.165   9.222  0.00  0.00    +0.000 C 
ATOM     28  N   UNL     1      44.678   1.819   9.412  0.00  0.00    +0.000 N 
ATOM     29  O   UNL     1      44.494   3.665   8.104  0.00  0.00    +0.000 OA
ATOM     30  H   UNL     1      44.684   1.452  10.358  0.00  0.00    +0.000 HD
ATOM     31  H   UNL     1      44.803   1.209   8.619  0.00  0.00    +0.000 HD
ENDBRANCH  25  27
ENDBRANCH  18  21
ENDBRANCH  17  18
ENDBRANCH   1  17
TORSDOF 9
ENDMDL
MODEL 6
REMARK VINA RESULT:    -6.186      3.087      5.280
REMARK INTER + INTRA:         -10.486
REMARK INTER:                  -9.151
REMARK INTRA:                  -1.335
REMARK UNBOUND:                -1.045
REMARK  Name = 
REMARK  13 active torsions:
REMARK  status: ('A' for Active; 'I' for Inactive)
REMARK    1  A    between atoms: C_1  and  N_2
REMARK    2  A    between atoms: N_2  and  C_3
REMARK    3  A    between atoms: N_2  and  C_4
REMARK    4  A    between atoms: C_4  and  C_5
REMARK    5  A    between atoms: C_5  and  N_6
REMARK    6  A    between atoms: C_7  and  C_9
REMARK    7  A    between atoms: C_13  and  O_14
REMARK    8  A    between atoms: O_14  and  C_15
REMARK    9  A    between atoms: C_15  and  C_16
REMARK   10  A    between atoms: C_16  and  C_17
REMARK   11  A    between atoms: C_16  and  C_18
REMARK   12  A    between atoms: C_16  and  C_19
REMARK   13  A    between atoms: C_23  and  C_24
REMARK                            x       y       z     vdW  Elec       q    Type
REMARK                         _______ _______ _______ _____ _____    ______ ____
ROOT
ATOM      1  O   UNL     1      51.358   8.269  15.132  0.00  0.00    +0.000 OA
ENDROOT
BRANCH   1   6
ATOM      2  C   UNL     1      48.670   6.948  13.067  0.00  0.00    +0.000 A 
ATOM      3  C   UNL     1      48.947   7.584  11.859  0.00  0.00    +0.000 A 
ATOM      4  C   UNL     1      50.044   8.424  11.813  0.00  0.00    +0.000 A 
ATOM      5  N   UNL     1      50.849   8.668  12.865  0.00  0.00    +0.000 NA
ATOM      6  C   UNL     1      50.546   8.054  14.032  0.00  0.00    +0.000 A 
ATOM      7  C   UNL     1      49.483   7.183  14.180  0.00  0.00    +0.000 A 
BRANCH   2   9
ATOM      8  N   UNL     1      46.284   6.554  12.700  0.00  0.00    +0.000 N 
ATOM      9  C   UNL     1      47.471   6.081  13.223  0.00  0.00    +0.000 C 
ATOM     10  O   UNL     1      47.575   4.998  13.789  0.00  0.00    +0.000 OA
ATOM     11  H   UNL     1      46.296   7.276  11.988  0.00  0.00    +0.000 HD
BRANCH   8  12
ATOM     12  C   UNL     1      45.087   5.735  12.766  0.00  0.00    +0.000 C 
BRANCH  12  13
ATOM     13  C   UNL     1      44.916   4.820  11.538  0.00  0.00    +0.000 C 
BRANCH  13  15
ATOM     14  C   UNL     1      43.342   2.980  11.809  0.00  0.00    +0.000 C 
ATOM     15  N   UNL     1      43.530   4.347  11.310  0.00  0.00    +0.000 NA
ATOM     16  C   UNL     1      42.588   5.239  12.000  0.00  0.00    +0.000 C 
ENDBRANCH  13  15
ENDBRANCH  12  13
ENDBRANCH   8  12
ENDBRANCH   2   9
ENDBRANCH   1   6
BRANCH   1  17
ATOM     17  C   UNL     1      50.714   7.871  16.353  0.00  0.00    +0.000 C 
BRANCH  17  18
ATOM     18  C   UNL     1      51.561   6.829  17.142  0.00  0.00    +0.000 C 
ATOM     19  C   UNL     1      52.935   6.694  16.443  0.00  0.00    +0.000 C 
ATOM     20  C   UNL     1      51.832   7.413  18.551  0.00  0.00    +0.000 C 
BRANCH  18  21
ATOM     21  C   UNL     1      50.824   5.487  17.296  0.00  0.00    +0.000 A 
ATOM     22  C   UNL     1      51.498   4.262  17.417  0.00  0.00    +0.000 A 
ATOM     23  C   UNL     1      50.777   3.087  17.592  0.00  0.00    +0.000 A 
ATOM     24  N   UNL     1      49.434   3.029  17.661  0.00  0.00    +0.000 NA
ATOM     25  C   UNL     1      48.783   4.218  17.535  0.00  0.00    +0.000 A 
ATOM     26  C   UNL     1      49.421   5.442  17.351  0.00  0.00    +0.000 A 
BRANCH  25  27
ATOM     27  C   UNL     1      47.290   4.162  17.627  0.00  0.00    +0.000 C 
ATOM     28  N   UNL     1      46.711   5.201  18.307  0.00  0.00    +0.000 N 
ATOM     29  O   UNL     1      46.624   3.263  17.128  0.00  0.00    +0.000 OA
ATOM     30  H   UNL     1      47.305   5.922  18.703  0.00  0.00    +0.000 HD
ATOM     31  H   UNL     1      45.710   5.237  18.418  0.00  0.00    +0.000 HD
ENDBRANCH  25  27
ENDBRANCH  18  21
ENDBRANCH  17  18
ENDBRANCH   1  17
TORSDOF 9
ENDMDL
MODEL 7
REMARK VINA RESULT:    -6.098      2.716      7.894
REMARK INTER + INTRA:         -10.352
REMARK INTER:                  -9.206
REMARK INTRA:                  -1.147
REMARK UNBOUND:                -1.045
REMARK  Name = 
REMARK  13 active torsions:
REMARK  status: ('A' for Active; 'I' for Inactive)
REMARK    1  A    between atoms: C_1  and  N_2
REMARK    2  A    between atoms: N_2  and  C_3
REMARK    3  A    between atoms: N_2  and  C_4
REMARK    4  A    between atoms: C_4  and  C_5
REMARK    5  A    between atoms: C_5  and  N_6
REMARK    6  A    between atoms: C_7  and  C_9
REMARK    7  A    between atoms: C_13  and  O_14
REMARK    8  A    between atoms: O_14  and  C_15
REMARK    9  A    between atoms: C_15  and  C_16
REMARK   10  A    between atoms: C_16  and  C_17
REMARK   11  A    between atoms: C_16  and  C_18
REMARK   12  A    between atoms: C_16  and  C_19
REMARK   13  A    between atoms: C_23  and  C_24
REMARK                            x       y       z     vdW  Elec       q    Type
REMARK                         _______ _______ _______ _____ _____    ______ ____
ROOT
ATOM      1  O   UNL     1      45.699   4.302  13.101  0.00  0.00    +0.000 OA
ENDROOT
BRANCH   1   6
ATOM      2  C   UNL     1      48.295   6.317  14.663  0.00  0.00    +0.000 A 
ATOM      3  C   UNL     1      48.405   5.673  15.893  0.00  0.00    +0.000 A 
ATOM      4  C   UNL     1      47.590   4.579  16.120  0.00  0.00    +0.000 A 
ATOM      5  N   UNL     1      46.698   4.108  15.228  0.00  0.00    +0.000 NA
ATOM      6  C   UNL     1      46.596   4.764  14.049  0.00  0.00    +0.000 A 
ATOM      7  C   UNL     1      47.374   5.856  13.716  0.00  0.00    +0.000 A 
BRANCH   2   9
ATOM      8  N   UNL     1      50.215   7.382  13.586  0.00  0.00    +0.000 N 
ATOM      9  C   UNL     1      49.084   7.541  14.362  0.00  0.00    +0.000 C 
ATOM     10  O   UNL     1      48.709   8.626  14.793  0.00  0.00    +0.000 OA
ATOM     11  H   UNL     1      50.318   6.559  13.002  0.00  0.00    +0.000 HD
BRANCH   8  12
ATOM     12  C   UNL     1      51.000   8.543  13.206  0.00  0.00    +0.000 C 
BRANCH  12  13
ATOM     13  C   UNL     1      51.045   8.766  11.682  0.00  0.00    +0.000 C 
BRANCH  13  15
ATOM     14  C   UNL     1      49.170  10.321  11.636  0.00  0.00    +0.000 C 
ATOM     15  N   UNL     1      50.565  10.096  11.239  0.00  0.00    +0.000 NA
ATOM     16  C   UNL     1      51.404  11.144  11.835  0.00  0.00    +0.000 C 
ENDBRANCH  13  15
ENDBRANCH  12  13
ENDBRANCH   8  12
ENDBRANCH   2   9
ENDBRANCH   1   6
BRANCH   1  17
ATOM     17  C   UNL     1      44.472   5.048  13.124  0.00  0.00    +0.000 C 
BRANCH  17  18
ATOM     18  C   UNL     1      43.951   5.350  11.687  0.00  0.00    +0.000 C 
ATOM     19  C   UNL     1      42.431   5.624  11.771  0.00  0.00    +0.000 C 
ATOM     20  C   UNL     1      44.617   6.666  11.212  0.00  0.00    +0.000 C 
BRANCH  18  21
ATOM     21  C   UNL     1      44.312   4.228  10.698  0.00  0.00    +0.000 A 
ATOM     22  C   UNL     1      43.770   2.936  10.787  0.00  0.00    +0.000 A 
ATOM     23  C   UNL     1      44.106   1.975   9.840  0.00  0.00    +0.000 A 
ATOM     24  N   UNL     1      44.937   2.195   8.804  0.00  0.00    +0.000 NA
ATOM     25  C   UNL     1      45.467   3.446   8.726  0.00  0.00    +0.000 A 
ATOM     26  C   UNL     1      45.194   4.469   9.631  0.00  0.00    +0.000 A 
BRANCH  25  27
ATOM     27  C   UNL     1      46.380   3.701   7.567  0.00  0.00    +0.000 C 
ATOM     28  N   UNL     1      46.552   2.638   6.720  0.00  0.00    +0.000 N 
ATOM     29  O   UNL     1      46.931   4.778   7.375  0.00  0.00    +0.000 OA
ATOM     30  H   UNL     1      46.075   1.766   6.921  0.00  0.00    +0.000 HD
ATOM     31  H   UNL     1      47.155   2.725   5.916  0.00  0.00    +0.000 HD
ENDBRANCH  25  27
ENDBRANCH  18  21
ENDBRANCH  17  18
ENDBRANCH   1  17
TORSDOF 9
ENDMDL
MODEL 8
REMARK VINA RESULT:    -6.079      2.444      8.399
REMARK INTER + INTRA:         -10.322
REMARK INTER:                  -9.294
REMARK INTRA:                  -1.028
REMARK UNBOUND:                -1.045
REMARK  Name = 
REMARK  13 active torsions:
REMARK  status: ('A' for Active; 'I' for Inactive)
REMARK    1  A    between atoms: C_1  and  N_2
REMARK    2  A    between atoms: N_2  and  C_3
REMARK    3  A    between atoms: N_2  and  C_4
REMARK    4  A    between atoms: C_4  and  C_5
REMARK    5  A    between atoms: C_5  and  N_6
REMARK    6  A    between atoms: C_7  and  C_9
REMARK    7  A    between atoms: C_13  and  O_14
REMARK    8  A    between atoms: O_14  and  C_15
REMARK    9  A    between atoms: C_15  and  C_16
REMARK   10  A    between atoms: C_16  and  C_17
REMARK   11  A    between atoms: C_16  and  C_18
REMARK   12  A    between atoms: C_16  and  C_19
REMARK   13  A    between atoms: C_23  and  C_24
REMARK                            x       y       z     vdW  Elec       q    Type
REMARK                         _______ _______ _______ _____ _____    ______ ____
ROOT
ATOM      1  O   UNL     1      46.047   4.345  13.002  0.00  0.00    +0.000 OA
ENDROOT
BRANCH   1   6
ATOM      2  C   UNL     1      48.394   6.251  15.026  0.00  0.00    +0.000 A 
ATOM      3  C   UNL     1      48.341   5.529  16.217  0.00  0.00    +0.000 A 
ATOM      4  C   UNL     1      47.511   4.425  16.262  0.00  0.00    +0.000 A 
ATOM      5  N   UNL     1      46.750   4.014  15.228  0.00  0.00    +0.000 NA
ATOM      6  C   UNL     1      46.804   4.743  14.090  0.00  0.00    +0.000 A 
ATOM      7  C   UNL     1      47.613   5.853  13.936  0.00  0.00    +0.000 A 
BRANCH   2   9
ATOM      8  N   UNL     1      50.460   7.367  14.342  0.00  0.00    +0.000 N 
ATOM      9  C   UNL     1      49.209   7.490  14.913  0.00  0.00    +0.000 C 
ATOM     10  O   UNL     1      48.751   8.555  15.311  0.00  0.00    +0.000 OA
ATOM     11  H   UNL     1      50.674   6.567  13.756  0.00  0.00    +0.000 HD
BRANCH   8  12
ATOM     12  C   UNL     1      51.285   8.546  14.148  0.00  0.00    +0.000 C 
BRANCH  12  13
ATOM     13  C   UNL     1      52.723   8.366  14.674  0.00  0.00    +0.000 C 
BRANCH  13  15
ATOM     14  C   UNL     1      54.184   6.560  15.405  0.00  0.00    +0.000 C 
ATOM     15  N   UNL     1      52.899   7.235  15.614  0.00  0.00    +0.000 NA
ATOM     16  C   UNL     1      52.841   7.733  16.996  0.00  0.00    +0.000 C 
ENDBRANCH  13  15
ENDBRANCH  12  13
ENDBRANCH   8  12
ENDBRANCH   2   9
ENDBRANCH   1   6
BRANCH   1  17
ATOM     17  C   UNL     1      44.793   5.042  12.945  0.00  0.00    +0.000 C 
BRANCH  17  18
ATOM     18  C   UNL     1      44.388   5.386  11.481  0.00  0.00    +0.000 C 
ATOM     19  C   UNL     1      42.929   5.901  11.490  0.00  0.00    +0.000 C 
ATOM     20  C   UNL     1      45.276   6.568  11.013  0.00  0.00    +0.000 C 
BRANCH  18  21
ATOM     21  C   UNL     1      44.607   4.197  10.530  0.00  0.00    +0.000 A 
ATOM     22  C   UNL     1      43.959   2.964  10.697  0.00  0.00    +0.000 A 
ATOM     23  C   UNL     1      44.168   1.939   9.782  0.00  0.00    +0.000 A 
ATOM     24  N   UNL     1      44.971   2.041   8.706  0.00  0.00    +0.000 NA
ATOM     25  C   UNL     1      45.604   3.235   8.551  0.00  0.00    +0.000 A 
ATOM     26  C   UNL     1      45.460   4.314   9.419  0.00  0.00    +0.000 A 
BRANCH  25  27
ATOM     27  C   UNL     1      46.486   3.360   7.347  0.00  0.00    +0.000 C 
ATOM     28  N   UNL     1      47.169   2.222   7.009  0.00  0.00    +0.000 N 
ATOM     29  O   UNL     1      46.590   4.394   6.700  0.00  0.00    +0.000 OA
ATOM     30  H   UNL     1      47.050   1.389   7.576  0.00  0.00    +0.000 HD
ATOM     31  H   UNL     1      47.788   2.221   6.213  0.00  0.00    +0.000 HD
ENDBRANCH  25  27
ENDBRANCH  18  21
ENDBRANCH  17  18
ENDBRANCH   1  17
TORSDOF 9
ENDMDL
MODEL 9
REMARK VINA RESULT:    -5.925      3.743      7.744
REMARK INTER + INTRA:         -10.088
REMARK INTER:                  -8.664
REMARK INTRA:                  -1.424
REMARK UNBOUND:                -1.045
REMARK  Name = 
REMARK  13 active torsions:
REMARK  status: ('A' for Active; 'I' for Inactive)
REMARK    1  A    between atoms: C_1  and  N_2
REMARK    2  A    between atoms: N_2  and  C_3
REMARK    3  A    between atoms: N_2  and  C_4
REMARK    4  A    between atoms: C_4  and  C_5
REMARK    5  A    between atoms: C_5  and  N_6
REMARK    6  A    between atoms: C_7  and  C_9
REMARK    7  A    between atoms: C_13  and  O_14
REMARK    8  A    between atoms: O_14  and  C_15
REMARK    9  A    between atoms: C_15  and  C_16
REMARK   10  A    between atoms: C_16  and  C_17
REMARK   11  A    between atoms: C_16  and  C_18
REMARK   12  A    between atoms: C_16  and  C_19
REMARK   13  A    between atoms: C_23  and  C_24
REMARK                            x       y       z     vdW  Elec       q    Type
REMARK                         _______ _______ _______ _____ _____    ______ ____
ROOT
ATOM      1  O   UNL     1      49.680   9.480  14.411  0.00  0.00    +0.000 OA
ENDROOT
BRANCH   1   6
ATOM      2  C   UNL     1      48.263   8.632  17.653  0.00  0.00    +0.000 A 
ATOM      3  C   UNL     1      48.100   9.904  18.195  0.00  0.00    +0.000 A 
ATOM      4  C   UNL     1      48.477  10.986  17.420  0.00  0.00    +0.000 A 
ATOM      5  N   UNL     1      48.995  10.878  16.181  0.00  0.00    +0.000 NA
ATOM      6  C   UNL     1      49.162   9.630  15.685  0.00  0.00    +0.000 A 
ATOM      7  C   UNL     1      48.804   8.485  16.371  0.00  0.00    +0.000 A 
BRANCH   2   9
ATOM      8  N   UNL     1      47.901   6.215  17.756  0.00  0.00    +0.000 N 
ATOM      9  C   UNL     1      47.947   7.412  18.443  0.00  0.00    +0.000 C 
ATOM     10  O   UNL     1      47.752   7.505  19.650  0.00  0.00    +0.000 OA
ATOM     11  H   UNL     1      48.362   6.129  16.857  0.00  0.00    +0.000 HD
BRANCH   8  12
ATOM     12  C   UNL     1      47.655   4.978  18.475  0.00  0.00    +0.000 C 
BRANCH  12  13
ATOM     13  C   UNL     1      48.921   4.114  18.636  0.00  0.00    +0.000 C 
BRANCH  13  15
ATOM     14  C   UNL     1      51.066   3.796  17.525  0.00  0.00    +0.000 C 
ATOM     15  N   UNL     1      49.607   3.783  17.365  0.00  0.00    +0.000 NA
ATOM     16  C   UNL     1      49.190   2.448  16.915  0.00  0.00    +0.000 C 
ENDBRANCH  13  15
ENDBRANCH  12  13
ENDBRANCH   8  12
ENDBRANCH   2   9
ENDBRANCH   1   6
BRANCH   1  17
ATOM     17  C   UNL     1      49.437   8.163  13.892  0.00  0.00    +0.000 C 
BRANCH  17  18
ATOM     18  C   UNL     1      48.548   8.200  12.613  0.00  0.00    +0.000 C 
ATOM     19  C   UNL     1      48.189   9.676  12.315  0.00  0.00    +0.000 C 
ATOM     20  C   UNL     1      49.411   7.703  11.426  0.00  0.00    +0.000 C 
BRANCH  18  21
ATOM     21  C   UNL     1      47.315   7.290  12.743  0.00  0.00    +0.000 A 
ATOM     22  C   UNL     1      46.005   7.758  12.558  0.00  0.00    +0.000 A 
ATOM     23  C   UNL     1      44.933   6.878  12.651  0.00  0.00    +0.000 A 
ATOM     24  N   UNL     1      45.057   5.563  12.912  0.00  0.00    +0.000 NA
ATOM     25  C   UNL     1      46.328   5.114  13.099  0.00  0.00    +0.000 A 
ATOM     26  C   UNL     1      47.460   5.922  13.031  0.00  0.00    +0.000 A 
BRANCH  25  27
ATOM     27  C   UNL     1      46.473   3.649  13.374  0.00  0.00    +0.000 C 
ATOM     28  N   UNL     1      45.574   2.846  12.725  0.00  0.00    +0.000 N 
ATOM     29  O   UNL     1      47.334   3.191  14.115  0.00  0.00    +0.000 OA
ATOM     30  H   UNL     1      44.879   3.272  12.120  0.00  0.00    +0.000 HD
ATOM     31  H   UNL     1      45.600   1.847  12.858  0.00  0.00    +0.000 HD
ENDBRANCH  25  27
ENDBRANCH  18  21
ENDBRANCH  17  18
ENDBRANCH   1  17
TORSDOF 9
ENDMDL
