MODEL 1
REMARK VINA RESULT:    -8.895      0.000      0.000
REMARK INTER + INTRA:         -12.286
REMARK INTER:                 -11.755
REMARK INTRA:                  -0.531
REMARK UNBOUND:                -0.531
REMARK  Name = 
REMARK  7 active torsions:
REMARK  status: ('A' for Active; 'I' for Inactive)
REMARK    1  A    between atoms: C_1  and  C_2
REMARK    2  A    between atoms: C_2  and  O_3
REMARK    3  A    between atoms: C_5  and  N_6
REMARK    4  A    between atoms: C_9  and  C_10
REMARK    5  A    between atoms: C_10  and  C_13
REMARK    6  A    between atoms: C_13  and  N_14
REMARK    7  A    between atoms: C_18  and  C_19
REMARK                            x       y       z     vdW  Elec       q    Type
REMARK                         _______ _______ _______ _____ _____    ______ ____
ROOT
ATOM      1  C   UNL     1      43.773   5.886  11.834  0.00  0.00    +0.000 C 
ATOM      2  F   UNL     1      42.834   5.479  12.739  0.00  0.00    +0.000 F 
ATOM      3  F   UNL     1      43.514   7.219  11.632  0.00  0.00    +0.000 F 
ENDROOT
BRANCH   1   7
ATOM      4  N   UNL     1      46.733   3.803  15.167  0.00  0.00    +0.000 N 
ATOM      5  C   UNL     1      46.614   4.649  14.041  0.00  0.00    +0.000 A 
ATOM      6  C   UNL     1      45.356   4.806  13.464  0.00  0.00    +0.000 A 
ATOM      7  C   UNL     1      45.177   5.688  12.388  0.00  0.00    +0.000 A 
ATOM      8  C   UNL     1      46.311   6.344  11.900  0.00  0.00    +0.000 A 
ATOM      9  C   UNL     1      47.530   6.116  12.515  0.00  0.00    +0.000 A 
ATOM     10  N   UNL     1      47.695   5.303  13.577  0.00  0.00    +0.000 NA
ATOM     11  H   UNL     1      46.543   2.852  14.864  0.00  0.00    +0.000 HD
BRANCH   4  15
ATOM     12  C   UNL     1      47.677   5.388  19.177  0.00  0.00    +0.000 C 
ATOM     13  C   UNL     1      48.310   4.658  18.003  0.00  0.00    +0.000 C 
ATOM     14  C   UNL     1      48.044   5.308  16.621  0.00  0.00    +0.000 C 
ATOM     15  C   UNL     1      47.862   3.882  16.050  0.00  0.00    +0.000 C 
ATOM     16  C   UNL     1      47.516   3.424  17.485  0.00  0.00    +0.000 C 
BRANCH  13  17
ATOM     17  O   UNL     1      49.700   4.396  18.305  0.00  0.00    +0.000 OA
ATOM     18  H   UNL     1      49.827   4.719  19.214  0.00  0.00    +0.000 HD
ENDBRANCH  13  17
ENDBRANCH   4  15
ENDBRANCH   1   7
BRANCH   1  19
ATOM     19  C   UNL     1      43.505   5.165  10.486  0.00  0.00    +0.000 C 
BRANCH  19  20
ATOM     20  N   UNL     1      43.850   3.724  10.470  0.00  0.00    +0.000 N 
ATOM     21  C   UNL     1      44.743   3.394   9.437  0.00  0.00    +0.000 A 
ATOM     22  C   UNL     1      45.190   2.076   9.275  0.00  0.00    +0.000 A 
ATOM     23  N   UNL     1      46.060   1.671   8.308  0.00  0.00    +0.000 NA
ATOM     24  C   UNL     1      46.495   2.671   7.493  0.00  0.00    +0.000 A 
ATOM     25  C   UNL     1      46.085   3.984   7.649  0.00  0.00    +0.000 A 
ATOM     26  N   UNL     1      45.213   4.365   8.617  0.00  0.00    +0.000 NA
ATOM     27  H   UNL     1      43.021   3.136  10.428  0.00  0.00    +0.000 HD
BRANCH  24  28
ATOM     28  C   UNL     1      47.436   2.327   6.391  0.00  0.00    +0.000 C 
ATOM     29  N   UNL     1      47.328   3.080   5.253  0.00  0.00    +0.000 N 
ATOM     30  O   UNL     1      48.263   1.431   6.494  0.00  0.00    +0.000 OA
ATOM     31  H   UNL     1      46.630   3.815   5.195  0.00  0.00    +0.000 HD
ATOM     32  H   UNL     1      47.941   2.897   4.472  0.00  0.00    +0.000 HD
ENDBRANCH  24  28
ENDBRANCH  19  20
ENDBRANCH   1  19
TORSDOF 6
ENDMDL
MODEL 2
REMARK VINA RESULT:    -8.434      2.282      3.534
REMARK INTER + INTRA:         -11.677
REMARK INTER:                 -10.904
REMARK INTRA:                  -0.773
REMARK UNBOUND:                -0.531
REMARK  Name = 
REMARK  7 active torsions:
REMARK  status: ('A' for Active; 'I' for Inactive)
REMARK    1  A    between atoms: C_1  and  C_2
REMARK    2  A    between atoms: C_2  and  O_3
REMARK    3  A    between atoms: C_5  and  N_6
REMARK    4  A    between atoms: C_9  and  C_10
REMARK    5  A    between atoms: C_10  and  C_13
REMARK    6  A    between atoms: C_13  and  N_14
REMARK    7  A    between atoms: C_18  and  C_19
REMARK                            x       y       z     vdW  Elec       q    Type
REMARK                         _______ _______ _______ _____ _____    ______ ____
ROOT
ATOM      1  C   UNL     1      43.580   5.422  12.008  0.00  0.00    +0.000 C 
ATOM      2  F   UNL     1      42.699   4.775  12.827  0.00  0.00    +0.000 F 
ATOM      3  F   UNL     1      43.117   6.712  11.941  0.00  0.00    +0.000 F 
ENDROOT
BRANCH   1   7
ATOM      4  N   UNL     1      48.054   7.438  12.357  0.00  0.00    +0.000 N 
ATOM      5  C   UNL     1      47.182   6.398  12.748  0.00  0.00    +0.000 A 
ATOM      6  C   UNL     1      45.868   6.430  12.286  0.00  0.00    +0.000 A 
ATOM      7  C   UNL     1      44.986   5.384  12.592  0.00  0.00    +0.000 A 
ATOM      8  C   UNL     1      45.466   4.357  13.411  0.00  0.00    +0.000 A 
ATOM      9  C   UNL     1      46.778   4.410  13.846  0.00  0.00    +0.000 A 
ATOM     10  N   UNL     1      47.640   5.392  13.516  0.00  0.00    +0.000 NA
ATOM     11  H   UNL     1      47.724   8.299  12.785  0.00  0.00    +0.000 HD
BRANCH   4  15
ATOM     12  C   UNL     1      51.606  10.024  12.785  0.00  0.00    +0.000 C 
ATOM     13  C   UNL     1      51.202   8.565  12.651  0.00  0.00    +0.000 C 
ATOM     14  C   UNL     1      50.212   8.275  11.493  0.00  0.00    +0.000 C 
ATOM     15  C   UNL     1      49.480   7.296  12.442  0.00  0.00    +0.000 C 
ATOM     16  C   UNL     1      50.080   8.096  13.621  0.00  0.00    +0.000 C 
BRANCH  13  17
ATOM     17  O   UNL     1      52.392   7.743  12.664  0.00  0.00    +0.000 OA
ATOM     18  H   UNL     1      53.121   8.349  12.445  0.00  0.00    +0.000 HD
ENDBRANCH  13  17
ENDBRANCH   4  15
ENDBRANCH   1   7
BRANCH   1  19
ATOM     19  C   UNL     1      43.460   4.824  10.582  0.00  0.00    +0.000 C 
BRANCH  19  20
ATOM     20  N   UNL     1      43.835   3.395  10.470  0.00  0.00    +0.000 N 
ATOM     21  C   UNL     1      44.745   3.156   9.427  0.00  0.00    +0.000 A 
ATOM     22  C   UNL     1      45.221   1.861   9.180  0.00  0.00    +0.000 A 
ATOM     23  N   UNL     1      46.109   1.542   8.196  0.00  0.00    +0.000 NA
ATOM     24  C   UNL     1      46.530   2.604   7.456  0.00  0.00    +0.000 A 
ATOM     25  C   UNL     1      46.091   3.895   7.698  0.00  0.00    +0.000 A 
ATOM     26  N   UNL     1      45.201   4.190   8.681  0.00  0.00    +0.000 NA
ATOM     27  H   UNL     1      43.020   2.794  10.379  0.00  0.00    +0.000 HD
BRANCH  24  28
ATOM     28  C   UNL     1      47.489   2.357   6.343  0.00  0.00    +0.000 C 
ATOM     29  N   UNL     1      47.391   3.201   5.270  0.00  0.00    +0.000 N 
ATOM     30  O   UNL     1      48.319   1.460   6.385  0.00  0.00    +0.000 OA
ATOM     31  H   UNL     1      46.690   3.935   5.262  0.00  0.00    +0.000 HD
ATOM     32  H   UNL     1      48.017   3.085   4.485  0.00  0.00    +0.000 HD
ENDBRANCH  24  28
ENDBRANCH  19  20
ENDBRANCH   1  19
TORSDOF 6
ENDMDL
MODEL 3
REMARK VINA RESULT:    -8.066      2.220      2.830
REMARK INTER + INTRA:         -11.191
REMARK INTER:                 -10.768
REMARK INTRA:                  -0.423
REMARK UNBOUND:                -0.531
REMARK  Name = 
REMARK  7 active torsions:
REMARK  status: ('A' for Active; 'I' for Inactive)
REMARK    1  A    between atoms: C_1  and  C_2
REMARK    2  A    between atoms: C_2  and  O_3
REMARK    3  A    between atoms: C_5  and  N_6
REMARK    4  A    between atoms: C_9  and  C_10
REMARK    5  A    between atoms: C_10  and  C_13
REMARK    6  A    between atoms: C_13  and  N_14
REMARK    7  A    between atoms: C_18  and  C_19
REMARK                            x       y       z     vdW  Elec       q    Type
REMARK                         _______ _______ _______ _____ _____    ______ ____
ROOT
ATOM      1  C   UNL     1      43.786   4.483  12.469  0.00  0.00    +0.000 C 
ATOM      2  F   UNL     1      44.376   3.324  12.887  0.00  0.00    +0.000 F 
ATOM      3  F   UNL     1      42.677   4.621  13.267  0.00  0.00    +0.000 F 
ENDROOT
BRANCH   1   7
ATOM      4  N   UNL     1      48.018   6.263  14.237  0.00  0.00    +0.000 N 
ATOM      5  C   UNL     1      46.821   6.516  13.530  0.00  0.00    +0.000 A 
ATOM      6  C   UNL     1      45.960   5.449  13.288  0.00  0.00    +0.000 A 
ATOM      7  C   UNL     1      44.730   5.664  12.649  0.00  0.00    +0.000 A 
ATOM      8  C   UNL     1      44.443   6.966  12.228  0.00  0.00    +0.000 A 
ATOM      9  C   UNL     1      45.363   7.967  12.486  0.00  0.00    +0.000 A 
ATOM     10  N   UNL     1      46.525   7.770  13.140  0.00  0.00    +0.000 NA
ATOM     11  H   UNL     1      48.606   5.673  13.655  0.00  0.00    +0.000 HD
BRANCH   4  15
ATOM     12  C   UNL     1      52.030   6.910  15.961  0.00  0.00    +0.000 C 
ATOM     13  C   UNL     1      50.712   7.624  15.704  0.00  0.00    +0.000 C 
ATOM     14  C   UNL     1      49.455   6.840  16.161  0.00  0.00    +0.000 C 
ATOM     15  C   UNL     1      48.756   7.321  14.867  0.00  0.00    +0.000 C 
ATOM     16  C   UNL     1      50.163   7.500  14.254  0.00  0.00    +0.000 C 
BRANCH  13  17
ATOM     17  O   UNL     1      50.807   8.980  16.198  0.00  0.00    +0.000 OA
ATOM     18  H   UNL     1      51.338   9.455  15.537  0.00  0.00    +0.000 HD
ENDBRANCH  13  17
ENDBRANCH   4  15
ENDBRANCH   1   7
BRANCH   1  19
ATOM     19  C   UNL     1      43.275   4.282  11.018  0.00  0.00    +0.000 C 
BRANCH  19  20
ATOM     20  N   UNL     1      44.069   4.973   9.976  0.00  0.00    +0.000 N 
ATOM     21  C   UNL     1      44.883   4.092   9.244  0.00  0.00    +0.000 A 
ATOM     22  C   UNL     1      45.697   4.569   8.207  0.00  0.00    +0.000 A 
ATOM     23  N   UNL     1      46.509   3.784   7.444  0.00  0.00    +0.000 NA
ATOM     24  C   UNL     1      46.461   2.460   7.755  0.00  0.00    +0.000 A 
ATOM     25  C   UNL     1      45.648   1.965   8.759  0.00  0.00    +0.000 A 
ATOM     26  N   UNL     1      44.849   2.765   9.512  0.00  0.00    +0.000 NA
ATOM     27  H   UNL     1      44.623   5.734  10.362  0.00  0.00    +0.000 HD
BRANCH  24  28
ATOM     28  C   UNL     1      47.327   1.521   6.988  0.00  0.00    +0.000 C 
ATOM     29  N   UNL     1      48.382   2.087   6.323  0.00  0.00    +0.000 N 
ATOM     30  O   UNL     1      47.117   0.317   6.958  0.00  0.00    +0.000 OA
ATOM     31  H   UNL     1      48.530   3.090   6.364  0.00  0.00    +0.000 HD
ATOM     32  H   UNL     1      49.007   1.501   5.788  0.00  0.00    +0.000 HD
ENDBRANCH  24  28
ENDBRANCH  19  20
ENDBRANCH   1  19
TORSDOF 6
ENDMDL
MODEL 4
REMARK VINA RESULT:    -7.326      3.484      4.387
REMARK INTER + INTRA:         -10.212
REMARK INTER:                  -9.436
REMARK INTRA:                  -0.776
REMARK UNBOUND:                -0.531
REMARK  Name = 
REMARK  7 active torsions:
REMARK  status: ('A' for Active; 'I' for Inactive)
REMARK    1  A    between atoms: C_1  and  C_2
REMARK    2  A    between atoms: C_2  and  O_3
REMARK    3  A    between atoms: C_5  and  N_6
REMARK    4  A    between atoms: C_9  and  C_10
REMARK    5  A    between atoms: C_10  and  C_13
REMARK    6  A    between atoms: C_13  and  N_14
REMARK    7  A    between atoms: C_18  and  C_19
REMARK                            x       y       z     vdW  Elec       q    Type
REMARK                         _______ _______ _______ _____ _____    ______ ____
ROOT
ATOM      1  C   UNL     1      44.908   5.742  12.358  0.00  0.00    +0.000 C 
ATOM      2  F   UNL     1      45.664   4.717  12.851  0.00  0.00    +0.000 F 
ATOM      3  F   UNL     1      43.910   5.921  13.284  0.00  0.00    +0.000 F 
ENDROOT
BRANCH   1   7
ATOM      4  N   UNL     1      49.270   7.832  11.457  0.00  0.00    +0.000 N 
ATOM      5  C   UNL     1      47.903   8.012  11.766  0.00  0.00    +0.000 A 
ATOM      6  C   UNL     1      47.090   6.883  11.844  0.00  0.00    +0.000 A 
ATOM      7  C   UNL     1      45.742   7.007  12.213  0.00  0.00    +0.000 A 
ATOM      8  C   UNL     1      45.254   8.297  12.441  0.00  0.00    +0.000 A 
ATOM      9  C   UNL     1      46.122   9.369  12.321  0.00  0.00    +0.000 A 
ATOM     10  N   UNL     1      47.427   9.247  12.009  0.00  0.00    +0.000 NA
ATOM     11  H   UNL     1      49.332   7.487  10.503  0.00  0.00    +0.000 HD
BRANCH   4  15
ATOM     12  C   UNL     1      53.543   8.098  12.530  0.00  0.00    +0.000 C 
ATOM     13  C   UNL     1      52.324   8.966  12.259  0.00  0.00    +0.000 C 
ATOM     14  C   UNL     1      51.046   8.537  13.023  0.00  0.00    +0.000 C 
ATOM     15  C   UNL     1      50.244   8.849  11.737  0.00  0.00    +0.000 C 
ATOM     16  C   UNL     1      51.555   8.637  10.947  0.00  0.00    +0.000 C 
BRANCH  13  17
ATOM     17  O   UNL     1      52.694  10.357  12.408  0.00  0.00    +0.000 OA
ATOM     18  H   UNL     1      52.596  10.546  13.357  0.00  0.00    +0.000 HD
ENDBRANCH  13  17
ENDBRANCH   4  15
ENDBRANCH   1   7
BRANCH   1  19
ATOM     19  C   UNL     1      44.226   5.267  11.048  0.00  0.00    +0.000 C 
BRANCH  19  20
ATOM     20  N   UNL     1      44.267   3.804  10.818  0.00  0.00    +0.000 N 
ATOM     21  C   UNL     1      45.019   3.457   9.683  0.00  0.00    +0.000 A 
ATOM     22  C   UNL     1      45.177   2.113   9.317  0.00  0.00    +0.000 A 
ATOM     23  N   UNL     1      45.894   1.688   8.239  0.00  0.00    +0.000 NA
ATOM     24  C   UNL     1      46.482   2.689   7.528  0.00  0.00    +0.000 A 
ATOM     25  C   UNL     1      46.358   4.021   7.885  0.00  0.00    +0.000 A 
ATOM     26  N   UNL     1      45.634   4.424   8.961  0.00  0.00    +0.000 NA
ATOM     27  H   UNL     1      43.335   3.402  10.766  0.00  0.00    +0.000 HD
BRANCH  24  28
ATOM     28  C   UNL     1      47.274   2.328   6.319  0.00  0.00    +0.000 C 
ATOM     29  N   UNL     1      47.217   3.216   5.279  0.00  0.00    +0.000 N 
ATOM     30  O   UNL     1      47.942   1.306   6.259  0.00  0.00    +0.000 OA
ATOM     31  H   UNL     1      46.652   4.055   5.357  0.00  0.00    +0.000 HD
ATOM     32  H   UNL     1      47.736   3.028   4.433  0.00  0.00    +0.000 HD
ENDBRANCH  24  28
ENDBRANCH  19  20
ENDBRANCH   1  19
TORSDOF 6
ENDMDL
MODEL 5
REMARK VINA RESULT:    -7.211      2.963      8.319
REMARK INTER + INTRA:         -10.060
REMARK INTER:                  -9.338
REMARK INTRA:                  -0.723
REMARK UNBOUND:                -0.531
REMARK  Name = 
REMARK  7 active torsions:
REMARK  status: ('A' for Active; 'I' for Inactive)
REMARK    1  A    between atoms: C_1  and  C_2
REMARK    2  A    between atoms: C_2  and  O_3
REMARK    3  A    between atoms: C_5  and  N_6
REMARK    4  A    between atoms: C_9  and  C_10
REMARK    5  A    between atoms: C_10  and  C_13
REMARK    6  A    between atoms: C_13  and  N_14
REMARK    7  A    between atoms: C_18  and  C_19
REMARK                            x       y       z     vdW  Elec       q    Type
REMARK                         _______ _______ _______ _____ _____    ______ ____
ROOT
ATOM      1  C   UNL     1      48.026   8.728  13.859  0.00  0.00    +0.000 C 
ATOM      2  F   UNL     1      48.530   9.924  13.434  0.00  0.00    +0.000 F 
ATOM      3  F   UNL     1      47.617   8.956  15.149  0.00  0.00    +0.000 F 
ENDROOT
BRANCH   1   7
ATOM      4  N   UNL     1      45.682   5.164  11.408  0.00  0.00    +0.000 N 
ATOM      5  C   UNL     1      45.716   6.524  11.790  0.00  0.00    +0.000 A 
ATOM      6  C   UNL     1      46.739   6.945  12.638  0.00  0.00    +0.000 A 
ATOM      7  C   UNL     1      46.853   8.298  12.990  0.00  0.00    +0.000 A 
ATOM      8  C   UNL     1      45.878   9.173  12.501  0.00  0.00    +0.000 A 
ATOM      9  C   UNL     1      44.882   8.672  11.682  0.00  0.00    +0.000 A 
ATOM     10  N   UNL     1      44.797   7.380  11.307  0.00  0.00    +0.000 NA
ATOM     11  H   UNL     1      45.480   4.612  12.237  0.00  0.00    +0.000 HD
BRANCH   4  15
ATOM     12  C   UNL     1      46.264   2.542   7.905  0.00  0.00    +0.000 C 
ATOM     13  C   UNL     1      45.232   3.446   8.561  0.00  0.00    +0.000 C 
ATOM     14  C   UNL     1      45.764   4.846   8.959  0.00  0.00    +0.000 C 
ATOM     15  C   UNL     1      44.937   4.724  10.262  0.00  0.00    +0.000 C 
ATOM     16  C   UNL     1      44.997   3.191  10.077  0.00  0.00    +0.000 C 
BRANCH  13  17
ATOM     17  O   UNL     1      44.030   3.448   7.757  0.00  0.00    +0.000 OA
ATOM     18  H   UNL     1      43.872   4.383   7.538  0.00  0.00    +0.000 HD
ENDBRANCH  13  17
ENDBRANCH   4  15
ENDBRANCH   1   7
BRANCH   1  19
ATOM     19  C   UNL     1      49.186   7.700  13.929  0.00  0.00    +0.000 C 
BRANCH  19  20
ATOM     20  N   UNL     1      49.796   7.538  15.269  0.00  0.00    +0.000 N 
ATOM     21  C   UNL     1      49.260   6.450  15.978  0.00  0.00    +0.000 A 
ATOM     22  C   UNL     1      49.726   6.136  17.262  0.00  0.00    +0.000 A 
ATOM     23  N   UNL     1      49.268   5.097  18.015  0.00  0.00    +0.000 NA
ATOM     24  C   UNL     1      48.308   4.347  17.408  0.00  0.00    +0.000 A 
ATOM     25  C   UNL     1      47.850   4.624  16.131  0.00  0.00    +0.000 A 
ATOM     26  N   UNL     1      48.316   5.669  15.400  0.00  0.00    +0.000 NA
ATOM     27  H   UNL     1      49.733   8.390  15.821  0.00  0.00    +0.000 HD
BRANCH  24  28
ATOM     28  C   UNL     1      47.730   3.196  18.157  0.00  0.00    +0.000 C 
ATOM     29  N   UNL     1      48.292   2.932  19.377  0.00  0.00    +0.000 N 
ATOM     30  O   UNL     1      46.805   2.529  17.715  0.00  0.00    +0.000 OA
ATOM     31  H   UNL     1      49.061   3.501  19.716  0.00  0.00    +0.000 HD
ATOM     32  H   UNL     1      47.940   2.166  19.933  0.00  0.00    +0.000 HD
ENDBRANCH  24  28
ENDBRANCH  19  20
ENDBRANCH   1  19
TORSDOF 6
ENDMDL
MODEL 6
REMARK VINA RESULT:    -7.019      3.552      8.452
REMARK INTER + INTRA:          -9.807
REMARK INTER:                  -9.234
REMARK INTRA:                  -0.572
REMARK UNBOUND:                -0.531
REMARK  Name = 
REMARK  7 active torsions:
REMARK  status: ('A' for Active; 'I' for Inactive)
REMARK    1  A    between atoms: C_1  and  C_2
REMARK    2  A    between atoms: C_2  and  O_3
REMARK    3  A    between atoms: C_5  and  N_6
REMARK    4  A    between atoms: C_9  and  C_10
REMARK    5  A    between atoms: C_10  and  C_13
REMARK    6  A    between atoms: C_13  and  N_14
REMARK    7  A    between atoms: C_18  and  C_19
REMARK                            x       y       z     vdW  Elec       q    Type
REMARK                         _______ _______ _______ _____ _____    ______ ____
ROOT
ATOM      1  C   UNL     1      49.080   7.792  14.851  0.00  0.00    +0.000 C 
ATOM      2  F   UNL     1      50.039   7.014  14.267  0.00  0.00    +0.000 F 
ATOM      3  F   UNL     1      49.605   9.061  14.847  0.00  0.00    +0.000 F 
ENDROOT
BRANCH   1   7
ATOM      4  N   UNL     1      45.902   5.198  12.135  0.00  0.00    +0.000 N 
ATOM      5  C   UNL     1      46.235   6.441  12.718  0.00  0.00    +0.000 A 
ATOM      6  C   UNL     1      47.379   6.514  13.509  0.00  0.00    +0.000 A 
ATOM      7  C   UNL     1      47.785   7.742  14.053  0.00  0.00    +0.000 A 
ATOM      8  C   UNL     1      46.972   8.853  13.810  0.00  0.00    +0.000 A 
ATOM      9  C   UNL     1      45.839   8.692  13.031  0.00  0.00    +0.000 A 
ATOM     10  N   UNL     1      45.472   7.522  12.471  0.00  0.00    +0.000 NA
ATOM     11  H   UNL     1      45.655   4.558  12.885  0.00  0.00    +0.000 HD
BRANCH   4  15
ATOM     12  C   UNL     1      45.727   3.206   8.200  0.00  0.00    +0.000 C 
ATOM     13  C   UNL     1      44.930   4.132   9.105  0.00  0.00    +0.000 C 
ATOM     14  C   UNL     1      45.738   5.327   9.674  0.00  0.00    +0.000 C 
ATOM     15  C   UNL     1      45.004   5.107  11.019  0.00  0.00    +0.000 C 
ATOM     16  C   UNL     1      44.769   3.645  10.574  0.00  0.00    +0.000 C 
BRANCH  13  17
ATOM     17  O   UNL     1      43.691   4.483   8.447  0.00  0.00    +0.000 OA
ATOM     18  H   UNL     1      43.845   4.304   7.503  0.00  0.00    +0.000 HD
ENDBRANCH  13  17
ENDBRANCH   4  15
ENDBRANCH   1   7
BRANCH   1  19
ATOM     19  C   UNL     1      48.937   7.369  16.337  0.00  0.00    +0.000 C 
BRANCH  19  20
ATOM     20  N   UNL     1      48.284   6.057  16.551  0.00  0.00    +0.000 N 
ATOM     21  C   UNL     1      49.202   5.042  16.872  0.00  0.00    +0.000 A 
ATOM     22  C   UNL     1      48.761   3.735  17.121  0.00  0.00    +0.000 A 
ATOM     23  N   UNL     1      49.580   2.695  17.445  0.00  0.00    +0.000 NA
ATOM     24  C   UNL     1      50.898   3.027  17.531  0.00  0.00    +0.000 A 
ATOM     25  C   UNL     1      51.352   4.316  17.312  0.00  0.00    +0.000 A 
ATOM     26  N   UNL     1      50.519   5.338  16.985  0.00  0.00    +0.000 NA
ATOM     27  H   UNL     1      47.711   5.783  15.757  0.00  0.00    +0.000 HD
BRANCH  24  28
ATOM     28  C   UNL     1      51.877   1.955  17.862  0.00  0.00    +0.000 C 
ATOM     29  N   UNL     1      51.401   0.673  17.815  0.00  0.00    +0.000 N 
ATOM     30  O   UNL     1      53.040   2.200  18.153  0.00  0.00    +0.000 OA
ATOM     31  H   UNL     1      50.430   0.499  17.573  0.00  0.00    +0.000 HD
ATOM     32  H   UNL     1      52.019  -0.098  18.026  0.00  0.00    +0.000 HD
ENDBRANCH  24  28
ENDBRANCH  19  20
ENDBRANCH   1  19
TORSDOF 6
ENDMDL
MODEL 7
REMARK VINA RESULT:    -6.897      4.931      7.008
REMARK INTER + INTRA:          -9.645
REMARK INTER:                  -9.047
REMARK INTRA:                  -0.599
REMARK UNBOUND:                -0.531
REMARK  Name = 
REMARK  7 active torsions:
REMARK  status: ('A' for Active; 'I' for Inactive)
REMARK    1  A    between atoms: C_1  and  C_2
REMARK    2  A    between atoms: C_2  and  O_3
REMARK    3  A    between atoms: C_5  and  N_6
REMARK    4  A    between atoms: C_9  and  C_10
REMARK    5  A    between atoms: C_10  and  C_13
REMARK    6  A    between atoms: C_13  and  N_14
REMARK    7  A    between atoms: C_18  and  C_19
REMARK                            x       y       z     vdW  Elec       q    Type
REMARK                         _______ _______ _______ _____ _____    ______ ____
ROOT
ATOM      1  C   UNL     1      47.738   3.460  17.103  0.00  0.00    +0.000 C 
ATOM      2  F   UNL     1      47.125   2.371  17.655  0.00  0.00    +0.000 F 
ATOM      3  F   UNL     1      47.151   4.542  17.712  0.00  0.00    +0.000 F 
ENDROOT
BRANCH   1   7
ATOM      4  N   UNL     1      51.961   0.937  17.199  0.00  0.00    +0.000 N 
ATOM      5  C   UNL     1      51.302   2.168  17.417  0.00  0.00    +0.000 A 
ATOM      6  C   UNL     1      49.945   2.253  17.116  0.00  0.00    +0.000 A 
ATOM      7  C   UNL     1      49.235   3.433  17.379  0.00  0.00    +0.000 A 
ATOM      8  C   UNL     1      49.955   4.514  17.897  0.00  0.00    +0.000 A 
ATOM      9  C   UNL     1      51.307   4.356  18.148  0.00  0.00    +0.000 A 
ATOM     10  N   UNL     1      51.980   3.208  17.937  0.00  0.00    +0.000 NA
ATOM     11  H   UNL     1      51.978   0.765  16.197  0.00  0.00    +0.000 HD
BRANCH   4  15
ATOM     12  C   UNL     1      54.787  -2.444  17.456  0.00  0.00    +0.000 C 
ATOM     13  C   UNL     1      54.583  -1.019  17.946  0.00  0.00    +0.000 C 
ATOM     14  C   UNL     1      53.180  -0.739  18.543  0.00  0.00    +0.000 C 
ATOM     15  C   UNL     1      53.215   0.633  17.828  0.00  0.00    +0.000 C 
ATOM     16  C   UNL     1      54.232   0.018  16.841  0.00  0.00    +0.000 C 
BRANCH  13  17
ATOM     17  O   UNL     1      55.697  -0.647  18.789  0.00  0.00    +0.000 OA
ATOM     18  H   UNL     1      55.825  -1.402  19.390  0.00  0.00    +0.000 HD
ENDBRANCH  13  17
ENDBRANCH   4  15
ENDBRANCH   1   7
BRANCH   1  19
ATOM     19  C   UNL     1      47.362   3.529  15.600  0.00  0.00    +0.000 C 
BRANCH  19  20
ATOM     20  N   UNL     1      47.372   4.891  15.016  0.00  0.00    +0.000 N 
ATOM     21  C   UNL     1      46.381   5.066  14.036  0.00  0.00    +0.000 A 
ATOM     22  C   UNL     1      46.235   6.297  13.382  0.00  0.00    +0.000 A 
ATOM     23  N   UNL     1      45.297   6.555  12.427  0.00  0.00    +0.000 NA
ATOM     24  C   UNL     1      44.474   5.506  12.154  0.00  0.00    +0.000 A 
ATOM     25  C   UNL     1      44.586   4.289  12.804  0.00  0.00    +0.000 A 
ATOM     26  N   UNL     1      45.531   4.051  13.750  0.00  0.00    +0.000 NA
ATOM     27  H   UNL     1      48.287   5.140  14.648  0.00  0.00    +0.000 HD
BRANCH  24  28
ATOM     28  C   UNL     1      43.426   5.682  11.110  0.00  0.00    +0.000 C 
ATOM     29  N   UNL     1      42.656   6.809  11.218  0.00  0.00    +0.000 N 
ATOM     30  O   UNL     1      43.264   4.874  10.206  0.00  0.00    +0.000 OA
ATOM     31  H   UNL     1      42.812   7.460  11.981  0.00  0.00    +0.000 HD
ATOM     32  H   UNL     1      41.931   6.985  10.537  0.00  0.00    +0.000 HD
ENDBRANCH  24  28
ENDBRANCH  19  20
ENDBRANCH   1  19
TORSDOF 6
ENDMDL
MODEL 8
REMARK VINA RESULT:    -6.650      4.951      7.595
REMARK INTER + INTRA:          -9.320
REMARK INTER:                  -8.355
REMARK INTRA:                  -0.965
REMARK UNBOUND:                -0.531
REMARK  Name = 
REMARK  7 active torsions:
REMARK  status: ('A' for Active; 'I' for Inactive)
REMARK    1  A    between atoms: C_1  and  C_2
REMARK    2  A    between atoms: C_2  and  O_3
REMARK    3  A    between atoms: C_5  and  N_6
REMARK    4  A    between atoms: C_9  and  C_10
REMARK    5  A    between atoms: C_10  and  C_13
REMARK    6  A    between atoms: C_13  and  N_14
REMARK    7  A    between atoms: C_18  and  C_19
REMARK                            x       y       z     vdW  Elec       q    Type
REMARK                         _______ _______ _______ _____ _____    ______ ____
ROOT
ATOM      1  C   UNL     1      48.469   8.688  13.476  0.00  0.00    +0.000 C 
ATOM      2  F   UNL     1      49.676   9.251  13.780  0.00  0.00    +0.000 F 
ATOM      3  F   UNL     1      47.880   8.441  14.691  0.00  0.00    +0.000 F 
ENDROOT
BRANCH   1   7
ATOM      4  N   UNL     1      44.013  10.319  12.178  0.00  0.00    +0.000 N 
ATOM      5  C   UNL     1      45.413  10.430  12.027  0.00  0.00    +0.000 A 
ATOM      6  C   UNL     1      46.227   9.617  12.812  0.00  0.00    +0.000 A 
ATOM      7  C   UNL     1      47.620   9.644  12.650  0.00  0.00    +0.000 A 
ATOM      8  C   UNL     1      48.141  10.547  11.717  0.00  0.00    +0.000 A 
ATOM      9  C   UNL     1      47.265  11.335  10.992  0.00  0.00    +0.000 A 
ATOM     10  N   UNL     1      45.924  11.279  11.116  0.00  0.00    +0.000 NA
ATOM     11  H   UNL     1      43.771  10.651  13.108  0.00  0.00    +0.000 HD
BRANCH   4  15
ATOM     12  C   UNL     1      39.685  10.210  11.312  0.00  0.00    +0.000 C 
ATOM     13  C   UNL     1      41.000  10.740  10.761  0.00  0.00    +0.000 C 
ATOM     14  C   UNL     1      42.140   9.692  10.695  0.00  0.00    +0.000 C 
ATOM     15  C   UNL     1      43.108  10.800  11.172  0.00  0.00    +0.000 C 
ATOM     16  C   UNL     1      41.881  11.516  11.782  0.00  0.00    +0.000 C 
BRANCH  13  17
ATOM     17  O   UNL     1      40.741  11.450   9.528  0.00  0.00    +0.000 OA
ATOM     18  H   UNL     1      41.615  11.743   9.215  0.00  0.00    +0.000 HD
ENDBRANCH  13  17
ENDBRANCH   4  15
ENDBRANCH   1   7
BRANCH   1  19
ATOM     19  C   UNL     1      48.721   7.310  12.809  0.00  0.00    +0.000 C 
BRANCH  19  20
ATOM     20  N   UNL     1      48.296   6.141  13.614  0.00  0.00    +0.000 N 
ATOM     21  C   UNL     1      47.115   5.552  13.130  0.00  0.00    +0.000 A 
ATOM     22  C   UNL     1      46.570   4.425  13.761  0.00  0.00    +0.000 A 
ATOM     23  N   UNL     1      45.436   3.789  13.354  0.00  0.00    +0.000 NA
ATOM     24  C   UNL     1      44.858   4.329  12.246  0.00  0.00    +0.000 A 
ATOM     25  C   UNL     1      45.392   5.427  11.594  0.00  0.00    +0.000 A 
ATOM     26  N   UNL     1      46.522   6.050  12.019  0.00  0.00    +0.000 NA
ATOM     27  H   UNL     1      48.202   6.372  14.600  0.00  0.00    +0.000 HD
BRANCH  24  28
ATOM     28  C   UNL     1      43.602   3.715  11.732  0.00  0.00    +0.000 C 
ATOM     29  N   UNL     1      43.624   2.357  11.564  0.00  0.00    +0.000 N 
ATOM     30  O   UNL     1      42.606   4.380  11.481  0.00  0.00    +0.000 OA
ATOM     31  H   UNL     1      44.467   1.832  11.777  0.00  0.00    +0.000 HD
ATOM     32  H   UNL     1      42.801   1.882  11.221  0.00  0.00    +0.000 HD
ENDBRANCH  24  28
ENDBRANCH  19  20
ENDBRANCH   1  19
TORSDOF 6
ENDMDL
MODEL 9
REMARK VINA RESULT:    -6.591      3.734      8.373
REMARK INTER + INTRA:          -9.241
REMARK INTER:                  -8.557
REMARK INTRA:                  -0.685
REMARK UNBOUND:                -0.531
REMARK  Name = 
REMARK  7 active torsions:
REMARK  status: ('A' for Active; 'I' for Inactive)
REMARK    1  A    between atoms: C_1  and  C_2
REMARK    2  A    between atoms: C_2  and  O_3
REMARK    3  A    between atoms: C_5  and  N_6
REMARK    4  A    between atoms: C_9  and  C_10
REMARK    5  A    between atoms: C_10  and  C_13
REMARK    6  A    between atoms: C_13  and  N_14
REMARK    7  A    between atoms: C_18  and  C_19
REMARK                            x       y       z     vdW  Elec       q    Type
REMARK                         _______ _______ _______ _____ _____    ______ ____
ROOT
ATOM      1  C   UNL     1      49.955   8.485  12.267  0.00  0.00    +0.000 C 
ATOM      2  F   UNL     1      50.528   7.731  11.282  0.00  0.00    +0.000 F 
ATOM      3  F   UNL     1      50.148   9.786  11.873  0.00  0.00    +0.000 F 
ENDROOT
BRANCH   1   7
ATOM      4  N   UNL     1      46.374   5.140  12.707  0.00  0.00    +0.000 N 
ATOM      5  C   UNL     1      46.725   6.505  12.607  0.00  0.00    +0.000 A 
ATOM      6  C   UNL     1      48.076   6.837  12.557  0.00  0.00    +0.000 A 
ATOM      7  C   UNL     1      48.470   8.173  12.389  0.00  0.00    +0.000 A 
ATOM      8  C   UNL     1      47.461   9.138  12.330  0.00  0.00    +0.000 A 
ATOM      9  C   UNL     1      46.141   8.728  12.408  0.00  0.00    +0.000 A 
ATOM     10  N   UNL     1      45.760   7.441  12.525  0.00  0.00    +0.000 NA
ATOM     11  H   UNL     1      46.685   4.804  13.615  0.00  0.00    +0.000 HD
BRANCH   4  15
ATOM     12  C   UNL     1      44.469   2.504   9.723  0.00  0.00    +0.000 C 
ATOM     13  C   UNL     1      44.142   3.390  10.915  0.00  0.00    +0.000 C 
ATOM     14  C   UNL     1      44.772   4.805  10.857  0.00  0.00    +0.000 C 
ATOM     15  C   UNL     1      45.058   4.675  12.373  0.00  0.00    +0.000 C 
ATOM     16  C   UNL     1      45.009   3.142  12.182  0.00  0.00    +0.000 C 
BRANCH  13  17
ATOM     17  O   UNL     1      42.714   3.360  11.146  0.00  0.00    +0.000 OA
ATOM     18  H   UNL     1      42.437   2.459  10.906  0.00  0.00    +0.000 HD
ENDBRANCH  13  17
ENDBRANCH   4  15
ENDBRANCH   1   7
BRANCH   1  19
ATOM     19  C   UNL     1      50.764   8.286  13.576  0.00  0.00    +0.000 C 
BRANCH  19  20
ATOM     20  N   UNL     1      50.195   8.954  14.769  0.00  0.00    +0.000 N 
ATOM     21  C   UNL     1      49.643   8.043  15.686  0.00  0.00    +0.000 A 
ATOM     22  C   UNL     1      49.069   8.496  16.882  0.00  0.00    +0.000 A 
ATOM     23  N   UNL     1      48.519   7.683  17.828  0.00  0.00    +0.000 NA
ATOM     24  C   UNL     1      48.585   6.356  17.531  0.00  0.00    +0.000 A 
ATOM     25  C   UNL     1      49.169   5.885  16.367  0.00  0.00    +0.000 A 
ATOM     26  N   UNL     1      49.706   6.714  15.435  0.00  0.00    +0.000 NA
ATOM     27  H   UNL     1      49.513   9.665  14.517  0.00  0.00    +0.000 HD
BRANCH  24  28
ATOM     28  C   UNL     1      47.996   5.385  18.495  0.00  0.00    +0.000 C 
ATOM     29  N   UNL     1      46.672   5.565  18.793  0.00  0.00    +0.000 N 
ATOM     30  O   UNL     1      48.649   4.476  18.988  0.00  0.00    +0.000 OA
ATOM     31  H   UNL     1      46.156   6.331  18.371  0.00  0.00    +0.000 HD
ATOM     32  H   UNL     1      46.215   4.937  19.438  0.00  0.00    +0.000 HD
ENDBRANCH  24  28
ENDBRANCH  19  20
ENDBRANCH   1  19
TORSDOF 6
ENDMDL
