MODEL 1
REMARK VINA RESULT:    -8.406      0.000      0.000
REMARK INTER + INTRA:         -11.737
REMARK INTER:                 -10.863
REMARK INTRA:                  -0.873
REMARK UNBOUND:                -0.873
REMARK  Name = 
REMARK  5 active torsions:
REMARK  status: ('A' for Active; 'I' for Inactive)
REMARK    1  A    between atoms: C_2  and  C_4
REMARK    2  A    between atoms: C_7  and  O_8
REMARK    3  A    between atoms: O_8  and  C_9
REMARK    4  A    between atoms: C_9  and  C_10
REMARK    5  A    between atoms: C_15  and  C_16
REMARK                            x       y       z     vdW  Elec       q    Type
REMARK                         _______ _______ _______ _____ _____    ______ ____
ROOT
ATOM      1  C   UNL     1      43.861   4.986  11.348  0.00  0.00    +0.000 C 
ATOM      2  C   UNL     1      42.514   5.325  11.977  0.00  0.00    +0.000 C 
ATOM      3  C   UNL     1      42.999   6.101  10.798  0.00  0.00    +0.000 C 
ENDROOT
BRANCH   1   4
ATOM      4  C   UNL     1      45.120   5.299  12.148  0.00  0.00    +0.000 A 
ATOM      5  C   UNL     1      45.501   4.478  13.220  0.00  0.00    +0.000 A 
ATOM      6  C   UNL     1      46.673   4.721  13.931  0.00  0.00    +0.000 A 
ATOM      7  C   UNL     1      47.486   5.796  13.582  0.00  0.00    +0.000 A 
ATOM      8  F   UNL     1      48.600   5.985  14.306  0.00  0.00    +0.000 F 
ATOM      9  C   UNL     1      47.169   6.658  12.519  0.00  0.00    +0.000 A 
ATOM     10  C   UNL     1      45.973   6.380  11.820  0.00  0.00    +0.000 A 
BRANCH   9  11
ATOM     11  C   UNL     1      48.055   7.784  12.135  0.00  0.00    +0.000 A 
ATOM     12  C   UNL     1      47.582   9.105  12.098  0.00  0.00    +0.000 A 
ATOM     13  C   UNL     1      48.430  10.132  11.709  0.00  0.00    +0.000 A 
ATOM     14  N   UNL     1      49.720   9.951  11.369  0.00  0.00    +0.000 NA
ATOM     15  C   UNL     1      50.174   8.684  11.419  0.00  0.00    +0.000 A 
ATOM     16  C   UNL     1      49.399   7.592  11.785  0.00  0.00    +0.000 A 
ENDBRANCH   9  11
ENDBRANCH   1   4
BRANCH   1  17
ATOM     17  O   UNL     1      43.790   3.686  10.715  0.00  0.00    +0.000 OA
BRANCH  17  21
ATOM     18  C   UNL     1      46.377   2.736   7.661  0.00  0.00    +0.000 A 
ATOM     19  C   UNL     1      45.836   1.728   8.457  0.00  0.00    +0.000 A 
ATOM     20  C   UNL     1      44.969   2.081   9.489  0.00  0.00    +0.000 A 
ATOM     21  C   UNL     1      44.672   3.424   9.685  0.00  0.00    +0.000 A 
ATOM     22  N   UNL     1      45.173   4.424   8.931  0.00  0.00    +0.000 NA
ATOM     23  C   UNL     1      46.033   4.055   7.943  0.00  0.00    +0.000 A 
BRANCH  18  25
ATOM     24  N   UNL     1      47.184   3.202   5.411  0.00  0.00    +0.000 N 
ATOM     25  C   UNL     1      47.318   2.460   6.554  0.00  0.00    +0.000 C 
ATOM     26  O   UNL     1      48.203   1.622   6.664  0.00  0.00    +0.000 OA
ATOM     27  H   UNL     1      47.893   3.062   4.702  0.00  0.00    +0.000 HD
ATOM     28  H   UNL     1      46.646   4.053   5.369  0.00  0.00    +0.000 HD
ENDBRANCH  18  25
ENDBRANCH  17  21
ENDBRANCH   1  17
TORSDOF 5
ENDMDL
MODEL 2
REMARK VINA RESULT:    -8.242      2.172      3.499
REMARK INTER + INTRA:         -11.524
REMARK INTER:                 -11.064
REMARK INTRA:                  -0.461
REMARK UNBOUND:                -0.873
REMARK  Name = 
REMARK  5 active torsions:
REMARK  status: ('A' for Active; 'I' for Inactive)
REMARK    1  A    between atoms: C_2  and  C_4
REMARK    2  A    between atoms: C_7  and  O_8
REMARK    3  A    between atoms: O_8  and  C_9
REMARK    4  A    between atoms: C_9  and  C_10
REMARK    5  A    between atoms: C_15  and  C_16
REMARK                            x       y       z     vdW  Elec       q    Type
REMARK                         _______ _______ _______ _____ _____    ______ ____
ROOT
ATOM      1  C   UNL     1      44.016   4.962  11.396  0.00  0.00    +0.000 C 
ATOM      2  C   UNL     1      42.782   5.195  12.260  0.00  0.00    +0.000 C 
ATOM      3  C   UNL     1      42.986   6.007  11.025  0.00  0.00    +0.000 C 
ENDROOT
BRANCH   1   4
ATOM      4  C   UNL     1      45.370   5.372  11.962  0.00  0.00    +0.000 A 
ATOM      5  C   UNL     1      46.161   6.318  11.293  0.00  0.00    +0.000 A 
ATOM      6  C   UNL     1      47.378   6.740  11.821  0.00  0.00    +0.000 A 
ATOM      7  C   UNL     1      47.828   6.218  13.030  0.00  0.00    +0.000 A 
ATOM      8  F   UNL     1      49.012   6.656  13.487  0.00  0.00    +0.000 F 
ATOM      9  C   UNL     1      47.088   5.270  13.756  0.00  0.00    +0.000 A 
ATOM     10  C   UNL     1      45.859   4.866  13.191  0.00  0.00    +0.000 A 
BRANCH   9  11
ATOM     11  C   UNL     1      47.561   4.740  15.059  0.00  0.00    +0.000 A 
ATOM     12  C   UNL     1      47.548   3.363  15.334  0.00  0.00    +0.000 A 
ATOM     13  C   UNL     1      47.973   2.903  16.572  0.00  0.00    +0.000 A 
ATOM     14  N   UNL     1      48.427   3.704  17.555  0.00  0.00    +0.000 NA
ATOM     15  C   UNL     1      48.451   5.023  17.282  0.00  0.00    +0.000 A 
ATOM     16  C   UNL     1      48.036   5.577  16.078  0.00  0.00    +0.000 A 
ENDBRANCH   9  11
ENDBRANCH   1   4
BRANCH   1  17
ATOM     17  O   UNL     1      43.932   3.661  10.767  0.00  0.00    +0.000 OA
BRANCH  17  21
ATOM     18  C   UNL     1      46.396   2.737   7.605  0.00  0.00    +0.000 A 
ATOM     19  C   UNL     1      45.945   1.730   8.456  0.00  0.00    +0.000 A 
ATOM     20  C   UNL     1      45.117   2.074   9.523  0.00  0.00    +0.000 A 
ATOM     21  C   UNL     1      44.770   3.408   9.699  0.00  0.00    +0.000 A 
ATOM     22  N   UNL     1      45.183   4.407   8.892  0.00  0.00    +0.000 NA
ATOM     23  C   UNL     1      46.007   4.047   7.869  0.00  0.00    +0.000 A 
BRANCH  18  25
ATOM     24  N   UNL     1      47.099   3.215   5.324  0.00  0.00    +0.000 N 
ATOM     25  C   UNL     1      47.289   2.471   6.457  0.00  0.00    +0.000 C 
ATOM     26  O   UNL     1      48.184   1.639   6.525  0.00  0.00    +0.000 OA
ATOM     27  H   UNL     1      47.778   3.082   4.584  0.00  0.00    +0.000 HD
ATOM     28  H   UNL     1      46.554   4.062   5.308  0.00  0.00    +0.000 HD
ENDBRANCH  18  25
ENDBRANCH  17  21
ENDBRANCH   1  17
TORSDOF 5
ENDMDL
MODEL 3
REMARK VINA RESULT:    -7.214      3.563      7.317
REMARK INTER + INTRA:         -10.196
REMARK INTER:                  -9.449
REMARK INTRA:                  -0.747
REMARK UNBOUND:                -0.873
REMARK  Name = 
REMARK  5 active torsions:
REMARK  status: ('A' for Active; 'I' for Inactive)
REMARK    1  A    between atoms: C_2  and  C_4
REMARK    2  A    between atoms: C_7  and  O_8
REMARK    3  A    between atoms: O_8  and  C_9
REMARK    4  A    between atoms: C_9  and  C_10
REMARK    5  A    between atoms: C_15  and  C_16
REMARK                            x       y       z     vdW  Elec       q    Type
REMARK                         _______ _______ _______ _____ _____    ______ ____
ROOT
ATOM      1  C   UNL     1      45.543   6.096  11.920  0.00  0.00    +0.000 C 
ATOM      2  C   UNL     1      45.042   7.413  11.338  0.00  0.00    +0.000 C 
ATOM      3  C   UNL     1      44.535   6.946  12.661  0.00  0.00    +0.000 C 
ENDROOT
BRANCH   1   4
ATOM      4  C   UNL     1      45.115   4.806  11.232  0.00  0.00    +0.000 A 
ATOM      5  C   UNL     1      44.022   4.072  11.718  0.00  0.00    +0.000 A 
ATOM      6  C   UNL     1      43.587   2.917  11.074  0.00  0.00    +0.000 A 
ATOM      7  C   UNL     1      44.242   2.473   9.929  0.00  0.00    +0.000 A 
ATOM      8  F   UNL     1      43.783   1.350   9.354  0.00  0.00    +0.000 F 
ATOM      9  C   UNL     1      45.341   3.158   9.384  0.00  0.00    +0.000 A 
ATOM     10  C   UNL     1      45.754   4.325  10.064  0.00  0.00    +0.000 A 
BRANCH   9  11
ATOM     11  C   UNL     1      46.016   2.693   8.147  0.00  0.00    +0.000 A 
ATOM     12  C   UNL     1      46.515   1.386   8.035  0.00  0.00    +0.000 A 
ATOM     13  C   UNL     1      47.165   0.992   6.874  0.00  0.00    +0.000 A 
ATOM     14  N   UNL     1      47.344   1.793   5.806  0.00  0.00    +0.000 NA
ATOM     15  C   UNL     1      46.851   3.042   5.912  0.00  0.00    +0.000 A 
ATOM     16  C   UNL     1      46.197   3.529   7.036  0.00  0.00    +0.000 A 
ENDBRANCH   9  11
ENDBRANCH   1   4
BRANCH   1  17
ATOM     17  O   UNL     1      46.941   6.220  12.275  0.00  0.00    +0.000 OA
BRANCH  17  21
ATOM     18  C   UNL     1      47.981   5.038  16.076  0.00  0.00    +0.000 A 
ATOM     19  C   UNL     1      47.171   4.222  15.288  0.00  0.00    +0.000 A 
ATOM     20  C   UNL     1      46.830   4.652  14.008  0.00  0.00    +0.000 A 
ATOM     21  C   UNL     1      47.310   5.877  13.562  0.00  0.00    +0.000 A 
ATOM     22  N   UNL     1      48.099   6.689  14.295  0.00  0.00    +0.000 NA
ATOM     23  C   UNL     1      48.402   6.255  15.549  0.00  0.00    +0.000 A 
BRANCH  18  25
ATOM     24  N   UNL     1      47.387   4.398  18.349  0.00  0.00    +0.000 N 
ATOM     25  C   UNL     1      48.383   4.674  17.452  0.00  0.00    +0.000 C 
ATOM     26  O   UNL     1      49.562   4.593  17.771  0.00  0.00    +0.000 OA
ATOM     27  H   UNL     1      47.684   4.062  19.257  0.00  0.00    +0.000 HD
ATOM     28  H   UNL     1      46.436   4.211  18.073  0.00  0.00    +0.000 HD
ENDBRANCH  18  25
ENDBRANCH  17  21
ENDBRANCH   1  17
TORSDOF 5
ENDMDL
MODEL 4
REMARK VINA RESULT:    -7.150      3.734      7.321
REMARK INTER + INTRA:         -10.113
REMARK INTER:                  -9.279
REMARK INTRA:                  -0.834
REMARK UNBOUND:                -0.873
REMARK  Name = 
REMARK  5 active torsions:
REMARK  status: ('A' for Active; 'I' for Inactive)
REMARK    1  A    between atoms: C_2  and  C_4
REMARK    2  A    between atoms: C_7  and  O_8
REMARK    3  A    between atoms: O_8  and  C_9
REMARK    4  A    between atoms: C_9  and  C_10
REMARK    5  A    between atoms: C_15  and  C_16
REMARK                            x       y       z     vdW  Elec       q    Type
REMARK                         _______ _______ _______ _____ _____    ______ ____
ROOT
ATOM      1  C   UNL     1      46.812   7.493  12.828  0.00  0.00    +0.000 C 
ATOM      2  C   UNL     1      47.111   8.795  12.094  0.00  0.00    +0.000 C 
ATOM      3  C   UNL     1      46.408   8.829  13.410  0.00  0.00    +0.000 C 
ENDROOT
BRANCH   1   4
ATOM      4  C   UNL     1      45.769   6.559  12.226  0.00  0.00    +0.000 A 
ATOM      5  C   UNL     1      44.444   6.586  12.686  0.00  0.00    +0.000 A 
ATOM      6  C   UNL     1      43.467   5.776  12.115  0.00  0.00    +0.000 A 
ATOM      7  C   UNL     1      43.801   4.917  11.071  0.00  0.00    +0.000 A 
ATOM      8  F   UNL     1      42.821   4.155  10.564  0.00  0.00    +0.000 F 
ATOM      9  C   UNL     1      45.107   4.839  10.558  0.00  0.00    +0.000 A 
ATOM     10  C   UNL     1      46.071   5.677  11.161  0.00  0.00    +0.000 A 
BRANCH   9  11
ATOM     11  C   UNL     1      45.449   3.943   9.426  0.00  0.00    +0.000 A 
ATOM     12  C   UNL     1      45.336   2.549   9.540  0.00  0.00    +0.000 A 
ATOM     13  C   UNL     1      45.690   1.738   8.471  0.00  0.00    +0.000 A 
ATOM     14  N   UNL     1      46.132   2.206   7.288  0.00  0.00    +0.000 NA
ATOM     15  C   UNL     1      46.225   3.545   7.178  0.00  0.00    +0.000 A 
ATOM     16  C   UNL     1      45.905   4.435   8.195  0.00  0.00    +0.000 A 
ENDBRANCH   9  11
ENDBRANCH   1   4
BRANCH   1  17
ATOM     17  O   UNL     1      48.050   6.893  13.279  0.00  0.00    +0.000 OA
BRANCH  17  21
ATOM     18  C   UNL     1      47.960   4.574  16.676  0.00  0.00    +0.000 A 
ATOM     19  C   UNL     1      48.625   5.799  16.684  0.00  0.00    +0.000 A 
ATOM     20  C   UNL     1      48.644   6.559  15.517  0.00  0.00    +0.000 A 
ATOM     21  C   UNL     1      47.999   6.070  14.388  0.00  0.00    +0.000 A 
ATOM     22  N   UNL     1      47.343   4.892  14.346  0.00  0.00    +0.000 NA
ATOM     23  C   UNL     1      47.355   4.159  15.493  0.00  0.00    +0.000 A 
BRANCH  18  25
ATOM     24  N   UNL     1      46.984   2.673  17.843  0.00  0.00    +0.000 N 
ATOM     25  C   UNL     1      47.898   3.691  17.861  0.00  0.00    +0.000 C 
ATOM     26  O   UNL     1      48.656   3.845  18.810  0.00  0.00    +0.000 OA
ATOM     27  H   UNL     1      47.021   2.026  18.622  0.00  0.00    +0.000 HD
ATOM     28  H   UNL     1      46.525   2.362  17.002  0.00  0.00    +0.000 HD
ENDBRANCH  18  25
ENDBRANCH  17  21
ENDBRANCH   1  17
TORSDOF 5
ENDMDL
MODEL 5
REMARK VINA RESULT:    -6.839      4.042      7.889
REMARK INTER + INTRA:          -9.712
REMARK INTER:                  -8.630
REMARK INTRA:                  -1.082
REMARK UNBOUND:                -0.873
REMARK  Name = 
REMARK  5 active torsions:
REMARK  status: ('A' for Active; 'I' for Inactive)
REMARK    1  A    between atoms: C_2  and  C_4
REMARK    2  A    between atoms: C_7  and  O_8
REMARK    3  A    between atoms: O_8  and  C_9
REMARK    4  A    between atoms: C_9  and  C_10
REMARK    5  A    between atoms: C_15  and  C_16
REMARK                            x       y       z     vdW  Elec       q    Type
REMARK                         _______ _______ _______ _____ _____    ______ ____
ROOT
ATOM      1  C   UNL     1      48.747   7.882  12.973  0.00  0.00    +0.000 C 
ATOM      2  C   UNL     1      49.692   8.584  12.004  0.00  0.00    +0.000 C 
ATOM      3  C   UNL     1      49.243   9.286  13.242  0.00  0.00    +0.000 C 
ENDROOT
BRANCH   1   4
ATOM      4  C   UNL     1      47.313   7.638  12.519  0.00  0.00    +0.000 A 
ATOM      5  C   UNL     1      46.310   8.579  12.800  0.00  0.00    +0.000 A 
ATOM      6  C   UNL     1      45.006   8.396  12.350  0.00  0.00    +0.000 A 
ATOM      7  C   UNL     1      44.679   7.262  11.612  0.00  0.00    +0.000 A 
ATOM      8  F   UNL     1      43.405   7.135  11.211  0.00  0.00    +0.000 F 
ATOM      9  C   UNL     1      45.631   6.280  11.291  0.00  0.00    +0.000 A 
ATOM     10  C   UNL     1      46.944   6.500  11.762  0.00  0.00    +0.000 A 
BRANCH   9  11
ATOM     11  C   UNL     1      45.282   5.088  10.479  0.00  0.00    +0.000 A 
ATOM     12  C   UNL     1      45.624   5.005   9.120  0.00  0.00    +0.000 A 
ATOM     13  C   UNL     1      45.259   3.888   8.383  0.00  0.00    +0.000 A 
ATOM     14  N   UNL     1      44.593   2.836   8.896  0.00  0.00    +0.000 NA
ATOM     15  C   UNL     1      44.279   2.913  10.204  0.00  0.00    +0.000 A 
ATOM     16  C   UNL     1      44.592   3.993  11.018  0.00  0.00    +0.000 A 
ENDBRANCH   9  11
ENDBRANCH   1   4
BRANCH   1  17
ATOM     17  O   UNL     1      49.433   6.777  13.608  0.00  0.00    +0.000 OA
BRANCH  17  21
ATOM     18  C   UNL     1      48.208   5.771  17.404  0.00  0.00    +0.000 A 
ATOM     19  C   UNL     1      49.027   6.881  17.206  0.00  0.00    +0.000 A 
ATOM     20  C   UNL     1      49.432   7.193  15.910  0.00  0.00    +0.000 A 
ATOM     21  C   UNL     1      49.003   6.388  14.862  0.00  0.00    +0.000 A 
ATOM     22  N   UNL     1      48.206   5.310  15.017  0.00  0.00    +0.000 NA
ATOM     23  C   UNL     1      47.841   5.015  16.295  0.00  0.00    +0.000 A 
BRANCH  18  25
ATOM     24  N   UNL     1      47.997   4.065  19.128  0.00  0.00    +0.000 N 
ATOM     25  C   UNL     1      47.740   5.353  18.744  0.00  0.00    +0.000 C 
ATOM     26  O   UNL     1      47.172   6.136  19.494  0.00  0.00    +0.000 OA
ATOM     27  H   UNL     1      47.751   3.825  20.081  0.00  0.00    +0.000 HD
ATOM     28  H   UNL     1      48.664   3.474  18.658  0.00  0.00    +0.000 HD
ENDBRANCH  18  25
ENDBRANCH  17  21
ENDBRANCH   1  17
TORSDOF 5
ENDMDL
MODEL 6
REMARK VINA RESULT:    -6.763      5.693      8.440
REMARK INTER + INTRA:          -9.613
REMARK INTER:                  -9.444
REMARK INTRA:                  -0.169
REMARK UNBOUND:                -0.873
REMARK  Name = 
REMARK  5 active torsions:
REMARK  status: ('A' for Active; 'I' for Inactive)
REMARK    1  A    between atoms: C_2  and  C_4
REMARK    2  A    between atoms: C_7  and  O_8
REMARK    3  A    between atoms: O_8  and  C_9
REMARK    4  A    between atoms: C_9  and  C_10
REMARK    5  A    between atoms: C_15  and  C_16
REMARK                            x       y       z     vdW  Elec       q    Type
REMARK                         _______ _______ _______ _____ _____    ______ ____
ROOT
ATOM      1  C   UNL     1      48.152   4.610  16.858  0.00  0.00    +0.000 C 
ATOM      2  C   UNL     1      47.167   4.804  18.005  0.00  0.00    +0.000 C 
ATOM      3  C   UNL     1      47.394   3.440  17.444  0.00  0.00    +0.000 C 
ENDROOT
BRANCH   1   4
ATOM      4  C   UNL     1      47.776   5.175  15.493  0.00  0.00    +0.000 A 
ATOM      5  C   UNL     1      48.566   6.168  14.895  0.00  0.00    +0.000 A 
ATOM      6  C   UNL     1      48.266   6.660  13.628  0.00  0.00    +0.000 A 
ATOM      7  C   UNL     1      47.163   6.167  12.936  0.00  0.00    +0.000 A 
ATOM      8  F   UNL     1      46.918   6.684  11.722  0.00  0.00    +0.000 F 
ATOM      9  C   UNL     1      46.330   5.171  13.472  0.00  0.00    +0.000 A 
ATOM     10  C   UNL     1      46.665   4.696  14.758  0.00  0.00    +0.000 A 
BRANCH   9  11
ATOM     11  C   UNL     1      45.172   4.631  12.716  0.00  0.00    +0.000 A 
ATOM     12  C   UNL     1      45.236   3.381  12.081  0.00  0.00    +0.000 A 
ATOM     13  C   UNL     1      44.145   2.917  11.360  0.00  0.00    +0.000 A 
ATOM     14  N   UNL     1      42.986   3.592  11.234  0.00  0.00    +0.000 NA
ATOM     15  C   UNL     1      42.925   4.785  11.857  0.00  0.00    +0.000 A 
ATOM     16  C   UNL     1      43.967   5.336  12.591  0.00  0.00    +0.000 A 
ENDBRANCH   9  11
ENDBRANCH   1   4
BRANCH   1  17
ATOM     17  O   UNL     1      49.499   4.860  17.325  0.00  0.00    +0.000 OA
BRANCH  17  21
ATOM     18  C   UNL     1      52.171   1.750  17.662  0.00  0.00    +0.000 A 
ATOM     19  C   UNL     1      52.511   3.016  18.134  0.00  0.00    +0.000 A 
ATOM     20  C   UNL     1      51.588   4.052  18.000  0.00  0.00    +0.000 A 
ATOM     21  C   UNL     1      50.363   3.785  17.402  0.00  0.00    +0.000 A 
ATOM     22  N   UNL     1      50.000   2.571  16.938  0.00  0.00    +0.000 NA
ATOM     23  C   UNL     1      50.927   1.581  17.063  0.00  0.00    +0.000 A 
BRANCH  18  25
ATOM     24  N   UNL     1      52.674  -0.493  18.465  0.00  0.00    +0.000 N 
ATOM     25  C   UNL     1      53.090   0.594  17.745  0.00  0.00    +0.000 C 
ATOM     26  O   UNL     1      54.170   0.596  17.169  0.00  0.00    +0.000 OA
ATOM     27  H   UNL     1      53.276  -1.307  18.433  0.00  0.00    +0.000 HD
ATOM     28  H   UNL     1      51.714  -0.635  18.739  0.00  0.00    +0.000 HD
ENDBRANCH  18  25
ENDBRANCH  17  21
ENDBRANCH   1  17
TORSDOF 5
ENDMDL
MODEL 7
REMARK VINA RESULT:    -6.564      3.636      5.906
REMARK INTER + INTRA:          -9.356
REMARK INTER:                  -8.489
REMARK INTRA:                  -0.867
REMARK UNBOUND:                -0.873
REMARK  Name = 
REMARK  5 active torsions:
REMARK  status: ('A' for Active; 'I' for Inactive)
REMARK    1  A    between atoms: C_2  and  C_4
REMARK    2  A    between atoms: C_7  and  O_8
REMARK    3  A    between atoms: O_8  and  C_9
REMARK    4  A    between atoms: C_9  and  C_10
REMARK    5  A    between atoms: C_15  and  C_16
REMARK                            x       y       z     vdW  Elec       q    Type
REMARK                         _______ _______ _______ _____ _____    ______ ____
ROOT
ATOM      1  C   UNL     1      47.951   8.122  12.572  0.00  0.00    +0.000 C 
ATOM      2  C   UNL     1      48.721   9.162  11.766  0.00  0.00    +0.000 C 
ATOM      3  C   UNL     1      48.986   7.710  11.548  0.00  0.00    +0.000 C 
ENDROOT
BRANCH   1   4
ATOM      4  C   UNL     1      48.247   8.015  14.062  0.00  0.00    +0.000 A 
ATOM      5  C   UNL     1      48.207   9.157  14.877  0.00  0.00    +0.000 A 
ATOM      6  C   UNL     1      48.427   9.069  16.249  0.00  0.00    +0.000 A 
ATOM      7  C   UNL     1      48.694   7.833  16.832  0.00  0.00    +0.000 A 
ATOM      8  F   UNL     1      48.904   7.811  18.157  0.00  0.00    +0.000 F 
ATOM      9  C   UNL     1      48.746   6.649  16.079  0.00  0.00    +0.000 A 
ATOM     10  C   UNL     1      48.518   6.775  14.691  0.00  0.00    +0.000 A 
BRANCH   9  11
ATOM     11  C   UNL     1      49.004   5.331  16.711  0.00  0.00    +0.000 A 
ATOM     12  C   UNL     1      47.993   4.363  16.818  0.00  0.00    +0.000 A 
ATOM     13  C   UNL     1      48.260   3.151  17.439  0.00  0.00    +0.000 A 
ATOM     14  N   UNL     1      49.461   2.819  17.949  0.00  0.00    +0.000 NA
ATOM     15  C   UNL     1      50.432   3.745  17.832  0.00  0.00    +0.000 A 
ATOM     16  C   UNL     1      50.257   4.987  17.238  0.00  0.00    +0.000 A 
ENDBRANCH   9  11
ENDBRANCH   1   4
BRANCH   1  17
ATOM     17  O   UNL     1      46.558   8.133  12.176  0.00  0.00    +0.000 OA
BRANCH  17  21
ATOM     18  C   UNL     1      44.726   4.492  11.617  0.00  0.00    +0.000 A 
ATOM     19  C   UNL     1      45.330   5.142  10.543  0.00  0.00    +0.000 A 
ATOM     20  C   UNL     1      45.937   6.377  10.761  0.00  0.00    +0.000 A 
ATOM     21  C   UNL     1      45.919   6.916  12.041  0.00  0.00    +0.000 A 
ATOM     22  N   UNL     1      45.348   6.312  13.105  0.00  0.00    +0.000 NA
ATOM     23  C   UNL     1      44.745   5.116  12.861  0.00  0.00    +0.000 A 
BRANCH  18  25
ATOM     24  N   UNL     1      43.767   2.495  12.627  0.00  0.00    +0.000 N 
ATOM     25  C   UNL     1      44.044   3.187  11.479  0.00  0.00    +0.000 C 
ATOM     26  O   UNL     1      43.712   2.754  10.384  0.00  0.00    +0.000 OA
ATOM     27  H   UNL     1      43.219   1.650  12.518  0.00  0.00    +0.000 HD
ATOM     28  H   UNL     1      43.794   2.916  13.542  0.00  0.00    +0.000 HD
ENDBRANCH  18  25
ENDBRANCH  17  21
ENDBRANCH   1  17
TORSDOF 5
ENDMDL
MODEL 8
REMARK VINA RESULT:    -6.557      1.945      2.663
REMARK INTER + INTRA:          -9.347
REMARK INTER:                  -8.796
REMARK INTRA:                  -0.551
REMARK UNBOUND:                -0.873
REMARK  Name = 
REMARK  5 active torsions:
REMARK  status: ('A' for Active; 'I' for Inactive)
REMARK    1  A    between atoms: C_2  and  C_4
REMARK    2  A    between atoms: C_7  and  O_8
REMARK    3  A    between atoms: O_8  and  C_9
REMARK    4  A    between atoms: C_9  and  C_10
REMARK    5  A    between atoms: C_15  and  C_16
REMARK                            x       y       z     vdW  Elec       q    Type
REMARK                         _______ _______ _______ _____ _____    ______ ____
ROOT
ATOM      1  C   UNL     1      44.033   5.372  11.831  0.00  0.00    +0.000 C 
ATOM      2  C   UNL     1      42.837   5.219  12.763  0.00  0.00    +0.000 C 
ATOM      3  C   UNL     1      42.618   5.531  11.320  0.00  0.00    +0.000 C 
ENDROOT
BRANCH   1   4
ATOM      4  C   UNL     1      44.932   6.588  12.020  0.00  0.00    +0.000 A 
ATOM      5  C   UNL     1      44.528   7.848  11.553  0.00  0.00    +0.000 A 
ATOM      6  C   UNL     1      45.314   8.978  11.760  0.00  0.00    +0.000 A 
ATOM      7  C   UNL     1      46.525   8.866  12.439  0.00  0.00    +0.000 A 
ATOM      8  F   UNL     1      47.244   9.987  12.603  0.00  0.00    +0.000 F 
ATOM      9  C   UNL     1      46.991   7.638  12.936  0.00  0.00    +0.000 A 
ATOM     10  C   UNL     1      46.168   6.514  12.708  0.00  0.00    +0.000 A 
BRANCH   9  11
ATOM     11  C   UNL     1      48.269   7.532  13.683  0.00  0.00    +0.000 A 
ATOM     12  C   UNL     1      48.328   6.922  14.946  0.00  0.00    +0.000 A 
ATOM     13  C   UNL     1      49.534   6.863  15.629  0.00  0.00    +0.000 A 
ATOM     14  N   UNL     1      50.694   7.349  15.146  0.00  0.00    +0.000 NA
ATOM     15  C   UNL     1      50.636   7.920  13.928  0.00  0.00    +0.000 A 
ATOM     16  C   UNL     1      49.475   8.035  13.175  0.00  0.00    +0.000 A 
ENDBRANCH   9  11
ENDBRANCH   1   4
BRANCH   1  17
ATOM     17  O   UNL     1      44.686   4.091  11.661  0.00  0.00    +0.000 OA
BRANCH  17  21
ATOM     18  C   UNL     1      46.060   3.255   7.875  0.00  0.00    +0.000 A 
ATOM     19  C   UNL     1      46.038   4.570   8.335  0.00  0.00    +0.000 A 
ATOM     20  C   UNL     1      45.561   4.824   9.619  0.00  0.00    +0.000 A 
ATOM     21  C   UNL     1      45.126   3.757  10.395  0.00  0.00    +0.000 A 
ATOM     22  N   UNL     1      45.138   2.471   9.984  0.00  0.00    +0.000 NA
ATOM     23  C   UNL     1      45.590   2.253   8.718  0.00  0.00    +0.000 A 
BRANCH  18  25
ATOM     24  N   UNL     1      46.851   3.911   5.668  0.00  0.00    +0.000 N 
ATOM     25  C   UNL     1      46.534   2.890   6.522  0.00  0.00    +0.000 C 
ATOM     26  O   UNL     1      46.666   1.720   6.187  0.00  0.00    +0.000 OA
ATOM     27  H   UNL     1      47.260   3.641   4.781  0.00  0.00    +0.000 HD
ATOM     28  H   UNL     1      46.994   4.860   5.975  0.00  0.00    +0.000 HD
ENDBRANCH  18  25
ENDBRANCH  17  21
ENDBRANCH   1  17
TORSDOF 5
ENDMDL
MODEL 9
REMARK VINA RESULT:    -5.767      5.482      7.233
REMARK INTER + INTRA:          -8.327
REMARK INTER:                  -7.731
REMARK INTRA:                  -0.596
REMARK UNBOUND:                -0.873
REMARK  Name = 
REMARK  5 active torsions:
REMARK  status: ('A' for Active; 'I' for Inactive)
REMARK    1  A    between atoms: C_2  and  C_4
REMARK    2  A    between atoms: C_7  and  O_8
REMARK    3  A    between atoms: O_8  and  C_9
REMARK    4  A    between atoms: C_9  and  C_10
REMARK    5  A    between atoms: C_15  and  C_16
REMARK                            x       y       z     vdW  Elec       q    Type
REMARK                         _______ _______ _______ _____ _____    ______ ____
ROOT
ATOM      1  C   UNL     1      48.113   3.329  16.583  0.00  0.00    +0.000 C 
ATOM      2  C   UNL     1      47.003   2.861  17.518  0.00  0.00    +0.000 C 
ATOM      3  C   UNL     1      47.222   4.321  17.298  0.00  0.00    +0.000 C 
ENDROOT
BRANCH   1   4
ATOM      4  C   UNL     1      49.555   3.118  17.027  0.00  0.00    +0.000 A 
ATOM      5  C   UNL     1      50.122   1.834  17.009  0.00  0.00    +0.000 A 
ATOM      6  C   UNL     1      51.452   1.630  17.365  0.00  0.00    +0.000 A 
ATOM      7  C   UNL     1      52.241   2.711  17.751  0.00  0.00    +0.000 A 
ATOM      8  F   UNL     1      53.513   2.454  18.090  0.00  0.00    +0.000 F 
ATOM      9  C   UNL     1      51.741   4.023  17.790  0.00  0.00    +0.000 A 
ATOM     10  C   UNL     1      50.388   4.192  17.422  0.00  0.00    +0.000 A 
BRANCH   9  11
ATOM     11  C   UNL     1      52.595   5.174  18.176  0.00  0.00    +0.000 A 
ATOM     12  C   UNL     1      52.653   5.627  19.503  0.00  0.00    +0.000 A 
ATOM     13  C   UNL     1      53.442   6.722  19.824  0.00  0.00    +0.000 A 
ATOM     14  N   UNL     1      54.194   7.394  18.931  0.00  0.00    +0.000 NA
ATOM     15  C   UNL     1      54.147   6.946  17.661  0.00  0.00    +0.000 A 
ATOM     16  C   UNL     1      53.379   5.867  17.243  0.00  0.00    +0.000 A 
ENDBRANCH   9  11
ENDBRANCH   1   4
BRANCH   1  17
ATOM     17  O   UNL     1      47.785   2.969  15.219  0.00  0.00    +0.000 OA
BRANCH  17  21
ATOM     18  C   UNL     1      46.153   5.818  12.741  0.00  0.00    +0.000 A 
ATOM     19  C   UNL     1      45.592   4.544  12.805  0.00  0.00    +0.000 A 
ATOM     20  C   UNL     1      46.171   3.598  13.648  0.00  0.00    +0.000 A 
ATOM     21  C   UNL     1      47.285   3.958  14.396  0.00  0.00    +0.000 A 
ATOM     22  N   UNL     1      47.851   5.183  14.362  0.00  0.00    +0.000 NA
ATOM     23  C   UNL     1      47.279   6.083  13.515  0.00  0.00    +0.000 A 
BRANCH  18  25
ATOM     24  N   UNL     1      45.046   6.499  10.683  0.00  0.00    +0.000 N 
ATOM     25  C   UNL     1      45.619   6.883  11.864  0.00  0.00    +0.000 C 
ATOM     26  O   UNL     1      45.662   8.061  12.194  0.00  0.00    +0.000 OA
ATOM     27  H   UNL     1      44.605   7.233  10.141  0.00  0.00    +0.000 HD
ATOM     28  H   UNL     1      44.770   5.550  10.489  0.00  0.00    +0.000 HD
ENDBRANCH  18  25
ENDBRANCH  17  21
ENDBRANCH   1  17
TORSDOF 5
ENDMDL
