MODEL 1
REMARK VINA RESULT:    -8.567      0.000      0.000
REMARK INTER + INTRA:         -11.311
REMARK INTER:                 -10.570
REMARK INTRA:                  -0.741
REMARK UNBOUND:                -0.741
REMARK  Name = 
REMARK  4 active torsions:
REMARK  status: ('A' for Active; 'I' for Inactive)
REMARK    1  A    between atoms: C_2  and  C_4
REMARK    2  A    between atoms: C_7  and  C_8
REMARK    3  A    between atoms: C_8  and  C_9
REMARK    4  A    between atoms: C_9  and  C_10
REMARK                            x       y       z     vdW  Elec       q    Type
REMARK                         _______ _______ _______ _____ _____    ______ ____
ROOT
ATOM      1  C   UNL     1      46.390   2.357   7.793  0.00  0.00    +0.000 A 
ATOM      2  C   UNL     1      46.358   3.746   7.644  0.00  0.00    +0.000 A 
ATOM      3  C   UNL     1      45.510   4.521   8.443  0.00  0.00    +0.000 A 
ATOM      4  C   UNL     1      44.649   3.925   9.375  0.00  0.00    +0.000 A 
ATOM      5  C   UNL     1      44.668   2.524   9.490  0.00  0.00    +0.000 A 
ATOM      6  C   UNL     1      45.525   1.745   8.703  0.00  0.00    +0.000 A 
ENDROOT
BRANCH   1   8
ATOM      7  N   UNL     1      48.455   2.127   6.526  0.00  0.00    +0.000 N 
ATOM      8  C   UNL     1      47.337   1.508   7.020  0.00  0.00    +0.000 C 
ATOM      9  O   UNL     1      47.161   0.310   6.872  0.00  0.00    +0.000 OA
ATOM     10  H   UNL     1      49.149   1.528   6.097  0.00  0.00    +0.000 HD
ATOM     11  H   UNL     1      48.758   3.035   6.849  0.00  0.00    +0.000 HD
ENDBRANCH   1   8
BRANCH   4  12
ATOM     12  C   UNL     1      43.795   4.731  10.340  0.00  0.00    +0.000 C 
BRANCH  12  13
ATOM     13  C   UNL     1      44.183   4.630  11.814  0.00  0.00    +0.000 C 
ATOM     14  C   UNL     1      43.575   3.491  12.621  0.00  0.00    +0.000 C 
ATOM     15  C   UNL     1      43.083   4.883  12.849  0.00  0.00    +0.000 C 
BRANCH  13  16
ATOM     16  C   UNL     1      45.550   5.190  12.196  0.00  0.00    +0.000 A 
ATOM     17  C   UNL     1      46.065   6.356  11.609  0.00  0.00    +0.000 A 
ATOM     18  C   UNL     1      47.296   6.872  12.012  0.00  0.00    +0.000 A 
ATOM     19  C   UNL     1      48.000   6.200  12.995  0.00  0.00    +0.000 A 
ATOM     20  N   UNL     1      47.560   5.074  13.588  0.00  0.00    +0.000 NA
ATOM     21  C   UNL     1      46.357   4.606  13.175  0.00  0.00    +0.000 A 
ENDBRANCH  13  16
ENDBRANCH  12  13
ENDBRANCH   4  12
TORSDOF 4
ENDMDL
MODEL 2
REMARK VINA RESULT:    -8.466      0.250      1.133
REMARK INTER + INTRA:         -11.186
REMARK INTER:                 -10.369
REMARK INTRA:                  -0.817
REMARK UNBOUND:                -0.741
REMARK  Name = 
REMARK  4 active torsions:
REMARK  status: ('A' for Active; 'I' for Inactive)
REMARK    1  A    between atoms: C_2  and  C_4
REMARK    2  A    between atoms: C_7  and  C_8
REMARK    3  A    between atoms: C_8  and  C_9
REMARK    4  A    between atoms: C_9  and  C_10
REMARK                            x       y       z     vdW  Elec       q    Type
REMARK                         _______ _______ _______ _____ _____    ______ ____
ROOT
ATOM      1  C   UNL     1      46.461   2.460   7.713  0.00  0.00    +0.000 A 
ATOM      2  C   UNL     1      45.680   1.784   8.653  0.00  0.00    +0.000 A 
ATOM      3  C   UNL     1      44.832   2.497   9.509  0.00  0.00    +0.000 A 
ATOM      4  C   UNL     1      44.778   3.897   9.472  0.00  0.00    +0.000 A 
ATOM      5  C   UNL     1      45.596   4.565   8.545  0.00  0.00    +0.000 A 
ATOM      6  C   UNL     1      46.435   3.856   7.677  0.00  0.00    +0.000 A 
ENDROOT
BRANCH   1   8
ATOM      7  N   UNL     1      48.321   2.445   6.143  0.00  0.00    +0.000 N 
ATOM      8  C   UNL     1      47.312   1.731   6.733  0.00  0.00    +0.000 C 
ATOM      9  O   UNL     1      47.157   0.543   6.498  0.00  0.00    +0.000 OA
ATOM     10  H   UNL     1      48.963   1.921   5.562  0.00  0.00    +0.000 HD
ATOM     11  H   UNL     1      48.636   3.333   6.504  0.00  0.00    +0.000 HD
ENDBRANCH   1   8
BRANCH   4  12
ATOM     12  C   UNL     1      43.794   4.705  10.301  0.00  0.00    +0.000 C 
BRANCH  12  13
ATOM     13  C   UNL     1      44.100   4.793  11.796  0.00  0.00    +0.000 C 
ATOM     14  C   UNL     1      43.381   3.814  12.715  0.00  0.00    +0.000 C 
ATOM     15  C   UNL     1      42.967   5.249  12.719  0.00  0.00    +0.000 C 
BRANCH  13  16
ATOM     16  C   UNL     1      45.478   5.326  12.177  0.00  0.00    +0.000 A 
ATOM     17  C   UNL     1      45.999   6.504  11.621  0.00  0.00    +0.000 A 
ATOM     18  C   UNL     1      47.240   6.993  12.023  0.00  0.00    +0.000 A 
ATOM     19  C   UNL     1      47.950   6.282  12.974  0.00  0.00    +0.000 A 
ATOM     20  N   UNL     1      47.505   5.142  13.536  0.00  0.00    +0.000 NA
ATOM     21  C   UNL     1      46.291   4.702  13.125  0.00  0.00    +0.000 A 
ENDBRANCH  13  16
ENDBRANCH  12  13
ENDBRANCH   4  12
TORSDOF 4
ENDMDL
MODEL 3
REMARK VINA RESULT:    -5.914      3.186      6.166
REMARK INTER + INTRA:          -8.038
REMARK INTER:                  -7.680
REMARK INTRA:                  -0.358
REMARK UNBOUND:                -0.741
REMARK  Name = 
REMARK  4 active torsions:
REMARK  status: ('A' for Active; 'I' for Inactive)
REMARK    1  A    between atoms: C_2  and  C_4
REMARK    2  A    between atoms: C_7  and  C_8
REMARK    3  A    between atoms: C_8  and  C_9
REMARK    4  A    between atoms: C_9  and  C_10
REMARK                            x       y       z     vdW  Elec       q    Type
REMARK                         _______ _______ _______ _____ _____    ______ ____
ROOT
ATOM      1  C   UNL     1      48.342   6.662  13.969  0.00  0.00    +0.000 A 
ATOM      2  C   UNL     1      47.759   6.889  12.720  0.00  0.00    +0.000 A 
ATOM      3  C   UNL     1      46.678   6.108  12.294  0.00  0.00    +0.000 A 
ATOM      4  C   UNL     1      46.185   5.062  13.086  0.00  0.00    +0.000 A 
ATOM      5  C   UNL     1      46.804   4.823  14.325  0.00  0.00    +0.000 A 
ATOM      6  C   UNL     1      47.876   5.610  14.762  0.00  0.00    +0.000 A 
ENDROOT
BRANCH   1   8
ATOM      7  N   UNL     1      50.569   7.610  13.722  0.00  0.00    +0.000 N 
ATOM      8  C   UNL     1      49.438   7.524  14.489  0.00  0.00    +0.000 C 
ATOM      9  O   UNL     1      49.324   8.165  15.521  0.00  0.00    +0.000 OA
ATOM     10  H   UNL     1      51.267   8.280  14.021  0.00  0.00    +0.000 HD
ATOM     11  H   UNL     1      50.592   7.313  12.757  0.00  0.00    +0.000 HD
ENDBRANCH   1   8
BRANCH   4  12
ATOM     12  C   UNL     1      44.946   4.263  12.717  0.00  0.00    +0.000 C 
BRANCH  12  13
ATOM     13  C   UNL     1      44.275   4.649  11.400  0.00  0.00    +0.000 C 
ATOM     14  C   UNL     1      43.585   6.005  11.338  0.00  0.00    +0.000 C 
ATOM     15  C   UNL     1      42.748   4.769  11.398  0.00  0.00    +0.000 C 
BRANCH  13  16
ATOM     16  C   UNL     1      44.861   4.033  10.132  0.00  0.00    +0.000 A 
ATOM     17  C   UNL     1      44.878   2.647   9.920  0.00  0.00    +0.000 A 
ATOM     18  C   UNL     1      45.376   2.115   8.732  0.00  0.00    +0.000 A 
ATOM     19  C   UNL     1      45.864   2.987   7.776  0.00  0.00    +0.000 A 
ATOM     20  N   UNL     1      45.881   4.324   7.927  0.00  0.00    +0.000 NA
ATOM     21  C   UNL     1      45.382   4.805   9.092  0.00  0.00    +0.000 A 
ENDBRANCH  13  16
ENDBRANCH  12  13
ENDBRANCH   4  12
TORSDOF 4
ENDMDL
MODEL 4
REMARK VINA RESULT:    -5.573      3.182      5.914
REMARK INTER + INTRA:          -7.617
REMARK INTER:                  -7.146
REMARK INTRA:                  -0.470
REMARK UNBOUND:                -0.741
REMARK  Name = 
REMARK  4 active torsions:
REMARK  status: ('A' for Active; 'I' for Inactive)
REMARK    1  A    between atoms: C_2  and  C_4
REMARK    2  A    between atoms: C_7  and  C_8
REMARK    3  A    between atoms: C_8  and  C_9
REMARK    4  A    between atoms: C_9  and  C_10
REMARK                            x       y       z     vdW  Elec       q    Type
REMARK                         _______ _______ _______ _____ _____    ______ ____
ROOT
ATOM      1  C   UNL     1      48.239   8.135  12.211  0.00  0.00    +0.000 A 
ATOM      2  C   UNL     1      48.554   6.824  12.574  0.00  0.00    +0.000 A 
ATOM      3  C   UNL     1      47.537   5.888  12.789  0.00  0.00    +0.000 A 
ATOM      4  C   UNL     1      46.186   6.250  12.687  0.00  0.00    +0.000 A 
ATOM      5  C   UNL     1      45.884   7.582  12.356  0.00  0.00    +0.000 A 
ATOM      6  C   UNL     1      46.898   8.519  12.125  0.00  0.00    +0.000 A 
ENDROOT
BRANCH   1   8
ATOM      7  N   UNL     1      48.873  10.412  11.631  0.00  0.00    +0.000 N 
ATOM      8  C   UNL     1      49.294   9.136  11.895  0.00  0.00    +0.000 C 
ATOM      9  O   UNL     1      50.481   8.854  11.917  0.00  0.00    +0.000 OA
ATOM     10  H   UNL     1      49.596  11.112  11.525  0.00  0.00    +0.000 HD
ATOM     11  H   UNL     1      47.944  10.733  11.861  0.00  0.00    +0.000 HD
ENDBRANCH   1   8
BRANCH   4  12
ATOM     12  C   UNL     1      45.053   5.245  12.802  0.00  0.00    +0.000 C 
BRANCH  12  13
ATOM     13  C   UNL     1      44.127   5.146  11.590  0.00  0.00    +0.000 C 
ATOM     14  C   UNL     1      43.151   6.293  11.362  0.00  0.00    +0.000 C 
ATOM     15  C   UNL     1      42.629   4.985  11.862  0.00  0.00    +0.000 C 
BRANCH  13  16
ATOM     16  C   UNL     1      44.644   4.337  10.404  0.00  0.00    +0.000 A 
ATOM     17  C   UNL     1      45.283   4.945   9.313  0.00  0.00    +0.000 A 
ATOM     18  C   UNL     1      45.789   4.177   8.266  0.00  0.00    +0.000 A 
ATOM     19  C   UNL     1      45.633   2.804   8.324  0.00  0.00    +0.000 A 
ATOM     20  N   UNL     1      45.022   2.166   9.341  0.00  0.00    +0.000 NA
ATOM     21  C   UNL     1      44.550   2.945  10.344  0.00  0.00    +0.000 A 
ENDBRANCH  13  16
ENDBRANCH  12  13
ENDBRANCH   4  12
TORSDOF 4
ENDMDL
