MODEL 1
REMARK VINA RESULT:    -7.225      0.000      0.000
REMARK INTER + INTRA:         -11.442
REMARK INTER:                 -10.181
REMARK INTRA:                  -1.261
REMARK UNBOUND:                -1.261
REMARK  Name = 
REMARK  8 active torsions:
REMARK  status: ('A' for Active; 'I' for Inactive)
REMARK    1  A    between atoms: C_1  and  C_2
REMARK    2  A    between atoms: C_2  and  N_3
REMARK    3  A    between atoms: N_3  and  C_4
REMARK    4  A    between atoms: C_4  and  C_5
REMARK    5  A    between atoms: C_8  and  C_9
REMARK    6  A    between atoms: C_9  and  N_10
REMARK    7  A    between atoms: C_11  and  C_13
REMARK    8  A    between atoms: C_20  and  C_22
REMARK                            x       y       z     vdW  Elec       q    Type
REMARK                         _______ _______ _______ _____ _____    ______ ____
ROOT
ATOM      1  C   UNL     1      48.769   6.365  14.405  0.00  0.00    +0.000 C 
ENDROOT
BRANCH   1   2
ATOM      2  C   UNL     1      47.517   6.190  13.579  0.00  0.00    +0.000 A 
ATOM      3  C   UNL     1      46.603   5.166  13.872  0.00  0.00    +0.000 A 
ATOM      4  C   UNL     1      45.613   4.823  12.950  0.00  0.00    +0.000 A 
ATOM      5  C   UNL     1      45.528   5.501  11.730  0.00  0.00    +0.000 A 
ATOM      6  C   UNL     1      46.329   6.630  11.518  0.00  0.00    +0.000 A 
ATOM      7  C   UNL     1      47.320   6.972  12.437  0.00  0.00    +0.000 A 
BRANCH   5   8
ATOM      8  C   UNL     1      44.674   4.965  10.614  0.00  0.00    +0.000 C 
BRANCH   8   9
ATOM      9  N   UNL     1      45.437   4.322   9.581  0.00  0.00    +0.000 N 
ATOM     10  C   UNL     1      45.164   3.016   9.232  0.00  0.00    +0.000 C 
ATOM     11  O   UNL     1      44.279   2.374   9.789  0.00  0.00    +0.000 OA
ATOM     12  H   UNL     1      46.108   4.855   9.048  0.00  0.00    +0.000 HD
BRANCH  10  13
ATOM     13  C   UNL     1      45.985   2.462   8.171  0.00  0.00    +0.000 A 
ATOM     14  C   UNL     1      46.393   1.152   8.032  0.00  0.00    +0.000 A 
ATOM     15  N   UNL     1      47.189   0.882   6.936  0.00  0.00    +0.000 NA
ATOM     16  C   UNL     1      47.379   1.993   6.260  0.00  0.00    +0.000 A 
ATOM     17  S   UNL     1      46.615   3.395   6.879  0.00  0.00    +0.000 S 
ENDBRANCH  10  13
ENDBRANCH   8   9
ENDBRANCH   5   8
ENDBRANCH   1   2
BRANCH   1  18
ATOM     18  N   UNL     1      48.655   7.274  15.564  0.00  0.00    +0.000 N 
ATOM     19  C   UNL     1      48.446   6.840  16.885  0.00  0.00    +0.000 C 
ATOM     20  O   UNL     1      48.316   7.638  17.812  0.00  0.00    +0.000 OA
BRANCH  19  21
ATOM     21  C   UNL     1      48.437   5.408  17.187  0.00  0.00    +0.000 A 
ATOM     22  C   UNL     1      47.311   4.604  17.145  0.00  0.00    +0.000 A 
ATOM     23  S   UNL     1      47.651   2.949  17.401  0.00  0.00    +0.000 S 
ATOM     24  C   UNL     1      49.326   3.247  17.459  0.00  0.00    +0.000 A 
ATOM     25  N   UNL     1      50.221   2.228  17.555  0.00  0.00    +0.000 NA
ATOM     26  C   UNL     1      51.457   2.606  17.510  0.00  0.00    +0.000 A 
ATOM     27  N   UNL     1      51.877   3.909  17.421  0.00  0.00    +0.000 N 
ATOM     28  C   UNL     1      51.009   4.979  17.464  0.00  0.00    +0.000 A 
ATOM     29  O   UNL     1      51.417   6.122  17.634  0.00  0.00    +0.000 OA
ATOM     30  C   UNL     1      49.611   4.597  17.381  0.00  0.00    +0.000 A 
ATOM     31  H   UNL     1      52.858   4.139  17.465  0.00  0.00    +0.000 HD
ENDBRANCH  19  21
BRANCH  18  33
ATOM     32  C   UNL     1      49.765   9.104  14.279  0.00  0.00    +0.000 C 
ATOM     33  C   UNL     1      48.794   8.729  15.394  0.00  0.00    +0.000 C 
ENDBRANCH  18  33
ENDBRANCH   1  18
TORSDOF 7
ENDMDL
MODEL 2
REMARK VINA RESULT:    -6.805      2.353      3.316
REMARK INTER + INTRA:         -10.851
REMARK INTER:                  -9.444
REMARK INTRA:                  -1.407
REMARK UNBOUND:                -1.261
REMARK  Name = 
REMARK  8 active torsions:
REMARK  status: ('A' for Active; 'I' for Inactive)
REMARK    1  A    between atoms: C_1  and  C_2
REMARK    2  A    between atoms: C_2  and  N_3
REMARK    3  A    between atoms: N_3  and  C_4
REMARK    4  A    between atoms: C_4  and  C_5
REMARK    5  A    between atoms: C_8  and  C_9
REMARK    6  A    between atoms: C_9  and  N_10
REMARK    7  A    between atoms: C_11  and  C_13
REMARK    8  A    between atoms: C_20  and  C_22
REMARK                            x       y       z     vdW  Elec       q    Type
REMARK                         _______ _______ _______ _____ _____    ______ ____
ROOT
ATOM      1  C   UNL     1      46.814   8.791  13.760  0.00  0.00    +0.000 C 
ENDROOT
BRANCH   1   2
ATOM      2  C   UNL     1      46.311   7.709  12.835  0.00  0.00    +0.000 A 
ATOM      3  C   UNL     1      45.211   7.940  11.994  0.00  0.00    +0.000 A 
ATOM      4  C   UNL     1      44.572   6.871  11.365  0.00  0.00    +0.000 A 
ATOM      5  C   UNL     1      45.026   5.565  11.569  0.00  0.00    +0.000 A 
ATOM      6  C   UNL     1      46.224   5.359  12.267  0.00  0.00    +0.000 A 
ATOM      7  C   UNL     1      46.861   6.425  12.899  0.00  0.00    +0.000 A 
BRANCH   5   8
ATOM      8  C   UNL     1      44.191   4.388  11.147  0.00  0.00    +0.000 C 
BRANCH   8   9
ATOM      9  N   UNL     1      44.926   3.422  10.380  0.00  0.00    +0.000 N 
ATOM     10  C   UNL     1      45.072   3.587   9.018  0.00  0.00    +0.000 C 
ATOM     11  O   UNL     1      44.579   4.546   8.432  0.00  0.00    +0.000 OA
ATOM     12  H   UNL     1      45.416   2.675  10.851  0.00  0.00    +0.000 HD
BRANCH  10  13
ATOM     13  C   UNL     1      45.840   2.562   8.338  0.00  0.00    +0.000 A 
ATOM     14  C   UNL     1      45.802   1.203   8.568  0.00  0.00    +0.000 A 
ATOM     15  N   UNL     1      46.651   0.436   7.792  0.00  0.00    +0.000 NA
ATOM     16  C   UNL     1      47.325   1.226   6.986  0.00  0.00    +0.000 A 
ATOM     17  S   UNL     1      46.976   2.899   7.100  0.00  0.00    +0.000 S 
ENDBRANCH  10  13
ENDBRANCH   8   9
ENDBRANCH   5   8
ENDBRANCH   1   2
BRANCH   1  18
ATOM     18  N   UNL     1      48.162   9.320  13.462  0.00  0.00    +0.000 N 
ATOM     19  C   UNL     1      49.111   9.649  14.445  0.00  0.00    +0.000 C 
ATOM     20  O   UNL     1      50.205  10.125  14.149  0.00  0.00    +0.000 OA
BRANCH  19  21
ATOM     21  C   UNL     1      48.826   9.369  15.853  0.00  0.00    +0.000 A 
ATOM     22  C   UNL     1      48.376  10.309  16.764  0.00  0.00    +0.000 A 
ATOM     23  S   UNL     1      47.992   9.641  18.290  0.00  0.00    +0.000 S 
ATOM     24  C   UNL     1      48.306   8.063  17.738  0.00  0.00    +0.000 A 
ATOM     25  N   UNL     1      48.072   6.980  18.527  0.00  0.00    +0.000 NA
ATOM     26  C   UNL     1      48.286   5.846  17.944  0.00  0.00    +0.000 A 
ATOM     27  N   UNL     1      48.750   5.698  16.661  0.00  0.00    +0.000 N 
ATOM     28  C   UNL     1      49.134   6.765  15.877  0.00  0.00    +0.000 A 
ATOM     29  O   UNL     1      49.772   6.598  14.844  0.00  0.00    +0.000 OA
ATOM     30  C   UNL     1      48.788   8.056  16.444  0.00  0.00    +0.000 A 
ATOM     31  H   UNL     1      48.965   4.784  16.292  0.00  0.00    +0.000 HD
ENDBRANCH  19  21
BRANCH  18  33
ATOM     32  C   UNL     1      48.028  10.761  11.427  0.00  0.00    +0.000 C 
ATOM     33  C   UNL     1      48.606   9.504  12.071  0.00  0.00    +0.000 C 
ENDBRANCH  18  33
ENDBRANCH   1  18
TORSDOF 7
ENDMDL
MODEL 3
REMARK VINA RESULT:    -6.603      1.950      2.867
REMARK INTER + INTRA:         -10.567
REMARK INTER:                  -9.042
REMARK INTRA:                  -1.524
REMARK UNBOUND:                -1.261
REMARK  Name = 
REMARK  8 active torsions:
REMARK  status: ('A' for Active; 'I' for Inactive)
REMARK    1  A    between atoms: C_1  and  C_2
REMARK    2  A    between atoms: C_2  and  N_3
REMARK    3  A    between atoms: N_3  and  C_4
REMARK    4  A    between atoms: C_4  and  C_5
REMARK    5  A    between atoms: C_8  and  C_9
REMARK    6  A    between atoms: C_9  and  N_10
REMARK    7  A    between atoms: C_11  and  C_13
REMARK    8  A    between atoms: C_20  and  C_22
REMARK                            x       y       z     vdW  Elec       q    Type
REMARK                         _______ _______ _______ _____ _____    ______ ____
ROOT
ATOM      1  C   UNL     1      49.430   8.231  15.974  0.00  0.00    +0.000 C 
ENDROOT
BRANCH   1   2
ATOM      2  C   UNL     1      48.539   7.923  14.795  0.00  0.00    +0.000 A 
ATOM      3  C   UNL     1      47.726   8.919  14.232  0.00  0.00    +0.000 A 
ATOM      4  C   UNL     1      46.703   8.574  13.348  0.00  0.00    +0.000 A 
ATOM      5  C   UNL     1      46.485   7.233  13.019  0.00  0.00    +0.000 A 
ATOM      6  C   UNL     1      47.404   6.266  13.446  0.00  0.00    +0.000 A 
ATOM      7  C   UNL     1      48.424   6.609  14.332  0.00  0.00    +0.000 A 
BRANCH   5   8
ATOM      8  C   UNL     1      45.225   6.812  12.313  0.00  0.00    +0.000 C 
BRANCH   8   9
ATOM      9  N   UNL     1      45.476   6.100  11.092  0.00  0.00    +0.000 N 
ATOM     10  C   UNL     1      44.897   4.867  10.879  0.00  0.00    +0.000 C 
ATOM     11  O   UNL     1      44.166   4.347  11.718  0.00  0.00    +0.000 OA
ATOM     12  H   UNL     1      45.999   6.544  10.351  0.00  0.00    +0.000 HD
BRANCH  10  13
ATOM     13  C   UNL     1      45.205   4.235   9.610  0.00  0.00    +0.000 A 
ATOM     14  C   UNL     1      45.853   4.805   8.533  0.00  0.00    +0.000 A 
ATOM     15  N   UNL     1      46.010   3.992   7.426  0.00  0.00    +0.000 NA
ATOM     16  C   UNL     1      45.476   2.818   7.677  0.00  0.00    +0.000 A 
ATOM     17  S   UNL     1      44.780   2.619   9.230  0.00  0.00    +0.000 S 
ENDBRANCH  10  13
ENDBRANCH   8   9
ENDBRANCH   5   8
ENDBRANCH   1   2
BRANCH   1  18
ATOM     18  N   UNL     1      48.795   8.136  17.305  0.00  0.00    +0.000 N 
ATOM     19  C   UNL     1      48.991   7.063  18.193  0.00  0.00    +0.000 C 
ATOM     20  O   UNL     1      48.407   7.009  19.274  0.00  0.00    +0.000 OA
BRANCH  19  21
ATOM     21  C   UNL     1      49.951   6.011  17.861  0.00  0.00    +0.000 A 
ATOM     22  C   UNL     1      51.314   6.091  18.091  0.00  0.00    +0.000 A 
ATOM     23  S   UNL     1      52.146   4.642  17.731  0.00  0.00    +0.000 S 
ATOM     24  C   UNL     1      50.694   3.834  17.370  0.00  0.00    +0.000 A 
ATOM     25  N   UNL     1      50.679   2.505  17.082  0.00  0.00    +0.000 NA
ATOM     26  C   UNL     1      49.495   2.017  16.904  0.00  0.00    +0.000 A 
ATOM     27  N   UNL     1      48.331   2.743  16.948  0.00  0.00    +0.000 N 
ATOM     28  C   UNL     1      48.310   4.114  17.097  0.00  0.00    +0.000 A 
ATOM     29  O   UNL     1      47.291   4.761  16.884  0.00  0.00    +0.000 OA
ATOM     30  C   UNL     1      49.604   4.682  17.429  0.00  0.00    +0.000 A 
ATOM     31  H   UNL     1      47.446   2.313  16.728  0.00  0.00    +0.000 HD
ENDBRANCH  19  21
BRANCH  18  33
ATOM     32  C   UNL     1      48.448  10.603  17.460  0.00  0.00    +0.000 C 
ATOM     33  C   UNL     1      47.923   9.213  17.800  0.00  0.00    +0.000 C 
ENDBRANCH  18  33
ENDBRANCH   1  18
TORSDOF 7
ENDMDL
MODEL 4
REMARK VINA RESULT:    -6.588      2.105      2.817
REMARK INTER + INTRA:         -10.545
REMARK INTER:                  -9.230
REMARK INTRA:                  -1.315
REMARK UNBOUND:                -1.261
REMARK  Name = 
REMARK  8 active torsions:
REMARK  status: ('A' for Active; 'I' for Inactive)
REMARK    1  A    between atoms: C_1  and  C_2
REMARK    2  A    between atoms: C_2  and  N_3
REMARK    3  A    between atoms: N_3  and  C_4
REMARK    4  A    between atoms: C_4  and  C_5
REMARK    5  A    between atoms: C_8  and  C_9
REMARK    6  A    between atoms: C_9  and  N_10
REMARK    7  A    between atoms: C_11  and  C_13
REMARK    8  A    between atoms: C_20  and  C_22
REMARK                            x       y       z     vdW  Elec       q    Type
REMARK                         _______ _______ _______ _____ _____    ______ ____
ROOT
ATOM      1  C   UNL     1      47.960   8.077  14.470  0.00  0.00    +0.000 C 
ENDROOT
BRANCH   1   2
ATOM      2  C   UNL     1      47.268   7.363  13.334  0.00  0.00    +0.000 A 
ATOM      3  C   UNL     1      46.444   8.065  12.442  0.00  0.00    +0.000 A 
ATOM      4  C   UNL     1      45.586   7.374  11.586  0.00  0.00    +0.000 A 
ATOM      5  C   UNL     1      45.546   5.977  11.613  0.00  0.00    +0.000 A 
ATOM      6  C   UNL     1      46.490   5.281  12.378  0.00  0.00    +0.000 A 
ATOM      7  C   UNL     1      47.346   5.970  13.236  0.00  0.00    +0.000 A 
BRANCH   5   8
ATOM      8  C   UNL     1      44.438   5.229  10.923  0.00  0.00    +0.000 C 
BRANCH   8   9
ATOM      9  N   UNL     1      44.901   4.070  10.212  0.00  0.00    +0.000 N 
ATOM     10  C   UNL     1      45.553   4.214   9.006  0.00  0.00    +0.000 C 
ATOM     11  O   UNL     1      45.749   5.319   8.510  0.00  0.00    +0.000 OA
ATOM     12  H   UNL     1      44.832   3.158  10.640  0.00  0.00    +0.000 HD
BRANCH  10  13
ATOM     13  C   UNL     1      45.989   2.983   8.374  0.00  0.00    +0.000 A 
ATOM     14  C   UNL     1      45.710   1.694   8.781  0.00  0.00    +0.000 A 
ATOM     15  N   UNL     1      46.262   0.687   8.012  0.00  0.00    +0.000 NA
ATOM     16  C   UNL     1      46.954   1.225   7.033  0.00  0.00    +0.000 A 
ATOM     17  S   UNL     1      46.973   2.937   6.971  0.00  0.00    +0.000 S 
ENDBRANCH  10  13
ENDBRANCH   8   9
ENDBRANCH   5   8
ENDBRANCH   1   2
BRANCH   1  18
ATOM     18  N   UNL     1      49.376   7.717  14.692  0.00  0.00    +0.000 N 
ATOM     19  C   UNL     1      49.829   6.946  15.777  0.00  0.00    +0.000 C 
ATOM     20  O   UNL     1      51.024   6.707  15.942  0.00  0.00    +0.000 OA
BRANCH  19  21
ATOM     21  C   UNL     1      48.862   6.361  16.707  0.00  0.00    +0.000 A 
ATOM     22  C   UNL     1      48.346   5.081  16.599  0.00  0.00    +0.000 A 
ATOM     23  S   UNL     1      47.356   4.638  17.920  0.00  0.00    +0.000 S 
ATOM     24  C   UNL     1      47.684   6.101  18.726  0.00  0.00    +0.000 A 
ATOM     25  N   UNL     1      47.222   6.332  19.983  0.00  0.00    +0.000 NA
ATOM     26  C   UNL     1      47.616   7.454  20.492  0.00  0.00    +0.000 A 
ATOM     27  N   UNL     1      48.395   8.380  19.844  0.00  0.00    +0.000 N 
ATOM     28  C   UNL     1      48.767   8.250  18.523  0.00  0.00    +0.000 A 
ATOM     29  O   UNL     1      49.242   9.193  17.901  0.00  0.00    +0.000 OA
ATOM     30  C   UNL     1      48.456   6.950  17.957  0.00  0.00    +0.000 A 
ATOM     31  H   UNL     1      48.606   9.267  20.273  0.00  0.00    +0.000 HD
ENDBRANCH  19  21
BRANCH  18  33
ATOM     32  C   UNL     1      50.725   9.623  13.811  0.00  0.00    +0.000 C 
ATOM     33  C   UNL     1      50.416   8.132  13.737  0.00  0.00    +0.000 C 
ENDBRANCH  18  33
ENDBRANCH   1  18
TORSDOF 7
ENDMDL
MODEL 5
REMARK VINA RESULT:    -6.394      3.069      4.077
REMARK INTER + INTRA:         -10.272
REMARK INTER:                  -8.690
REMARK INTRA:                  -1.581
REMARK UNBOUND:                -1.261
REMARK  Name = 
REMARK  8 active torsions:
REMARK  status: ('A' for Active; 'I' for Inactive)
REMARK    1  A    between atoms: C_1  and  C_2
REMARK    2  A    between atoms: C_2  and  N_3
REMARK    3  A    between atoms: N_3  and  C_4
REMARK    4  A    between atoms: C_4  and  C_5
REMARK    5  A    between atoms: C_8  and  C_9
REMARK    6  A    between atoms: C_9  and  N_10
REMARK    7  A    between atoms: C_11  and  C_13
REMARK    8  A    between atoms: C_20  and  C_22
REMARK                            x       y       z     vdW  Elec       q    Type
REMARK                         _______ _______ _______ _____ _____    ______ ____
ROOT
ATOM      1  C   UNL     1      49.461   8.267  17.358  0.00  0.00    +0.000 C 
ENDROOT
BRANCH   1   2
ATOM      2  C   UNL     1      49.080   8.230  15.897  0.00  0.00    +0.000 A 
ATOM      3  C   UNL     1      48.508   9.352  15.278  0.00  0.00    +0.000 A 
ATOM      4  C   UNL     1      47.896   9.230  14.030  0.00  0.00    +0.000 A 
ATOM      5  C   UNL     1      47.851   7.987  13.391  0.00  0.00    +0.000 A 
ATOM      6  C   UNL     1      48.571   6.914  13.932  0.00  0.00    +0.000 A 
ATOM      7  C   UNL     1      49.181   7.034  15.180  0.00  0.00    +0.000 A 
BRANCH   5   8
ATOM      8  C   UNL     1      46.956   7.768  12.203  0.00  0.00    +0.000 C 
BRANCH   8   9
ATOM      9  N   UNL     1      46.306   6.488  12.217  0.00  0.00    +0.000 N 
ATOM     10  C   UNL     1      44.995   6.373  11.803  0.00  0.00    +0.000 C 
ATOM     11  O   UNL     1      44.355   7.348  11.422  0.00  0.00    +0.000 OA
ATOM     12  H   UNL     1      46.836   5.658  12.441  0.00  0.00    +0.000 HD
BRANCH  10  13
ATOM     13  C   UNL     1      44.435   5.036  11.846  0.00  0.00    +0.000 A 
ATOM     14  C   UNL     1      44.340   4.209  12.947  0.00  0.00    +0.000 A 
ATOM     15  N   UNL     1      43.777   2.967  12.720  0.00  0.00    +0.000 NA
ATOM     16  C   UNL     1      43.456   2.867  11.449  0.00  0.00    +0.000 A 
ATOM     17  S   UNL     1      43.791   4.235  10.475  0.00  0.00    +0.000 S 
ENDBRANCH  10  13
ENDBRANCH   8   9
ENDBRANCH   5   8
ENDBRANCH   1   2
BRANCH   1  18
ATOM     18  N   UNL     1      48.440   7.771  18.304  0.00  0.00    +0.000 N 
ATOM     19  C   UNL     1      48.407   6.459  18.807  0.00  0.00    +0.000 C 
ATOM     20  O   UNL     1      47.511   6.082  19.561  0.00  0.00    +0.000 OA
BRANCH  19  21
ATOM     21  C   UNL     1      49.487   5.528  18.481  0.00  0.00    +0.000 A 
ATOM     22  C   UNL     1      50.751   5.565  19.044  0.00  0.00    +0.000 A 
ATOM     23  S   UNL     1      51.741   4.255  18.570  0.00  0.00    +0.000 S 
ATOM     24  C   UNL     1      50.470   3.542  17.692  0.00  0.00    +0.000 A 
ATOM     25  N   UNL     1      50.612   2.322  17.108  0.00  0.00    +0.000 NA
ATOM     26  C   UNL     1      49.537   1.879  16.543  0.00  0.00    +0.000 A 
ATOM     27  N   UNL     1      48.348   2.561  16.473  0.00  0.00    +0.000 N 
ATOM     28  C   UNL     1      48.201   3.854  16.926  0.00  0.00    +0.000 A 
ATOM     29  O   UNL     1      47.217   4.523  16.631  0.00  0.00    +0.000 OA
ATOM     30  C   UNL     1      49.341   4.339  17.682  0.00  0.00    +0.000 A 
ATOM     31  H   UNL     1      47.569   2.187  15.953  0.00  0.00    +0.000 HD
ENDBRANCH  19  21
BRANCH  18  33
ATOM     32  C   UNL     1      47.916   9.694  19.808  0.00  0.00    +0.000 C 
ATOM     33  C   UNL     1      47.388   8.667  18.811  0.00  0.00    +0.000 C 
ENDBRANCH  18  33
ENDBRANCH   1  18
TORSDOF 7
ENDMDL
MODEL 6
REMARK VINA RESULT:    -6.200      1.996      2.730
REMARK INTER + INTRA:          -9.999
REMARK INTER:                  -8.829
REMARK INTRA:                  -1.170
REMARK UNBOUND:                -1.261
REMARK  Name = 
REMARK  8 active torsions:
REMARK  status: ('A' for Active; 'I' for Inactive)
REMARK    1  A    between atoms: C_1  and  C_2
REMARK    2  A    between atoms: C_2  and  N_3
REMARK    3  A    between atoms: N_3  and  C_4
REMARK    4  A    between atoms: C_4  and  C_5
REMARK    5  A    between atoms: C_8  and  C_9
REMARK    6  A    between atoms: C_9  and  N_10
REMARK    7  A    between atoms: C_11  and  C_13
REMARK    8  A    between atoms: C_20  and  C_22
REMARK                            x       y       z     vdW  Elec       q    Type
REMARK                         _______ _______ _______ _____ _____    ______ ____
ROOT
ATOM      1  C   UNL     1      49.904   7.073  16.437  0.00  0.00    +0.000 C 
ENDROOT
BRANCH   1   2
ATOM      2  C   UNL     1      48.770   7.188  15.447  0.00  0.00    +0.000 A 
ATOM      3  C   UNL     1      48.283   6.054  14.780  0.00  0.00    +0.000 A 
ATOM      4  C   UNL     1      47.450   6.195  13.670  0.00  0.00    +0.000 A 
ATOM      5  C   UNL     1      47.095   7.471  13.218  0.00  0.00    +0.000 A 
ATOM      6  C   UNL     1      47.441   8.589  13.988  0.00  0.00    +0.000 A 
ATOM      7  C   UNL     1      48.276   8.449  15.096  0.00  0.00    +0.000 A 
BRANCH   5   8
ATOM      8  C   UNL     1      46.451   7.656  11.872  0.00  0.00    +0.000 C 
BRANCH   8   9
ATOM      9  N   UNL     1      46.266   6.421  11.163  0.00  0.00    +0.000 N 
ATOM     10  C   UNL     1      44.996   5.922  10.963  0.00  0.00    +0.000 C 
ATOM     11  O   UNL     1      44.003   6.507  11.385  0.00  0.00    +0.000 OA
ATOM     12  H   UNL     1      47.057   5.968  10.730  0.00  0.00    +0.000 HD
BRANCH  10  13
ATOM     13  C   UNL     1      44.917   4.674  10.227  0.00  0.00    +0.000 A 
ATOM     14  C   UNL     1      45.303   4.453   8.922  0.00  0.00    +0.000 A 
ATOM     15  N   UNL     1      45.107   3.171   8.445  0.00  0.00    +0.000 NA
ATOM     16  C   UNL     1      44.570   2.438   9.395  0.00  0.00    +0.000 A 
ATOM     17  S   UNL     1      44.288   3.224  10.890  0.00  0.00    +0.000 S 
ENDBRANCH  10  13
ENDBRANCH   8   9
ENDBRANCH   5   8
ENDBRANCH   1   2
BRANCH   1  18
ATOM     18  N   UNL     1      49.564   7.364  17.846  0.00  0.00    +0.000 N 
ATOM     19  C   UNL     1      48.922   6.453  18.703  0.00  0.00    +0.000 C 
ATOM     20  O   UNL     1      48.622   6.756  19.856  0.00  0.00    +0.000 OA
BRANCH  19  21
ATOM     21  C   UNL     1      48.652   5.090  18.243  0.00  0.00    +0.000 A 
ATOM     22  C   UNL     1      47.441   4.662  17.726  0.00  0.00    +0.000 A 
ATOM     23  S   UNL     1      47.485   3.058  17.140  0.00  0.00    +0.000 S 
ATOM     24  C   UNL     1      49.152   2.931  17.455  0.00  0.00    +0.000 A 
ATOM     25  N   UNL     1      49.858   1.829  17.088  0.00  0.00    +0.000 NA
ATOM     26  C   UNL     1      51.127   1.911  17.324  0.00  0.00    +0.000 A 
ATOM     27  N   UNL     1      51.745   2.977  17.930  0.00  0.00    +0.000 N 
ATOM     28  C   UNL     1      51.050   4.050  18.444  0.00  0.00    +0.000 A 
ATOM     29  O   UNL     1      51.590   4.857  19.193  0.00  0.00    +0.000 OA
ATOM     30  C   UNL     1      49.644   4.058  18.085  0.00  0.00    +0.000 A 
ATOM     31  H   UNL     1      52.728   2.945  18.151  0.00  0.00    +0.000 HD
ENDBRANCH  19  21
BRANCH  18  33
ATOM     32  C   UNL     1      48.820   9.701  18.313  0.00  0.00    +0.000 C 
ATOM     33  C   UNL     1      49.922   8.656  18.453  0.00  0.00    +0.000 C 
ENDBRANCH  18  33
ENDBRANCH   1  18
TORSDOF 7
ENDMDL
MODEL 7
REMARK VINA RESULT:    -5.711      4.161      7.138
REMARK INTER + INTRA:          -9.309
REMARK INTER:                  -8.496
REMARK INTRA:                  -0.813
REMARK UNBOUND:                -1.261
REMARK  Name = 
REMARK  8 active torsions:
REMARK  status: ('A' for Active; 'I' for Inactive)
REMARK    1  A    between atoms: C_1  and  C_2
REMARK    2  A    between atoms: C_2  and  N_3
REMARK    3  A    between atoms: N_3  and  C_4
REMARK    4  A    between atoms: C_4  and  C_5
REMARK    5  A    between atoms: C_8  and  C_9
REMARK    6  A    between atoms: C_9  and  N_10
REMARK    7  A    between atoms: C_11  and  C_13
REMARK    8  A    between atoms: C_20  and  C_22
REMARK                            x       y       z     vdW  Elec       q    Type
REMARK                         _______ _______ _______ _____ _____    ______ ____
ROOT
ATOM      1  C   UNL     1      52.806   3.415  17.758  0.00  0.00    +0.000 C 
ENDROOT
BRANCH   1   2
ATOM      2  C   UNL     1      51.297   3.359  17.760  0.00  0.00    +0.000 A 
ATOM      3  C   UNL     1      50.622   2.250  17.228  0.00  0.00    +0.000 A 
ATOM      4  C   UNL     1      49.253   2.321  16.965  0.00  0.00    +0.000 A 
ATOM      5  C   UNL     1      48.549   3.499  17.232  0.00  0.00    +0.000 A 
ATOM      6  C   UNL     1      49.191   4.538  17.920  0.00  0.00    +0.000 A 
ATOM      7  C   UNL     1      50.558   4.469  18.180  0.00  0.00    +0.000 A 
BRANCH   5   8
ATOM      8  C   UNL     1      47.160   3.700  16.693  0.00  0.00    +0.000 C 
BRANCH   8   9
ATOM      9  N   UNL     1      47.096   4.694  15.659  0.00  0.00    +0.000 N 
ATOM     10  C   UNL     1      46.979   4.310  14.338  0.00  0.00    +0.000 C 
ATOM     11  O   UNL     1      46.932   3.127  14.016  0.00  0.00    +0.000 OA
ATOM     12  H   UNL     1      47.043   5.671  15.904  0.00  0.00    +0.000 HD
BRANCH  10  13
ATOM     13  C   UNL     1      46.913   5.390  13.372  0.00  0.00    +0.000 A 
ATOM     14  C   UNL     1      47.892   6.323  13.098  0.00  0.00    +0.000 A 
ATOM     15  N   UNL     1      47.574   7.266  12.139  0.00  0.00    +0.000 NA
ATOM     16  C   UNL     1      46.357   7.037  11.700  0.00  0.00    +0.000 A 
ATOM     17  S   UNL     1      45.543   5.696  12.389  0.00  0.00    +0.000 S 
ENDBRANCH  10  13
ENDBRANCH   8   9
ENDBRANCH   5   8
ENDBRANCH   1   2
BRANCH   1  18
ATOM     18  N   UNL     1      53.472   2.922  18.982  0.00  0.00    +0.000 N 
ATOM     19  C   UNL     1      54.331   1.810  19.015  0.00  0.00    +0.000 C 
ATOM     20  O   UNL     1      54.829   1.412  20.067  0.00  0.00    +0.000 OA
BRANCH  19  21
ATOM     21  C   UNL     1      54.695   1.136  17.768  0.00  0.00    +0.000 A 
ATOM     22  C   UNL     1      55.362   1.739  16.716  0.00  0.00    +0.000 A 
ATOM     23  S   UNL     1      55.775   0.651  15.464  0.00  0.00    +0.000 S 
ATOM     24  C   UNL     1      55.176  -0.675  16.346  0.00  0.00    +0.000 A 
ATOM     25  N   UNL     1      55.312  -1.947  15.887  0.00  0.00    +0.000 NA
ATOM     26  C   UNL     1      54.877  -2.852  16.701  0.00  0.00    +0.000 A 
ATOM     27  N   UNL     1      54.283  -2.598  17.912  0.00  0.00    +0.000 N 
ATOM     28  C   UNL     1      53.998  -1.323  18.353  0.00  0.00    +0.000 A 
ATOM     29  O   UNL     1      53.252  -1.132  19.306  0.00  0.00    +0.000 OA
ATOM     30  C   UNL     1      54.585  -0.280  17.531  0.00  0.00    +0.000 A 
ATOM     31  H   UNL     1      53.899  -3.349  18.466  0.00  0.00    +0.000 HD
ENDBRANCH  19  21
BRANCH  18  33
ATOM     32  C   UNL     1      53.728   5.075  20.220  0.00  0.00    +0.000 C 
ATOM     33  C   UNL     1      53.289   3.615  20.268  0.00  0.00    +0.000 C 
ENDBRANCH  18  33
ENDBRANCH   1  18
TORSDOF 7
ENDMDL
MODEL 8
REMARK VINA RESULT:    -5.365      3.703      6.262
REMARK INTER + INTRA:          -8.822
REMARK INTER:                  -7.157
REMARK INTRA:                  -1.665
REMARK UNBOUND:                -1.261
REMARK  Name = 
REMARK  8 active torsions:
REMARK  status: ('A' for Active; 'I' for Inactive)
REMARK    1  A    between atoms: C_1  and  C_2
REMARK    2  A    between atoms: C_2  and  N_3
REMARK    3  A    between atoms: N_3  and  C_4
REMARK    4  A    between atoms: C_4  and  C_5
REMARK    5  A    between atoms: C_8  and  C_9
REMARK    6  A    between atoms: C_9  and  N_10
REMARK    7  A    between atoms: C_11  and  C_13
REMARK    8  A    between atoms: C_20  and  C_22
REMARK                            x       y       z     vdW  Elec       q    Type
REMARK                         _______ _______ _______ _____ _____    ______ ____
ROOT
ATOM      1  C   UNL     1      52.027   6.316  18.222  0.00  0.00    +0.000 C 
ENDROOT
BRANCH   1   2
ATOM      2  C   UNL     1      50.765   5.490  18.162  0.00  0.00    +0.000 A 
ATOM      3  C   UNL     1      50.796   4.167  17.694  0.00  0.00    +0.000 A 
ATOM      4  C   UNL     1      49.610   3.509  17.367  0.00  0.00    +0.000 A 
ATOM      5  C   UNL     1      48.383   4.167  17.506  0.00  0.00    +0.000 A 
ATOM      6  C   UNL     1      48.346   5.419  18.134  0.00  0.00    +0.000 A 
ATOM      7  C   UNL     1      49.531   6.078  18.458  0.00  0.00    +0.000 A 
BRANCH   5   8
ATOM      8  C   UNL     1      47.134   3.596  16.892  0.00  0.00    +0.000 C 
BRANCH   8   9
ATOM      9  N   UNL     1      46.585   4.429  15.860  0.00  0.00    +0.000 N 
ATOM     10  C   UNL     1      46.775   4.100  14.533  0.00  0.00    +0.000 C 
ATOM     11  O   UNL     1      47.414   3.106  14.203  0.00  0.00    +0.000 OA
ATOM     12  H   UNL     1      45.982   5.200  16.104  0.00  0.00    +0.000 HD
BRANCH  10  13
ATOM     13  C   UNL     1      46.171   5.000  13.568  0.00  0.00    +0.000 A 
ATOM     14  C   UNL     1      46.760   6.094  12.969  0.00  0.00    +0.000 A 
ATOM     15  N   UNL     1      45.961   6.803  12.092  0.00  0.00    +0.000 NA
ATOM     16  C   UNL     1      44.774   6.240  12.042  0.00  0.00    +0.000 A 
ATOM     17  S   UNL     1      44.557   4.845  13.013  0.00  0.00    +0.000 S 
ENDBRANCH  10  13
ENDBRANCH   8   9
ENDBRANCH   5   8
ENDBRANCH   1   2
BRANCH   1  18
ATOM     18  N   UNL     1      51.940   7.571  18.998  0.00  0.00    +0.000 N 
ATOM     19  C   UNL     1      51.741   8.838  18.423  0.00  0.00    +0.000 C 
ATOM     20  O   UNL     1      51.718   9.859  19.108  0.00  0.00    +0.000 OA
BRANCH  19  21
ATOM     21  C   UNL     1      51.497   8.953  16.985  0.00  0.00    +0.000 A 
ATOM     22  C   UNL     1      52.461   8.768  16.008  0.00  0.00    +0.000 A 
ATOM     23  S   UNL     1      51.832   8.822  14.419  0.00  0.00    +0.000 S 
ATOM     24  C   UNL     1      50.239   8.977  14.997  0.00  0.00    +0.000 A 
ATOM     25  N   UNL     1      49.177   8.973  14.148  0.00  0.00    +0.000 NA
ATOM     26  C   UNL     1      48.029   9.021  14.739  0.00  0.00    +0.000 A 
ATOM     27  N   UNL     1      47.848   9.115  16.097  0.00  0.00    +0.000 N 
ATOM     28  C   UNL     1      48.894   9.264  16.982  0.00  0.00    +0.000 A 
ATOM     29  O   UNL     1      48.699   9.594  18.146  0.00  0.00    +0.000 OA
ATOM     30  C   UNL     1      50.199   9.084  16.374  0.00  0.00    +0.000 A 
ATOM     31  H   UNL     1      46.924   9.223  16.487  0.00  0.00    +0.000 HD
ENDBRANCH  19  21
BRANCH  18  33
ATOM     32  C   UNL     1      53.166   6.677  20.981  0.00  0.00    +0.000 C 
ATOM     33  C   UNL     1      52.029   7.553  20.467  0.00  0.00    +0.000 C 
ENDBRANCH  18  33
ENDBRANCH   1  18
TORSDOF 7
ENDMDL
MODEL 9
REMARK VINA RESULT:    -5.336     10.527     13.038
REMARK INTER + INTRA:          -8.781
REMARK INTER:                  -6.197
REMARK INTRA:                  -2.584
REMARK UNBOUND:                -1.261
REMARK  Name = 
REMARK  8 active torsions:
REMARK  status: ('A' for Active; 'I' for Inactive)
REMARK    1  A    between atoms: C_1  and  C_2
REMARK    2  A    between atoms: C_2  and  N_3
REMARK    3  A    between atoms: N_3  and  C_4
REMARK    4  A    between atoms: C_4  and  C_5
REMARK    5  A    between atoms: C_8  and  C_9
REMARK    6  A    between atoms: C_9  and  N_10
REMARK    7  A    between atoms: C_11  and  C_13
REMARK    8  A    between atoms: C_20  and  C_22
REMARK                            x       y       z     vdW  Elec       q    Type
REMARK                         _______ _______ _______ _____ _____    ______ ____
ROOT
ATOM      1  C   UNL     1      38.610  -4.071  12.447  0.00  0.00    +0.000 C 
ENDROOT
BRANCH   1   2
ATOM      2  C   UNL     1      37.708  -3.569  13.549  0.00  0.00    +0.000 A 
ATOM      3  C   UNL     1      37.087  -2.315  13.451  0.00  0.00    +0.000 A 
ATOM      4  C   UNL     1      36.499  -1.732  14.575  0.00  0.00    +0.000 A 
ATOM      5  C   UNL     1      36.527  -2.399  15.804  0.00  0.00    +0.000 A 
ATOM      6  C   UNL     1      36.993  -3.719  15.856  0.00  0.00    +0.000 A 
ATOM      7  C   UNL     1      37.583  -4.301  14.735  0.00  0.00    +0.000 A 
BRANCH   5   8
ATOM      8  C   UNL     1      36.169  -1.678  17.075  0.00  0.00    +0.000 C 
BRANCH   8   9
ATOM      9  N   UNL     1      36.508  -0.283  17.044  0.00  0.00    +0.000 N 
ATOM     10  C   UNL     1      37.633   0.170  17.702  0.00  0.00    +0.000 C 
ATOM     11  O   UNL     1      38.361  -0.595  18.327  0.00  0.00    +0.000 OA
ATOM     12  H   UNL     1      35.977   0.350  16.464  0.00  0.00    +0.000 HD
BRANCH  10  13
ATOM     13  C   UNL     1      37.892   1.593  17.601  0.00  0.00    +0.000 A 
ATOM     14  C   UNL     1      37.671   2.404  16.507  0.00  0.00    +0.000 A 
ATOM     15  N   UNL     1      38.021   3.732  16.660  0.00  0.00    +0.000 NA
ATOM     16  C   UNL     1      38.506   3.910  17.869  0.00  0.00    +0.000 A 
ATOM     17  S   UNL     1      38.557   2.526  18.876  0.00  0.00    +0.000 S 
ENDBRANCH  10  13
ENDBRANCH   8   9
ENDBRANCH   5   8
ENDBRANCH   1   2
BRANCH   1  18
ATOM     18  N   UNL     1      39.723  -3.176  12.067  0.00  0.00    +0.000 N 
ATOM     19  C   UNL     1      40.911  -3.044  12.807  0.00  0.00    +0.000 C 
ATOM     20  O   UNL     1      41.793  -2.254  12.472  0.00  0.00    +0.000 OA
BRANCH  19  21
ATOM     21  C   UNL     1      41.142  -3.900  13.971  0.00  0.00    +0.000 A 
ATOM     22  C   UNL     1      41.698  -5.166  13.916  0.00  0.00    +0.000 A 
ATOM     23  S   UNL     1      41.975  -5.851  15.457  0.00  0.00    +0.000 S 
ATOM     24  C   UNL     1      41.467  -4.428  16.240  0.00  0.00    +0.000 A 
ATOM     25  N   UNL     1      41.551  -4.297  17.591  0.00  0.00    +0.000 NA
ATOM     26  C   UNL     1      41.200  -3.133  18.031  0.00  0.00    +0.000 A 
ATOM     27  N   UNL     1      40.736  -2.105  17.249  0.00  0.00    +0.000 N 
ATOM     28  C   UNL     1      40.502  -2.240  15.898  0.00  0.00    +0.000 A 
ATOM     29  O   UNL     1      39.860  -1.401  15.277  0.00  0.00    +0.000 OA
ATOM     30  C   UNL     1      41.004  -3.485  15.343  0.00  0.00    +0.000 A 
ATOM     31  H   UNL     1      40.410  -1.247  17.666  0.00  0.00    +0.000 HD
ENDBRANCH  19  21
BRANCH  18  33
ATOM     32  C   UNL     1      38.846  -3.053   9.733  0.00  0.00    +0.000 C 
ATOM     33  C   UNL     1      39.657  -2.376  10.833  0.00  0.00    +0.000 C 
ENDBRANCH  18  33
ENDBRANCH   1  18
TORSDOF 7
ENDMDL
