MODEL 1
REMARK VINA RESULT:    -7.332      0.000      0.000
REMARK INTER + INTRA:         -11.715
REMARK INTER:                 -10.547
REMARK INTRA:                  -1.168
REMARK UNBOUND:                -1.168
REMARK  Name = 
REMARK  9 active torsions:
REMARK  status: ('A' for Active; 'I' for Inactive)
REMARK    1  A    between atoms: C_1  and  N_2
REMARK    2  A    between atoms: N_2  and  C_3
REMARK    3  A    between atoms: C_3  and  C_4
REMARK    4  A    between atoms: C_7  and  C_8
REMARK    5  A    between atoms: C_8  and  N_9
REMARK    6  A    between atoms: N_9  and  C_10
REMARK    7  A    between atoms: C_10  and  C_11
REMARK    8  A    between atoms: C_11  and  O_12
REMARK    9  A    between atoms: C_19  and  C_21
REMARK                            x       y       z     vdW  Elec       q    Type
REMARK                         _______ _______ _______ _____ _____    ______ ____
ROOT
ATOM      1  C   UNL     1      47.120   5.711  13.483  0.00  0.00    +0.000 A 
ATOM      2  C   UNL     1      47.967   6.436  14.322  0.00  0.00    +0.000 A 
ATOM      3  C   UNL     1      48.256   5.942  15.588  0.00  0.00    +0.000 A 
ATOM      4  C   UNL     1      47.681   4.737  15.985  0.00  0.00    +0.000 A 
ATOM      5  N   UNL     1      46.836   4.031  15.194  0.00  0.00    +0.000 NA
ATOM      6  C   UNL     1      46.580   4.525  13.969  0.00  0.00    +0.000 A 
ENDROOT
BRANCH   1   7
ATOM      7  C   UNL     1      46.800   6.179  12.098  0.00  0.00    +0.000 C 
BRANCH   7   9
ATOM      8  C   UNL     1      45.697   8.456  12.051  0.00  0.00    +0.000 C 
ATOM      9  N   UNL     1      45.601   7.007  11.928  0.00  0.00    +0.000 N 
ATOM     10  C   UNL     1      44.395   6.502  11.412  0.00  0.00    +0.000 C 
ATOM     11  O   UNL     1      43.473   7.248  11.094  0.00  0.00    +0.000 OA
BRANCH  10  12
ATOM     12  C   UNL     1      44.223   5.045  11.291  0.00  0.00    +0.000 A 
ATOM     13  C   UNL     1      43.478   4.270  12.163  0.00  0.00    +0.000 A 
ATOM     14  S   UNL     1      43.410   2.622  11.724  0.00  0.00    +0.000 S 
ATOM     15  C   UNL     1      44.252   2.921  10.275  0.00  0.00    +0.000 A 
ATOM     16  N   UNL     1      44.443   1.936   9.359  0.00  0.00    +0.000 NA
ATOM     17  C   UNL     1      45.036   2.329   8.282  0.00  0.00    +0.000 A 
ATOM     18  N   UNL     1      45.490   3.603   8.053  0.00  0.00    +0.000 N 
ATOM     19  C   UNL     1      45.438   4.600   9.007  0.00  0.00    +0.000 A 
ATOM     20  O   UNL     1      46.059   5.643   8.864  0.00  0.00    +0.000 OA
ATOM     21  C   UNL     1      44.665   4.238  10.182  0.00  0.00    +0.000 A 
ATOM     22  H   UNL     1      46.009   3.825   7.219  0.00  0.00    +0.000 HD
ENDBRANCH  10  12
ENDBRANCH   7   9
ENDBRANCH   1   7
BRANCH   4  23
ATOM     23  C   UNL     1      48.027   4.119  17.317  0.00  0.00    +0.000 C 
BRANCH  23  24
ATOM     24  N   UNL     1      49.249   4.688  17.918  0.00  0.00    +0.000 NA
ATOM     25  H   UNL     1      49.661   5.311  17.219  0.00  0.00    +0.000 HD
BRANCH  24  26
ATOM     26  C   UNL     1      48.961   5.475  19.139  0.00  0.00    +0.000 C 
ATOM     27  C   UNL     1      47.495   5.933  19.237  0.00  0.00    +0.000 C 
ATOM     28  C   UNL     1      47.510   7.174  20.119  0.00  0.00    +0.000 C 
ATOM     29  C   UNL     1      48.926   7.743  20.023  0.00  0.00    +0.000 C 
ATOM     30  C   UNL     1      49.683   6.836  19.050  0.00  0.00    +0.000 C 
BRANCH  26  31
ATOM     31  C   UNL     1      49.404   4.697  20.412  0.00  0.00    +0.000 C 
BRANCH  31  32
ATOM     32  O   UNL     1      48.417   3.741  20.799  0.00  0.00    +0.000 OA
ATOM     33  H   UNL     1      47.697   3.838  20.147  0.00  0.00    +0.000 HD
ENDBRANCH  31  32
ENDBRANCH  26  31
ENDBRANCH  24  26
ENDBRANCH  23  24
ENDBRANCH   4  23
TORSDOF 8
ENDMDL
MODEL 2
REMARK VINA RESULT:    -6.949      1.969      2.579
REMARK INTER + INTRA:         -11.164
REMARK INTER:                  -9.721
REMARK INTRA:                  -1.443
REMARK UNBOUND:                -1.168
REMARK  Name = 
REMARK  9 active torsions:
REMARK  status: ('A' for Active; 'I' for Inactive)
REMARK    1  A    between atoms: C_1  and  N_2
REMARK    2  A    between atoms: N_2  and  C_3
REMARK    3  A    between atoms: C_3  and  C_4
REMARK    4  A    between atoms: C_7  and  C_8
REMARK    5  A    between atoms: C_8  and  N_9
REMARK    6  A    between atoms: N_9  and  C_10
REMARK    7  A    between atoms: C_10  and  C_11
REMARK    8  A    between atoms: C_11  and  O_12
REMARK    9  A    between atoms: C_19  and  C_21
REMARK                            x       y       z     vdW  Elec       q    Type
REMARK                         _______ _______ _______ _____ _____    ______ ____
ROOT
ATOM      1  C   UNL     1      47.465   5.790  13.664  0.00  0.00    +0.000 A 
ATOM      2  C   UNL     1      46.906   4.693  14.320  0.00  0.00    +0.000 A 
ATOM      3  C   UNL     1      47.307   4.399  15.618  0.00  0.00    +0.000 A 
ATOM      4  C   UNL     1      48.265   5.209  16.223  0.00  0.00    +0.000 A 
ATOM      5  N   UNL     1      48.838   6.264  15.594  0.00  0.00    +0.000 NA
ATOM      6  C   UNL     1      48.426   6.533  14.341  0.00  0.00    +0.000 A 
ENDROOT
BRANCH   1   7
ATOM      7  C   UNL     1      47.047   6.172  12.279  0.00  0.00    +0.000 C 
BRANCH   7   9
ATOM      8  C   UNL     1      46.122   8.527  12.258  0.00  0.00    +0.000 C 
ATOM      9  N   UNL     1      45.910   7.089  12.148  0.00  0.00    +0.000 N 
ATOM     10  C   UNL     1      44.650   6.677  11.679  0.00  0.00    +0.000 C 
ATOM     11  O   UNL     1      43.778   7.491  11.391  0.00  0.00    +0.000 OA
BRANCH  10  12
ATOM     12  C   UNL     1      44.362   5.238  11.574  0.00  0.00    +0.000 A 
ATOM     13  C   UNL     1      43.640   4.513  12.506  0.00  0.00    +0.000 A 
ATOM     14  S   UNL     1      43.414   2.877  12.074  0.00  0.00    +0.000 S 
ATOM     15  C   UNL     1      44.149   3.124  10.559  0.00  0.00    +0.000 A 
ATOM     16  N   UNL     1      44.190   2.133   9.629  0.00  0.00    +0.000 NA
ATOM     17  C   UNL     1      44.716   2.489   8.506  0.00  0.00    +0.000 A 
ATOM     18  N   UNL     1      45.241   3.728   8.239  0.00  0.00    +0.000 N 
ATOM     19  C   UNL     1      45.343   4.719   9.194  0.00  0.00    +0.000 A 
ATOM     20  O   UNL     1      46.025   5.716   8.999  0.00  0.00    +0.000 OA
ATOM     21  C   UNL     1      44.649   4.407  10.431  0.00  0.00    +0.000 A 
ATOM     22  H   UNL     1      45.703   3.916   7.364  0.00  0.00    +0.000 HD
ENDBRANCH  10  12
ENDBRANCH   7   9
ENDBRANCH   1   7
BRANCH   4  23
ATOM     23  C   UNL     1      48.674   4.981  17.658  0.00  0.00    +0.000 C 
BRANCH  23  24
ATOM     24  N   UNL     1      49.847   5.781  18.058  0.00  0.00    +0.000 NA
ATOM     25  H   UNL     1      49.712   6.035  19.040  0.00  0.00    +0.000 HD
BRANCH  24  26
ATOM     26  C   UNL     1      51.113   5.021  17.939  0.00  0.00    +0.000 C 
ATOM     27  C   UNL     1      50.903   3.544  17.560  0.00  0.00    +0.000 C 
ATOM     28  C   UNL     1      52.130   2.808  18.082  0.00  0.00    +0.000 C 
ATOM     29  C   UNL     1      52.695   3.674  19.208  0.00  0.00    +0.000 C 
ATOM     30  C   UNL     1      51.752   4.872  19.336  0.00  0.00    +0.000 C 
BRANCH  26  31
ATOM     31  C   UNL     1      52.091   5.731  16.959  0.00  0.00    +0.000 C 
BRANCH  31  32
ATOM     32  O   UNL     1      51.540   6.960  16.484  0.00  0.00    +0.000 OA
ATOM     33  H   UNL     1      50.688   6.718  16.074  0.00  0.00    +0.000 HD
ENDBRANCH  31  32
ENDBRANCH  26  31
ENDBRANCH  24  26
ENDBRANCH  23  24
ENDBRANCH   4  23
TORSDOF 8
ENDMDL
MODEL 3
REMARK VINA RESULT:    -6.675      2.865      8.406
REMARK INTER + INTRA:         -10.770
REMARK INTER:                  -9.502
REMARK INTRA:                  -1.268
REMARK UNBOUND:                -1.168
REMARK  Name = 
REMARK  9 active torsions:
REMARK  status: ('A' for Active; 'I' for Inactive)
REMARK    1  A    between atoms: C_1  and  N_2
REMARK    2  A    between atoms: N_2  and  C_3
REMARK    3  A    between atoms: C_3  and  C_4
REMARK    4  A    between atoms: C_7  and  C_8
REMARK    5  A    between atoms: C_8  and  N_9
REMARK    6  A    between atoms: N_9  and  C_10
REMARK    7  A    between atoms: C_10  and  C_11
REMARK    8  A    between atoms: C_11  and  O_12
REMARK    9  A    between atoms: C_19  and  C_21
REMARK                            x       y       z     vdW  Elec       q    Type
REMARK                         _______ _______ _______ _____ _____    ______ ____
ROOT
ATOM      1  C   UNL     1      48.604   7.796  14.822  0.00  0.00    +0.000 A 
ATOM      2  C   UNL     1      47.614   8.584  14.233  0.00  0.00    +0.000 A 
ATOM      3  C   UNL     1      46.896   8.082  13.156  0.00  0.00    +0.000 A 
ATOM      4  C   UNL     1      47.194   6.803  12.689  0.00  0.00    +0.000 A 
ATOM      5  N   UNL     1      48.169   6.032  13.231  0.00  0.00    +0.000 NA
ATOM      6  C   UNL     1      48.843   6.538  14.280  0.00  0.00    +0.000 A 
ENDROOT
BRANCH   1   7
ATOM      7  C   UNL     1      49.386   8.274  16.005  0.00  0.00    +0.000 C 
BRANCH   7   9
ATOM      8  C   UNL     1      47.758   9.256  17.676  0.00  0.00    +0.000 C 
ATOM      9  N   UNL     1      48.723   8.226  17.314  0.00  0.00    +0.000 N 
ATOM     10  C   UNL     1      48.783   7.101  18.155  0.00  0.00    +0.000 C 
ATOM     11  O   UNL     1      48.065   7.006  19.147  0.00  0.00    +0.000 OA
BRANCH  10  12
ATOM     12  C   UNL     1      49.758   6.039  17.861  0.00  0.00    +0.000 A 
ATOM     13  C   UNL     1      51.111   6.117  18.142  0.00  0.00    +0.000 A 
ATOM     14  S   UNL     1      51.974   4.699  17.746  0.00  0.00    +0.000 S 
ATOM     15  C   UNL     1      50.541   3.885  17.323  0.00  0.00    +0.000 A 
ATOM     16  N   UNL     1      50.556   2.568  16.987  0.00  0.00    +0.000 NA
ATOM     17  C   UNL     1      49.387   2.071  16.759  0.00  0.00    +0.000 A 
ATOM     18  N   UNL     1      48.211   2.776  16.795  0.00  0.00    +0.000 N 
ATOM     19  C   UNL     1      48.162   4.141  16.997  0.00  0.00    +0.000 A 
ATOM     20  O   UNL     1      47.137   4.774  16.787  0.00  0.00    +0.000 OA
ATOM     21  C   UNL     1      49.438   4.716  17.385  0.00  0.00    +0.000 A 
ATOM     22  H   UNL     1      47.340   2.343  16.534  0.00  0.00    +0.000 HD
ENDBRANCH  10  12
ENDBRANCH   7   9
ENDBRANCH   1   7
BRANCH   4  23
ATOM     23  C   UNL     1      46.388   6.181  11.575  0.00  0.00    +0.000 C 
BRANCH  23  24
ATOM     24  N   UNL     1      45.599   5.015  12.015  0.00  0.00    +0.000 NA
ATOM     25  H   UNL     1      44.971   5.343  12.754  0.00  0.00    +0.000 HD
BRANCH  24  26
ATOM     26  C   UNL     1      44.778   4.446  10.921  0.00  0.00    +0.000 C 
ATOM     27  C   UNL     1      44.974   2.930  10.739  0.00  0.00    +0.000 C 
ATOM     28  C   UNL     1      44.609   2.639   9.290  0.00  0.00    +0.000 C 
ATOM     29  C   UNL     1      44.792   3.957   8.536  0.00  0.00    +0.000 C 
ATOM     30  C   UNL     1      45.300   4.968   9.566  0.00  0.00    +0.000 C 
BRANCH  26  31
ATOM     31  C   UNL     1      43.278   4.810  11.112  0.00  0.00    +0.000 C 
BRANCH  31  32
ATOM     32  O   UNL     1      42.993   6.109  10.589  0.00  0.00    +0.000 OA
ATOM     33  H   UNL     1      43.697   6.280   9.934  0.00  0.00    +0.000 HD
ENDBRANCH  31  32
ENDBRANCH  26  31
ENDBRANCH  24  26
ENDBRANCH  23  24
ENDBRANCH   4  23
TORSDOF 8
ENDMDL
MODEL 4
REMARK VINA RESULT:    -6.604      3.189      9.147
REMARK INTER + INTRA:         -10.668
REMARK INTER:                  -9.775
REMARK INTRA:                  -0.894
REMARK UNBOUND:                -1.168
REMARK  Name = 
REMARK  9 active torsions:
REMARK  status: ('A' for Active; 'I' for Inactive)
REMARK    1  A    between atoms: C_1  and  N_2
REMARK    2  A    between atoms: N_2  and  C_3
REMARK    3  A    between atoms: C_3  and  C_4
REMARK    4  A    between atoms: C_7  and  C_8
REMARK    5  A    between atoms: C_8  and  N_9
REMARK    6  A    between atoms: N_9  and  C_10
REMARK    7  A    between atoms: C_10  and  C_11
REMARK    8  A    between atoms: C_11  and  O_12
REMARK    9  A    between atoms: C_19  and  C_21
REMARK                            x       y       z     vdW  Elec       q    Type
REMARK                         _______ _______ _______ _____ _____    ______ ____
ROOT
ATOM      1  C   UNL     1      48.570   6.044  15.634  0.00  0.00    +0.000 A 
ATOM      2  C   UNL     1      48.433   6.678  14.399  0.00  0.00    +0.000 A 
ATOM      3  C   UNL     1      47.545   6.161  13.464  0.00  0.00    +0.000 A 
ATOM      4  C   UNL     1      46.821   5.016  13.788  0.00  0.00    +0.000 A 
ATOM      5  N   UNL     1      46.959   4.371  14.973  0.00  0.00    +0.000 NA
ATOM      6  C   UNL     1      47.819   4.896  15.865  0.00  0.00    +0.000 A 
ENDROOT
BRANCH   1   7
ATOM      7  C   UNL     1      49.488   6.575  16.690  0.00  0.00    +0.000 C 
BRANCH   7   9
ATOM      8  C   UNL     1      47.819   6.950  18.555  0.00  0.00    +0.000 C 
ATOM      9  N   UNL     1      49.082   6.392  18.088  0.00  0.00    +0.000 N 
ATOM     10  C   UNL     1      49.729   5.496  18.957  0.00  0.00    +0.000 C 
ATOM     11  O   UNL     1      49.254   5.213  20.053  0.00  0.00    +0.000 OA
BRANCH  10  12
ATOM     12  C   UNL     1      51.023   4.921  18.557  0.00  0.00    +0.000 A 
ATOM     13  C   UNL     1      52.244   5.552  18.720  0.00  0.00    +0.000 A 
ATOM     14  S   UNL     1      53.574   4.604  18.222  0.00  0.00    +0.000 S 
ATOM     15  C   UNL     1      52.569   3.267  17.910  0.00  0.00    +0.000 A 
ATOM     16  N   UNL     1      53.092   2.066  17.548  0.00  0.00    +0.000 NA
ATOM     17  C   UNL     1      52.214   1.130  17.414  0.00  0.00    +0.000 A 
ATOM     18  N   UNL     1      50.860   1.292  17.567  0.00  0.00    +0.000 N 
ATOM     19  C   UNL     1      50.275   2.521  17.800  0.00  0.00    +0.000 A 
ATOM     20  O   UNL     1      49.066   2.674  17.693  0.00  0.00    +0.000 OA
ATOM     21  C   UNL     1      51.232   3.575  18.085  0.00  0.00    +0.000 A 
ATOM     22  H   UNL     1      50.224   0.535  17.375  0.00  0.00    +0.000 HD
ENDBRANCH  10  12
ENDBRANCH   7   9
ENDBRANCH   1   7
BRANCH   4  23
ATOM     23  C   UNL     1      45.785   4.463  12.840  0.00  0.00    +0.000 C 
BRANCH  23  24
ATOM     24  N   UNL     1      45.642   5.265  11.610  0.00  0.00    +0.000 NA
ATOM     25  H   UNL     1      46.584   5.397  11.231  0.00  0.00    +0.000 HD
BRANCH  24  26
ATOM     26  C   UNL     1      44.815   4.584  10.587  0.00  0.00    +0.000 C 
ATOM     27  C   UNL     1      44.877   3.048  10.678  0.00  0.00    +0.000 C 
ATOM     28  C   UNL     1      44.542   2.540   9.282  0.00  0.00    +0.000 C 
ATOM     29  C   UNL     1      44.874   3.686   8.325  0.00  0.00    +0.000 C 
ATOM     30  C   UNL     1      45.434   4.815   9.193  0.00  0.00    +0.000 C 
BRANCH  26  31
ATOM     31  C   UNL     1      43.348   5.101  10.633  0.00  0.00    +0.000 C 
BRANCH  31  32
ATOM     32  O   UNL     1      42.560   4.332  11.541  0.00  0.00    +0.000 OA
ATOM     33  H   UNL     1      41.830   4.922  11.810  0.00  0.00    +0.000 HD
ENDBRANCH  31  32
ENDBRANCH  26  31
ENDBRANCH  24  26
ENDBRANCH  23  24
ENDBRANCH   4  23
TORSDOF 8
ENDMDL
MODEL 5
REMARK VINA RESULT:    -6.153      3.184      8.373
REMARK INTER + INTRA:         -10.019
REMARK INTER:                  -8.756
REMARK INTRA:                  -1.263
REMARK UNBOUND:                -1.168
REMARK  Name = 
REMARK  9 active torsions:
REMARK  status: ('A' for Active; 'I' for Inactive)
REMARK    1  A    between atoms: C_1  and  N_2
REMARK    2  A    between atoms: N_2  and  C_3
REMARK    3  A    between atoms: C_3  and  C_4
REMARK    4  A    between atoms: C_7  and  C_8
REMARK    5  A    between atoms: C_8  and  N_9
REMARK    6  A    between atoms: N_9  and  C_10
REMARK    7  A    between atoms: C_10  and  C_11
REMARK    8  A    between atoms: C_11  and  O_12
REMARK    9  A    between atoms: C_19  and  C_21
REMARK                            x       y       z     vdW  Elec       q    Type
REMARK                         _______ _______ _______ _____ _____    ______ ____
ROOT
ATOM      1  C   UNL     1      48.016   8.510  14.162  0.00  0.00    +0.000 A 
ATOM      2  C   UNL     1      48.573   7.300  13.749  0.00  0.00    +0.000 A 
ATOM      3  C   UNL     1      47.965   6.586  12.724  0.00  0.00    +0.000 A 
ATOM      4  C   UNL     1      46.808   7.099  12.144  0.00  0.00    +0.000 A 
ATOM      5  N   UNL     1      46.236   8.261  12.548  0.00  0.00    +0.000 NA
ATOM      6  C   UNL     1      46.850   8.938  13.536  0.00  0.00    +0.000 A 
ENDROOT
BRANCH   1   7
ATOM      7  C   UNL     1      48.645   9.336  15.239  0.00  0.00    +0.000 C 
BRANCH   7   9
ATOM      8  C   UNL     1      51.112   9.443  14.681  0.00  0.00    +0.000 C 
ATOM      9  N   UNL     1      50.041   9.041  15.584  0.00  0.00    +0.000 N 
ATOM     10  C   UNL     1      50.431   8.602  16.862  0.00  0.00    +0.000 C 
ATOM     11  O   UNL     1      51.614   8.551  17.186  0.00  0.00    +0.000 OA
BRANCH  10  12
ATOM     12  C   UNL     1      49.399   8.153  17.810  0.00  0.00    +0.000 A 
ATOM     13  C   UNL     1      48.789   8.969  18.747  0.00  0.00    +0.000 A 
ATOM     14  S   UNL     1      47.583   8.178  19.659  0.00  0.00    +0.000 S 
ATOM     15  C   UNL     1      47.738   6.761  18.730  0.00  0.00    +0.000 A 
ATOM     16  N   UNL     1      46.906   5.703  18.919  0.00  0.00    +0.000 NA
ATOM     17  C   UNL     1      47.100   4.729  18.095  0.00  0.00    +0.000 A 
ATOM     18  N   UNL     1      48.072   4.697  17.128  0.00  0.00    +0.000 N 
ATOM     19  C   UNL     1      49.024   5.688  16.989  0.00  0.00    +0.000 A 
ATOM     20  O   UNL     1      50.011   5.521  16.288  0.00  0.00    +0.000 OA
ATOM     21  C   UNL     1      48.765   6.859  17.809  0.00  0.00    +0.000 A 
ATOM     22  H   UNL     1      48.215   3.874  16.566  0.00  0.00    +0.000 HD
ENDBRANCH  10  12
ENDBRANCH   7   9
ENDBRANCH   1   7
BRANCH   4  23
ATOM     23  C   UNL     1      46.156   6.403  10.974  0.00  0.00    +0.000 C 
BRANCH  23  24
ATOM     24  N   UNL     1      44.683   6.487  11.000  0.00  0.00    +0.000 NA
ATOM     25  H   UNL     1      44.385   6.752  10.058  0.00  0.00    +0.000 HD
BRANCH  24  26
ATOM     26  C   UNL     1      44.052   5.192  11.346  0.00  0.00    +0.000 C 
ATOM     27  C   UNL     1      44.905   4.335  12.299  0.00  0.00    +0.000 C 
ATOM     28  C   UNL     1      44.474   2.895  12.053  0.00  0.00    +0.000 C 
ATOM     29  C   UNL     1      43.879   2.868  10.645  0.00  0.00    +0.000 C 
ATOM     30  C   UNL     1      44.021   4.289  10.096  0.00  0.00    +0.000 C 
BRANCH  26  31
ATOM     31  C   UNL     1      42.616   5.413  11.904  0.00  0.00    +0.000 C 
BRANCH  31  32
ATOM     32  O   UNL     1      42.644   5.660  13.310  0.00  0.00    +0.000 OA
ATOM     33  H   UNL     1      43.305   5.036  13.667  0.00  0.00    +0.000 HD
ENDBRANCH  31  32
ENDBRANCH  26  31
ENDBRANCH  24  26
ENDBRANCH  23  24
ENDBRANCH   4  23
TORSDOF 8
ENDMDL
MODEL 6
REMARK VINA RESULT:    -5.623      3.394      9.332
REMARK INTER + INTRA:          -9.257
REMARK INTER:                  -7.906
REMARK INTRA:                  -1.351
REMARK UNBOUND:                -1.168
REMARK  Name = 
REMARK  9 active torsions:
REMARK  status: ('A' for Active; 'I' for Inactive)
REMARK    1  A    between atoms: C_1  and  N_2
REMARK    2  A    between atoms: N_2  and  C_3
REMARK    3  A    between atoms: C_3  and  C_4
REMARK    4  A    between atoms: C_7  and  C_8
REMARK    5  A    between atoms: C_8  and  N_9
REMARK    6  A    between atoms: N_9  and  C_10
REMARK    7  A    between atoms: C_10  and  C_11
REMARK    8  A    between atoms: C_11  and  O_12
REMARK    9  A    between atoms: C_19  and  C_21
REMARK                            x       y       z     vdW  Elec       q    Type
REMARK                         _______ _______ _______ _____ _____    ______ ____
ROOT
ATOM      1  C   UNL     1      48.197   4.086  16.605  0.00  0.00    +0.000 A 
ATOM      2  C   UNL     1      47.517   3.244  15.724  0.00  0.00    +0.000 A 
ATOM      3  C   UNL     1      46.964   3.775  14.566  0.00  0.00    +0.000 A 
ATOM      4  C   UNL     1      47.099   5.140  14.322  0.00  0.00    +0.000 A 
ATOM      5  N   UNL     1      47.733   5.979  15.178  0.00  0.00    +0.000 NA
ATOM      6  C   UNL     1      48.268   5.439  16.288  0.00  0.00    +0.000 A 
ENDROOT
BRANCH   1   7
ATOM      7  C   UNL     1      48.840   3.564  17.850  0.00  0.00    +0.000 C 
BRANCH   7   9
ATOM      8  C   UNL     1      50.636   1.998  16.999  0.00  0.00    +0.000 C 
ATOM      9  N   UNL     1      50.252   3.176  17.767  0.00  0.00    +0.000 N 
ATOM     10  C   UNL     1      51.298   4.017  18.188  0.00  0.00    +0.000 C 
ATOM     11  O   UNL     1      52.470   3.758  17.928  0.00  0.00    +0.000 OA
BRANCH  10  12
ATOM     12  C   UNL     1      50.979   5.206  18.992  0.00  0.00    +0.000 A 
ATOM     13  C   UNL     1      50.666   5.179  20.340  0.00  0.00    +0.000 A 
ATOM     14  S   UNL     1      50.410   6.727  21.013  0.00  0.00    +0.000 S 
ATOM     15  C   UNL     1      50.854   7.489  19.557  0.00  0.00    +0.000 A 
ATOM     16  N   UNL     1      50.955   8.842  19.476  0.00  0.00    +0.000 NA
ATOM     17  C   UNL     1      51.368   9.269  18.330  0.00  0.00    +0.000 A 
ATOM     18  N   UNL     1      51.649   8.474  17.248  0.00  0.00    +0.000 N 
ATOM     19  C   UNL     1      51.432   7.111  17.243  0.00  0.00    +0.000 A 
ATOM     20  O   UNL     1      51.463   6.471  16.201  0.00  0.00    +0.000 OA
ATOM     21  C   UNL     1      51.092   6.573  18.548  0.00  0.00    +0.000 A 
ATOM     22  H   UNL     1      51.898   8.880  16.360  0.00  0.00    +0.000 HD
ENDBRANCH  10  12
ENDBRANCH   7   9
ENDBRANCH   1   7
BRANCH   4  23
ATOM     23  C   UNL     1      46.587   5.750  13.040  0.00  0.00    +0.000 C 
BRANCH  23  24
ATOM     24  N   UNL     1      45.148   6.072  13.089  0.00  0.00    +0.000 NA
ATOM     25  H   UNL     1      45.052   7.045  12.787  0.00  0.00    +0.000 HD
BRANCH  24  26
ATOM     26  C   UNL     1      44.349   5.218  12.181  0.00  0.00    +0.000 C 
ATOM     27  C   UNL     1      43.586   4.099  12.913  0.00  0.00    +0.000 C 
ATOM     28  C   UNL     1      43.368   3.005  11.877  0.00  0.00    +0.000 C 
ATOM     29  C   UNL     1      44.452   3.204  10.817  0.00  0.00    +0.000 C 
ATOM     30  C   UNL     1      45.299   4.387  11.294  0.00  0.00    +0.000 C 
BRANCH  26  31
ATOM     31  C   UNL     1      43.395   6.084  11.308  0.00  0.00    +0.000 C 
BRANCH  31  32
ATOM     32  O   UNL     1      42.114   6.218  11.925  0.00  0.00    +0.000 OA
ATOM     33  H   UNL     1      42.208   5.801  12.803  0.00  0.00    +0.000 HD
ENDBRANCH  31  32
ENDBRANCH  26  31
ENDBRANCH  24  26
ENDBRANCH  23  24
ENDBRANCH   4  23
TORSDOF 8
ENDMDL
MODEL 7
REMARK VINA RESULT:    -5.619      3.353      8.483
REMARK INTER + INTRA:          -9.250
REMARK INTER:                  -8.238
REMARK INTRA:                  -1.012
REMARK UNBOUND:                -1.168
REMARK  Name = 
REMARK  9 active torsions:
REMARK  status: ('A' for Active; 'I' for Inactive)
REMARK    1  A    between atoms: C_1  and  N_2
REMARK    2  A    between atoms: N_2  and  C_3
REMARK    3  A    between atoms: C_3  and  C_4
REMARK    4  A    between atoms: C_7  and  C_8
REMARK    5  A    between atoms: C_8  and  N_9
REMARK    6  A    between atoms: N_9  and  C_10
REMARK    7  A    between atoms: C_10  and  C_11
REMARK    8  A    between atoms: C_11  and  O_12
REMARK    9  A    between atoms: C_19  and  C_21
REMARK                            x       y       z     vdW  Elec       q    Type
REMARK                         _______ _______ _______ _____ _____    ______ ____
ROOT
ATOM      1  C   UNL     1      49.346   7.949  13.583  0.00  0.00    +0.000 A 
ATOM      2  C   UNL     1      48.298   8.588  14.246  0.00  0.00    +0.000 A 
ATOM      3  C   UNL     1      47.005   8.460  13.757  0.00  0.00    +0.000 A 
ATOM      4  C   UNL     1      46.795   7.701  12.607  0.00  0.00    +0.000 A 
ATOM      5  N   UNL     1      47.803   7.094  11.934  0.00  0.00    +0.000 NA
ATOM      6  C   UNL     1      49.045   7.225  12.434  0.00  0.00    +0.000 A 
ENDROOT
BRANCH   1   7
ATOM      7  C   UNL     1      50.754   8.026  14.084  0.00  0.00    +0.000 C 
BRANCH   7   9
ATOM      8  C   UNL     1      51.265  10.409  14.765  0.00  0.00    +0.000 C 
ATOM      9  N   UNL     1      51.043   9.015  15.128  0.00  0.00    +0.000 N 
ATOM     10  C   UNL     1      50.881   8.744  16.498  0.00  0.00    +0.000 C 
ATOM     11  O   UNL     1      50.936   9.639  17.338  0.00  0.00    +0.000 OA
BRANCH  10  12
ATOM     12  C   UNL     1      50.684   7.353  16.934  0.00  0.00    +0.000 A 
ATOM     13  C   UNL     1      51.654   6.368  16.872  0.00  0.00    +0.000 A 
ATOM     14  S   UNL     1      51.148   4.869  17.514  0.00  0.00    +0.000 S 
ATOM     15  C   UNL     1      49.667   5.532  18.027  0.00  0.00    +0.000 A 
ATOM     16  N   UNL     1      48.786   4.799  18.757  0.00  0.00    +0.000 NA
ATOM     17  C   UNL     1      47.740   5.456  19.132  0.00  0.00    +0.000 A 
ATOM     18  N   UNL     1      47.474   6.763  18.811  0.00  0.00    +0.000 N 
ATOM     19  C   UNL     1      48.272   7.503  17.962  0.00  0.00    +0.000 A 
ATOM     20  O   UNL     1      47.889   8.571  17.507  0.00  0.00    +0.000 OA
ATOM     21  C   UNL     1      49.523   6.846  17.622  0.00  0.00    +0.000 A 
ATOM     22  H   UNL     1      46.603   7.193  19.076  0.00  0.00    +0.000 HD
ENDBRANCH  10  12
ENDBRANCH   7   9
ENDBRANCH   1   7
BRANCH   4  23
ATOM     23  C   UNL     1      45.400   7.465  12.082  0.00  0.00    +0.000 C 
BRANCH  23  24
ATOM     24  N   UNL     1      44.604   6.566  12.940  0.00  0.00    +0.000 NA
ATOM     25  H   UNL     1      43.830   7.121  13.314  0.00  0.00    +0.000 HD
BRANCH  24  26
ATOM     26  C   UNL     1      44.042   5.422  12.187  0.00  0.00    +0.000 C 
ATOM     27  C   UNL     1      43.497   4.304  13.094  0.00  0.00    +0.000 C 
ATOM     28  C   UNL     1      43.558   3.031  12.260  0.00  0.00    +0.000 C 
ATOM     29  C   UNL     1      44.623   3.278  11.191  0.00  0.00    +0.000 C 
ATOM     30  C   UNL     1      45.182   4.676  11.463  0.00  0.00    +0.000 C 
BRANCH  26  31
ATOM     31  C   UNL     1      42.968   5.907  11.170  0.00  0.00    +0.000 C 
BRANCH  31  32
ATOM     32  O   UNL     1      41.883   6.553  11.838  0.00  0.00    +0.000 OA
ATOM     33  H   UNL     1      41.964   7.497  11.604  0.00  0.00    +0.000 HD
ENDBRANCH  31  32
ENDBRANCH  26  31
ENDBRANCH  24  26
ENDBRANCH  23  24
ENDBRANCH   4  23
TORSDOF 8
ENDMDL
MODEL 8
REMARK VINA RESULT:    -5.339      3.421      5.068
REMARK INTER + INTRA:          -8.848
REMARK INTER:                  -7.193
REMARK INTRA:                  -1.655
REMARK UNBOUND:                -1.168
REMARK  Name = 
REMARK  9 active torsions:
REMARK  status: ('A' for Active; 'I' for Inactive)
REMARK    1  A    between atoms: C_1  and  N_2
REMARK    2  A    between atoms: N_2  and  C_3
REMARK    3  A    between atoms: C_3  and  C_4
REMARK    4  A    between atoms: C_7  and  C_8
REMARK    5  A    between atoms: C_8  and  N_9
REMARK    6  A    between atoms: N_9  and  C_10
REMARK    7  A    between atoms: C_10  and  C_11
REMARK    8  A    between atoms: C_11  and  O_12
REMARK    9  A    between atoms: C_19  and  C_21
REMARK                            x       y       z     vdW  Elec       q    Type
REMARK                         _______ _______ _______ _____ _____    ______ ____
ROOT
ATOM      1  C   UNL     1      49.531   9.443  15.399  0.00  0.00    +0.000 A 
ATOM      2  C   UNL     1      50.777   8.881  15.679  0.00  0.00    +0.000 A 
ATOM      3  C   UNL     1      50.864   7.847  16.603  0.00  0.00    +0.000 A 
ATOM      4  C   UNL     1      49.700   7.407  17.230  0.00  0.00    +0.000 A 
ATOM      5  N   UNL     1      48.484   7.958  16.990  0.00  0.00    +0.000 NA
ATOM      6  C   UNL     1      48.425   8.951  16.084  0.00  0.00    +0.000 A 
ENDROOT
BRANCH   1   7
ATOM      7  C   UNL     1      49.374  10.536  14.390  0.00  0.00    +0.000 C 
BRANCH   7   9
ATOM      8  C   UNL     1      51.310  10.641  12.763  0.00  0.00    +0.000 C 
ATOM      9  N   UNL     1      49.923  10.299  13.050  0.00  0.00    +0.000 N 
ATOM     10  C   UNL     1      49.255   9.531  12.080  0.00  0.00    +0.000 C 
ATOM     11  O   UNL     1      49.815   9.181  11.044  0.00  0.00    +0.000 OA
BRANCH  10  12
ATOM     12  C   UNL     1      47.843   9.178  12.295  0.00  0.00    +0.000 A 
ATOM     13  C   UNL     1      46.774  10.008  12.004  0.00  0.00    +0.000 A 
ATOM     14  S   UNL     1      45.253   9.293  12.300  0.00  0.00    +0.000 S 
ATOM     15  C   UNL     1      45.973   7.801  12.687  0.00  0.00    +0.000 A 
ATOM     16  N   UNL     1      45.216   6.701  12.938  0.00  0.00    +0.000 NA
ATOM     17  C   UNL     1      45.902   5.628  13.148  0.00  0.00    +0.000 A 
ATOM     18  N   UNL     1      47.272   5.561  13.170  0.00  0.00    +0.000 N 
ATOM     19  C   UNL     1      48.078   6.675  13.055  0.00  0.00    +0.000 A 
ATOM     20  O   UNL     1      49.272   6.621  13.316  0.00  0.00    +0.000 OA
ATOM     21  C   UNL     1      47.354   7.880  12.690  0.00  0.00    +0.000 A 
ATOM     22  H   UNL     1      47.743   4.704  13.412  0.00  0.00    +0.000 HD
ENDBRANCH  10  12
ENDBRANCH   7   9
ENDBRANCH   1   7
BRANCH   4  23
ATOM     23  C   UNL     1      49.730   6.235  18.179  0.00  0.00    +0.000 C 
BRANCH  23  24
ATOM     24  N   UNL     1      48.503   5.418  18.127  0.00  0.00    +0.000 NA
ATOM     25  H   UNL     1      47.997   5.695  17.281  0.00  0.00    +0.000 HD
BRANCH  24  26
ATOM     26  C   UNL     1      48.794   3.968  18.046  0.00  0.00    +0.000 C 
ATOM     27  C   UNL     1      50.291   3.657  17.870  0.00  0.00    +0.000 C 
ATOM     28  C   UNL     1      50.351   2.292  17.197  0.00  0.00    +0.000 C 
ATOM     29  C   UNL     1      49.011   2.115  16.483  0.00  0.00    +0.000 C 
ATOM     30  C   UNL     1      48.225   3.406  16.727  0.00  0.00    +0.000 C 
BRANCH  26  31
ATOM     31  C   UNL     1      48.193   3.218  19.270  0.00  0.00    +0.000 C 
BRANCH  31  32
ATOM     32  O   UNL     1      48.632   3.803  20.497  0.00  0.00    +0.000 OA
ATOM     33  H   UNL     1      49.482   3.366  20.699  0.00  0.00    +0.000 HD
ENDBRANCH  31  32
ENDBRANCH  26  31
ENDBRANCH  24  26
ENDBRANCH  23  24
ENDBRANCH   4  23
TORSDOF 8
ENDMDL
MODEL 9
REMARK VINA RESULT:    -5.148      9.794     11.688
REMARK INTER + INTRA:          -8.574
REMARK INTER:                  -6.759
REMARK INTRA:                  -1.815
REMARK UNBOUND:                -1.168
REMARK  Name = 
REMARK  9 active torsions:
REMARK  status: ('A' for Active; 'I' for Inactive)
REMARK    1  A    between atoms: C_1  and  N_2
REMARK    2  A    between atoms: N_2  and  C_3
REMARK    3  A    between atoms: C_3  and  C_4
REMARK    4  A    between atoms: C_7  and  C_8
REMARK    5  A    between atoms: C_8  and  N_9
REMARK    6  A    between atoms: N_9  and  C_10
REMARK    7  A    between atoms: C_10  and  C_11
REMARK    8  A    between atoms: C_11  and  O_12
REMARK    9  A    between atoms: C_19  and  C_21
REMARK                            x       y       z     vdW  Elec       q    Type
REMARK                         _______ _______ _______ _____ _____    ______ ____
ROOT
ATOM      1  C   UNL     1      37.721  -2.014  13.303  0.00  0.00    +0.000 A 
ATOM      2  C   UNL     1      37.155  -2.131  14.573  0.00  0.00    +0.000 A 
ATOM      3  C   UNL     1      36.641  -1.001  15.195  0.00  0.00    +0.000 A 
ATOM      4  C   UNL     1      36.716   0.222  14.533  0.00  0.00    +0.000 A 
ATOM      5  N   UNL     1      37.285   0.362  13.310  0.00  0.00    +0.000 NA
ATOM      6  C   UNL     1      37.767  -0.750  12.724  0.00  0.00    +0.000 A 
ENDROOT
BRANCH   1   7
ATOM      7  C   UNL     1      38.260  -3.203  12.572  0.00  0.00    +0.000 C 
BRANCH   7   9
ATOM      8  C   UNL     1      40.079  -2.510  10.954  0.00  0.00    +0.000 C 
ATOM      9  N   UNL     1      39.676  -3.172  12.189  0.00  0.00    +0.000 N 
ATOM     10  C   UNL     1      40.710  -3.537  13.069  0.00  0.00    +0.000 C 
ATOM     11  O   UNL     1      41.887  -3.317  12.799  0.00  0.00    +0.000 OA
BRANCH  10  12
ATOM     12  C   UNL     1      40.372  -4.236  14.319  0.00  0.00    +0.000 A 
ATOM     13  C   UNL     1      40.183  -5.603  14.425  0.00  0.00    +0.000 A 
ATOM     14  S   UNL     1      39.867  -6.127  16.019  0.00  0.00    +0.000 S 
ATOM     15  C   UNL     1      40.119  -4.561  16.637  0.00  0.00    +0.000 A 
ATOM     16  N   UNL     1      40.106  -4.325  17.975  0.00  0.00    +0.000 NA
ATOM     17  C   UNL     1      40.381  -3.105  18.296  0.00  0.00    +0.000 A 
ATOM     18  N   UNL     1      40.627  -2.093  17.403  0.00  0.00    +0.000 N 
ATOM     19  C   UNL     1      40.517  -2.256  16.037  0.00  0.00    +0.000 A 
ATOM     20  O   UNL     1      40.505  -1.291  15.285  0.00  0.00    +0.000 OA
ATOM     21  C   UNL     1      40.337  -3.639  15.630  0.00  0.00    +0.000 A 
ATOM     22  H   UNL     1      40.763  -1.147  17.720  0.00  0.00    +0.000 HD
ENDBRANCH  10  12
ENDBRANCH   7   9
ENDBRANCH   1   7
BRANCH   4  23
ATOM     23  C   UNL     1      36.101   1.464  15.131  0.00  0.00    +0.000 C 
BRANCH  23  24
ATOM     24  N   UNL     1      37.097   2.502  15.457  0.00  0.00    +0.000 NA
ATOM     25  H   UNL     1      36.651   3.406  15.282  0.00  0.00    +0.000 HD
BRANCH  24  26
ATOM     26  C   UNL     1      37.518   2.453  16.877  0.00  0.00    +0.000 C 
ATOM     27  C   UNL     1      38.513   1.318  17.177  0.00  0.00    +0.000 C 
ATOM     28  C   UNL     1      38.349   1.011  18.660  0.00  0.00    +0.000 C 
ATOM     29  C   UNL     1      36.948   1.491  19.039  0.00  0.00    +0.000 C 
ATOM     30  C   UNL     1      36.320   2.026  17.750  0.00  0.00    +0.000 C 
BRANCH  26  31
ATOM     31  C   UNL     1      38.070   3.834  17.334  0.00  0.00    +0.000 C 
BRANCH  31  32
ATOM     32  O   UNL     1      39.461   3.957  17.035  0.00  0.00    +0.000 OA
ATOM     33  H   UNL     1      39.615   4.915  16.925  0.00  0.00    +0.000 HD
ENDBRANCH  31  32
ENDBRANCH  26  31
ENDBRANCH  24  26
ENDBRANCH  23  24
ENDBRANCH   4  23
TORSDOF 8
ENDMDL
