MODEL 1
REMARK VINA RESULT:    -8.157      0.000      0.000
REMARK INTER + INTRA:         -11.939
REMARK INTER:                 -11.257
REMARK INTRA:                  -0.682
REMARK UNBOUND:                -0.682
REMARK  Name = 
REMARK  7 active torsions:
REMARK  status: ('A' for Active; 'I' for Inactive)
REMARK    1  A    between atoms: N_1  and  C_2
REMARK    2  A    between atoms: C_2  and  C_3
REMARK    3  A    between atoms: C_3  and  N_4
REMARK    4  A    between atoms: C_3  and  C_17
REMARK    5  A    between atoms: C_5  and  C_7
REMARK    6  A    between atoms: C_20  and  O_21
REMARK    7  A    between atoms: O_21  and  C_22
REMARK                            x       y       z     vdW  Elec       q    Type
REMARK                         _______ _______ _______ _____ _____    ______ ____
ROOT
ATOM      1  C   UNL     1      46.376   6.962  12.745  0.00  0.00    +0.000 C 
ENDROOT
BRANCH   1   2
ATOM      2  C   UNL     1      45.911   5.925  11.716  0.00  0.00    +0.000 A 
ATOM      3  C   UNL     1      45.338   4.723  12.158  0.00  0.00    +0.000 A 
ATOM      4  C   UNL     1      44.912   3.755  11.246  0.00  0.00    +0.000 A 
ATOM      5  C   UNL     1      44.987   3.997   9.873  0.00  0.00    +0.000 A 
ATOM      6  C   UNL     1      45.588   5.169   9.416  0.00  0.00    +0.000 A 
ATOM      7  C   UNL     1      46.061   6.118  10.329  0.00  0.00    +0.000 A 
BRANCH   5   8
ATOM      8  O   UNL     1      44.566   3.102   8.915  0.00  0.00    +0.000 OA
BRANCH   8   9
ATOM      9  C   UNL     1      45.525   2.519   8.092  0.00  0.00    +0.000 A 
ATOM     10  C   UNL     1      45.898   3.240   6.967  0.00  0.00    +0.000 A 
ATOM     11  C   UNL     1      46.878   2.704   6.134  0.00  0.00    +0.000 A 
ATOM     12  C   UNL     1      47.441   1.472   6.451  0.00  0.00    +0.000 A 
ATOM     13  C   UNL     1      46.984   0.812   7.578  0.00  0.00    +0.000 A 
ATOM     14  N   UNL     1      46.028   1.300   8.394  0.00  0.00    +0.000 NA
ENDBRANCH   8   9
ENDBRANCH   5   8
ENDBRANCH   1   2
BRANCH   1  15
ATOM     15  N   UNL     1      46.632   6.298  14.020  0.00  0.00    +0.000 N 
ATOM     16  C   UNL     1      47.875   5.939  14.470  0.00  0.00    +0.000 C 
ATOM     17  O   UNL     1      48.915   6.262  13.905  0.00  0.00    +0.000 OA
ATOM     18  H   UNL     1      45.850   5.760  14.375  0.00  0.00    +0.000 HD
BRANCH  16  19
ATOM     19  C   UNL     1      47.893   5.181  15.727  0.00  0.00    +0.000 A 
ATOM     20  C   UNL     1      47.426   3.876  15.766  0.00  0.00    +0.000 A 
ATOM     21  S   UNL     1      47.530   3.162  17.314  0.00  0.00    +0.000 S 
ATOM     22  C   UNL     1      48.157   4.590  17.993  0.00  0.00    +0.000 A 
ATOM     23  N   UNL     1      48.430   4.678  19.323  0.00  0.00    +0.000 NA
ATOM     24  C   UNL     1      48.859   5.834  19.704  0.00  0.00    +0.000 A 
ATOM     25  N   UNL     1      49.067   6.905  18.875  0.00  0.00    +0.000 N 
ATOM     26  C   UNL     1      48.869   6.840  17.520  0.00  0.00    +0.000 A 
ATOM     27  O   UNL     1      49.173   7.776  16.787  0.00  0.00    +0.000 OA
ATOM     28  C   UNL     1      48.329   5.580  17.044  0.00  0.00    +0.000 A 
ATOM     29  H   UNL     1      49.444   7.773  19.226  0.00  0.00    +0.000 HD
ENDBRANCH  16  19
ENDBRANCH   1  15
BRANCH   1  30
ATOM     30  C   UNL     1      45.346   8.124  12.872  0.00  0.00    +0.000 C 
BRANCH  30  31
ATOM     31  N   UNL     1      45.923   9.479  12.861  0.00  0.00    +0.000 NA
ATOM     32  H   UNL     1      45.295  10.092  12.343  0.00  0.00    +0.000 HD
ATOM     33  H   UNL     1      46.796   9.469  12.335  0.00  0.00    +0.000 HD
ENDBRANCH  30  31
ENDBRANCH   1  30
TORSDOF 7
ENDMDL
MODEL 2
REMARK VINA RESULT:    -8.129      1.577      2.127
REMARK INTER + INTRA:         -11.900
REMARK INTER:                 -11.332
REMARK INTRA:                  -0.568
REMARK UNBOUND:                -0.682
REMARK  Name = 
REMARK  7 active torsions:
REMARK  status: ('A' for Active; 'I' for Inactive)
REMARK    1  A    between atoms: N_1  and  C_2
REMARK    2  A    between atoms: C_2  and  C_3
REMARK    3  A    between atoms: C_3  and  N_4
REMARK    4  A    between atoms: C_3  and  C_17
REMARK    5  A    between atoms: C_5  and  C_7
REMARK    6  A    between atoms: C_20  and  O_21
REMARK    7  A    between atoms: O_21  and  C_22
REMARK                            x       y       z     vdW  Elec       q    Type
REMARK                         _______ _______ _______ _____ _____    ______ ____
ROOT
ATOM      1  C   UNL     1      46.113   7.864  12.402  0.00  0.00    +0.000 C 
ENDROOT
BRANCH   1   2
ATOM      2  C   UNL     1      45.640   6.635  11.615  0.00  0.00    +0.000 A 
ATOM      3  C   UNL     1      44.640   5.813  12.156  0.00  0.00    +0.000 A 
ATOM      4  C   UNL     1      44.194   4.683  11.468  0.00  0.00    +0.000 A 
ATOM      5  C   UNL     1      44.689   4.388  10.197  0.00  0.00    +0.000 A 
ATOM      6  C   UNL     1      45.710   5.172   9.661  0.00  0.00    +0.000 A 
ATOM      7  C   UNL     1      46.194   6.277  10.371  0.00  0.00    +0.000 A 
BRANCH   5   8
ATOM      8  O   UNL     1      44.282   3.306   9.449  0.00  0.00    +0.000 OA
BRANCH   8   9
ATOM      9  C   UNL     1      45.188   2.745   8.554  0.00  0.00    +0.000 A 
ATOM     10  C   UNL     1      45.507   3.504   7.437  0.00  0.00    +0.000 A 
ATOM     11  C   UNL     1      46.434   2.989   6.533  0.00  0.00    +0.000 A 
ATOM     12  C   UNL     1      46.999   1.741   6.773  0.00  0.00    +0.000 A 
ATOM     13  C   UNL     1      46.597   1.045   7.900  0.00  0.00    +0.000 A 
ATOM     14  N   UNL     1      45.692   1.511   8.784  0.00  0.00    +0.000 NA
ENDBRANCH   8   9
ENDBRANCH   5   8
ENDBRANCH   1   2
BRANCH   1  15
ATOM     15  N   UNL     1      46.768   7.428  13.632  0.00  0.00    +0.000 N 
ATOM     16  C   UNL     1      48.070   7.009  13.709  0.00  0.00    +0.000 C 
ATOM     17  O   UNL     1      48.859   7.087  12.772  0.00  0.00    +0.000 OA
ATOM     18  H   UNL     1      46.135   7.069  14.337  0.00  0.00    +0.000 HD
BRANCH  16  19
ATOM     19  C   UNL     1      48.492   6.509  15.022  0.00  0.00    +0.000 A 
ATOM     20  C   UNL     1      49.453   7.190  15.757  0.00  0.00    +0.000 A 
ATOM     21  S   UNL     1      49.810   6.455  17.256  0.00  0.00    +0.000 S 
ATOM     22  C   UNL     1      48.731   5.177  16.951  0.00  0.00    +0.000 A 
ATOM     23  N   UNL     1      48.586   4.150  17.833  0.00  0.00    +0.000 NA
ATOM     24  C   UNL     1      47.766   3.231  17.451  0.00  0.00    +0.000 A 
ATOM     25  N   UNL     1      47.054   3.252  16.280  0.00  0.00    +0.000 N 
ATOM     26  C   UNL     1      47.119   4.297  15.395  0.00  0.00    +0.000 A 
ATOM     27  O   UNL     1      46.385   4.345  14.413  0.00  0.00    +0.000 OA
ATOM     28  C   UNL     1      48.072   5.333  15.746  0.00  0.00    +0.000 A 
ATOM     29  H   UNL     1      46.395   2.521  16.054  0.00  0.00    +0.000 HD
ENDBRANCH  16  19
ENDBRANCH   1  15
BRANCH   1  30
ATOM     30  C   UNL     1      44.932   8.845  12.668  0.00  0.00    +0.000 C 
BRANCH  30  31
ATOM     31  N   UNL     1      45.230  10.266  12.428  0.00  0.00    +0.000 NA
ATOM     32  H   UNL     1      45.947  10.561  13.090  0.00  0.00    +0.000 HD
ATOM     33  H   UNL     1      44.405  10.825  12.647  0.00  0.00    +0.000 HD
ENDBRANCH  30  31
ENDBRANCH   1  30
TORSDOF 7
ENDMDL
MODEL 3
REMARK VINA RESULT:    -7.942      3.204      4.326
REMARK INTER + INTRA:         -11.642
REMARK INTER:                 -10.343
REMARK INTRA:                  -1.300
REMARK UNBOUND:                -0.682
REMARK  Name = 
REMARK  7 active torsions:
REMARK  status: ('A' for Active; 'I' for Inactive)
REMARK    1  A    between atoms: N_1  and  C_2
REMARK    2  A    between atoms: C_2  and  C_3
REMARK    3  A    between atoms: C_3  and  N_4
REMARK    4  A    between atoms: C_3  and  C_17
REMARK    5  A    between atoms: C_5  and  C_7
REMARK    6  A    between atoms: C_20  and  O_21
REMARK    7  A    between atoms: O_21  and  C_22
REMARK                            x       y       z     vdW  Elec       q    Type
REMARK                         _______ _______ _______ _____ _____    ______ ____
ROOT
ATOM      1  C   UNL     1      46.399   5.813  13.631  0.00  0.00    +0.000 C 
ENDROOT
BRANCH   1   2
ATOM      2  C   UNL     1      45.912   5.121  12.352  0.00  0.00    +0.000 A 
ATOM      3  C   UNL     1      45.958   5.813  11.133  0.00  0.00    +0.000 A 
ATOM      4  C   UNL     1      45.513   5.212   9.953  0.00  0.00    +0.000 A 
ATOM      5  C   UNL     1      45.077   3.887   9.956  0.00  0.00    +0.000 A 
ATOM      6  C   UNL     1      44.988   3.198  11.164  0.00  0.00    +0.000 A 
ATOM      7  C   UNL     1      45.386   3.814  12.355  0.00  0.00    +0.000 A 
BRANCH   5   8
ATOM      8  O   UNL     1      44.645   3.221   8.830  0.00  0.00    +0.000 OA
BRANCH   8   9
ATOM      9  C   UNL     1      45.598   2.602   8.025  0.00  0.00    +0.000 A 
ATOM     10  C   UNL     1      46.007   3.302   6.899  0.00  0.00    +0.000 A 
ATOM     11  C   UNL     1      46.981   2.729   6.084  0.00  0.00    +0.000 A 
ATOM     12  C   UNL     1      47.503   1.484   6.420  0.00  0.00    +0.000 A 
ATOM     13  C   UNL     1      47.012   0.848   7.547  0.00  0.00    +0.000 A 
ATOM     14  N   UNL     1      46.059   1.371   8.345  0.00  0.00    +0.000 NA
ENDBRANCH   8   9
ENDBRANCH   5   8
ENDBRANCH   1   2
BRANCH   1  15
ATOM     15  N   UNL     1      47.492   6.724  13.301  0.00  0.00    +0.000 N 
ATOM     16  C   UNL     1      47.374   8.088  13.257  0.00  0.00    +0.000 C 
ATOM     17  O   UNL     1      46.370   8.690  13.623  0.00  0.00    +0.000 OA
ATOM     18  H   UNL     1      48.219   6.315  12.727  0.00  0.00    +0.000 HD
BRANCH  16  19
ATOM     19  C   UNL     1      48.567   8.807  12.794  0.00  0.00    +0.000 A 
ATOM     20  C   UNL     1      48.472   9.738  11.769  0.00  0.00    +0.000 A 
ATOM     21  S   UNL     1      49.964  10.468  11.373  0.00  0.00    +0.000 S 
ATOM     22  C   UNL     1      50.794   9.530  12.524  0.00  0.00    +0.000 A 
ATOM     23  N   UNL     1      52.143   9.626  12.672  0.00  0.00    +0.000 NA
ATOM     24  C   UNL     1      52.642   8.825  13.551  0.00  0.00    +0.000 A 
ATOM     25  N   UNL     1      51.915   7.951  14.317  0.00  0.00    +0.000 N 
ATOM     26  C   UNL     1      50.548   7.869  14.248  0.00  0.00    +0.000 A 
ATOM     27  O   UNL     1      49.913   7.163  15.026  0.00  0.00    +0.000 OA
ATOM     28  C   UNL     1      49.939   8.707  13.232  0.00  0.00    +0.000 A 
ATOM     29  H   UNL     1      52.358   7.376  15.019  0.00  0.00    +0.000 HD
ENDBRANCH  16  19
ENDBRANCH   1  15
BRANCH   1  30
ATOM     30  C   UNL     1      46.800   4.767  14.714  0.00  0.00    +0.000 C 
BRANCH  30  31
ATOM     31  N   UNL     1      47.854   5.200  15.646  0.00  0.00    +0.000 NA
ATOM     32  H   UNL     1      48.382   5.953  15.207  0.00  0.00    +0.000 HD
ATOM     33  H   UNL     1      48.518   4.438  15.779  0.00  0.00    +0.000 HD
ENDBRANCH  30  31
ENDBRANCH   1  30
TORSDOF 7
ENDMDL
MODEL 4
REMARK VINA RESULT:    -7.567      1.728      2.363
REMARK INTER + INTRA:         -11.124
REMARK INTER:                  -9.658
REMARK INTRA:                  -1.466
REMARK UNBOUND:                -0.682
REMARK  Name = 
REMARK  7 active torsions:
REMARK  status: ('A' for Active; 'I' for Inactive)
REMARK    1  A    between atoms: N_1  and  C_2
REMARK    2  A    between atoms: C_2  and  C_3
REMARK    3  A    between atoms: C_3  and  N_4
REMARK    4  A    between atoms: C_3  and  C_17
REMARK    5  A    between atoms: C_5  and  C_7
REMARK    6  A    between atoms: C_20  and  O_21
REMARK    7  A    between atoms: O_21  and  C_22
REMARK                            x       y       z     vdW  Elec       q    Type
REMARK                         _______ _______ _______ _____ _____    ______ ____
ROOT
ATOM      1  C   UNL     1      48.083   7.542  13.991  0.00  0.00    +0.000 C 
ENDROOT
BRANCH   1   2
ATOM      2  C   UNL     1      47.073   6.773  13.131  0.00  0.00    +0.000 A 
ATOM      3  C   UNL     1      46.327   7.461  12.163  0.00  0.00    +0.000 A 
ATOM      4  C   UNL     1      45.393   6.790  11.370  0.00  0.00    +0.000 A 
ATOM      5  C   UNL     1      45.234   5.408  11.482  0.00  0.00    +0.000 A 
ATOM      6  C   UNL     1      45.939   4.715  12.465  0.00  0.00    +0.000 A 
ATOM      7  C   UNL     1      46.839   5.394  13.294  0.00  0.00    +0.000 A 
BRANCH   5   8
ATOM      8  O   UNL     1      44.351   4.675  10.720  0.00  0.00    +0.000 OA
BRANCH   8   9
ATOM      9  C   UNL     1      44.867   3.847   9.727  0.00  0.00    +0.000 A 
ATOM     10  C   UNL     1      45.538   4.472   8.686  0.00  0.00    +0.000 A 
ATOM     11  C   UNL     1      46.095   3.675   7.688  0.00  0.00    +0.000 A 
ATOM     12  C   UNL     1      45.957   2.293   7.764  0.00  0.00    +0.000 A 
ATOM     13  C   UNL     1      45.246   1.762   8.825  0.00  0.00    +0.000 A 
ATOM     14  N   UNL     1      44.683   2.509   9.797  0.00  0.00    +0.000 NA
ENDBRANCH   8   9
ENDBRANCH   5   8
ENDBRANCH   1   2
BRANCH   1  15
ATOM     15  N   UNL     1      48.074   7.003  15.348  0.00  0.00    +0.000 N 
ATOM     16  C   UNL     1      49.179   6.515  15.994  0.00  0.00    +0.000 C 
ATOM     17  O   UNL     1      50.317   6.607  15.545  0.00  0.00    +0.000 OA
ATOM     18  H   UNL     1      47.178   6.635  15.645  0.00  0.00    +0.000 HD
BRANCH  16  19
ATOM     19  C   UNL     1      48.924   5.918  17.311  0.00  0.00    +0.000 A 
ATOM     20  C   UNL     1      49.145   4.565  17.522  0.00  0.00    +0.000 A 
ATOM     21  S   UNL     1      48.793   4.059  19.114  0.00  0.00    +0.000 S 
ATOM     22  C   UNL     1      48.288   5.620  19.560  0.00  0.00    +0.000 A 
ATOM     23  N   UNL     1      47.806   5.877  20.806  0.00  0.00    +0.000 NA
ATOM     24  C   UNL     1      47.420   7.094  20.989  0.00  0.00    +0.000 A 
ATOM     25  N   UNL     1      47.494   8.089  20.049  0.00  0.00    +0.000 N 
ATOM     26  C   UNL     1      48.034   7.891  18.805  0.00  0.00    +0.000 A 
ATOM     27  O   UNL     1      48.195   8.825  18.026  0.00  0.00    +0.000 OA
ATOM     28  C   UNL     1      48.430   6.524  18.524  0.00  0.00    +0.000 A 
ATOM     29  H   UNL     1      47.213   9.034  20.265  0.00  0.00    +0.000 HD
ENDBRANCH  16  19
ENDBRANCH   1  15
BRANCH   1  30
ATOM     30  C   UNL     1      47.797   9.073  13.953  0.00  0.00    +0.000 C 
BRANCH  30  31
ATOM     31  N   UNL     1      48.129   9.804  15.187  0.00  0.00    +0.000 NA
ATOM     32  H   UNL     1      47.290  10.284  15.513  0.00  0.00    +0.000 HD
ATOM     33  H   UNL     1      48.802  10.540  14.972  0.00  0.00    +0.000 HD
ENDBRANCH  30  31
ENDBRANCH   1  30
TORSDOF 7
ENDMDL
MODEL 5
REMARK VINA RESULT:    -7.011      2.734      4.414
REMARK INTER + INTRA:         -10.357
REMARK INTER:                 -10.408
REMARK INTRA:                   0.051
REMARK UNBOUND:                -0.682
REMARK  Name = 
REMARK  7 active torsions:
REMARK  status: ('A' for Active; 'I' for Inactive)
REMARK    1  A    between atoms: N_1  and  C_2
REMARK    2  A    between atoms: C_2  and  C_3
REMARK    3  A    between atoms: C_3  and  N_4
REMARK    4  A    between atoms: C_3  and  C_17
REMARK    5  A    between atoms: C_5  and  C_7
REMARK    6  A    between atoms: C_20  and  O_21
REMARK    7  A    between atoms: O_21  and  C_22
REMARK                            x       y       z     vdW  Elec       q    Type
REMARK                         _______ _______ _______ _____ _____    ______ ____
ROOT
ATOM      1  C   UNL     1      46.023   5.395  13.994  0.00  0.00    +0.000 C 
ENDROOT
BRANCH   1   2
ATOM      2  C   UNL     1      45.690   4.937  12.569  0.00  0.00    +0.000 A 
ATOM      3  C   UNL     1      45.054   3.702  12.372  0.00  0.00    +0.000 A 
ATOM      4  C   UNL     1      44.745   3.254  11.086  0.00  0.00    +0.000 A 
ATOM      5  C   UNL     1      45.003   4.060   9.976  0.00  0.00    +0.000 A 
ATOM      6  C   UNL     1      45.669   5.272  10.150  0.00  0.00    +0.000 A 
ATOM      7  C   UNL     1      46.024   5.700  11.434  0.00  0.00    +0.000 A 
BRANCH   5   8
ATOM      8  O   UNL     1      44.706   3.696   8.682  0.00  0.00    +0.000 OA
BRANCH   8   9
ATOM      9  C   UNL     1      45.635   2.930   7.983  0.00  0.00    +0.000 A 
ATOM     10  C   UNL     1      46.245   3.537   6.894  0.00  0.00    +0.000 A 
ATOM     11  C   UNL     1      47.202   2.813   6.187  0.00  0.00    +0.000 A 
ATOM     12  C   UNL     1      47.509   1.517   6.588  0.00  0.00    +0.000 A 
ATOM     13  C   UNL     1      46.827   0.985   7.669  0.00  0.00    +0.000 A 
ATOM     14  N   UNL     1      45.886   1.656   8.362  0.00  0.00    +0.000 NA
ENDBRANCH   8   9
ENDBRANCH   5   8
ENDBRANCH   1   2
BRANCH   1  15
ATOM     15  N   UNL     1      46.792   6.635  13.937  0.00  0.00    +0.000 N 
ATOM     16  C   UNL     1      48.014   6.815  14.530  0.00  0.00    +0.000 C 
ATOM     17  O   UNL     1      48.648   5.906  15.056  0.00  0.00    +0.000 OA
ATOM     18  H   UNL     1      46.232   7.467  13.793  0.00  0.00    +0.000 HD
BRANCH  16  19
ATOM     19  C   UNL     1      48.559   8.175  14.443  0.00  0.00    +0.000 A 
ATOM     20  C   UNL     1      48.689   8.953  15.585  0.00  0.00    +0.000 A 
ATOM     21  S   UNL     1      49.342  10.501  15.282  0.00  0.00    +0.000 S 
ATOM     22  C   UNL     1      49.427  10.201  13.610  0.00  0.00    +0.000 A 
ATOM     23  N   UNL     1      49.862  11.156  12.743  0.00  0.00    +0.000 NA
ATOM     24  C   UNL     1      49.832  10.804  11.503  0.00  0.00    +0.000 A 
ATOM     25  N   UNL     1      49.432   9.575  11.046  0.00  0.00    +0.000 N 
ATOM     26  C   UNL     1      49.051   8.562  11.889  0.00  0.00    +0.000 A 
ATOM     27  O   UNL     1      48.810   7.438  11.462  0.00  0.00    +0.000 OA
ATOM     28  C   UNL     1      49.008   8.923  13.293  0.00  0.00    +0.000 A 
ATOM     29  H   UNL     1      49.470   9.343  10.065  0.00  0.00    +0.000 HD
ENDBRANCH  16  19
ENDBRANCH   1  15
BRANCH   1  30
ATOM     30  C   UNL     1      46.760   4.271  14.783  0.00  0.00    +0.000 C 
BRANCH  30  31
ATOM     31  N   UNL     1      47.506   3.309  13.956  0.00  0.00    +0.000 NA
ATOM     32  H   UNL     1      47.488   3.632  12.989  0.00  0.00    +0.000 HD
ATOM     33  H   UNL     1      47.018   2.414  13.957  0.00  0.00    +0.000 HD
ENDBRANCH  30  31
ENDBRANCH   1  30
TORSDOF 7
ENDMDL
MODEL 6
REMARK VINA RESULT:    -6.935      2.088      3.012
REMARK INTER + INTRA:         -10.252
REMARK INTER:                  -9.256
REMARK INTRA:                  -0.996
REMARK UNBOUND:                -0.682
REMARK  Name = 
REMARK  7 active torsions:
REMARK  status: ('A' for Active; 'I' for Inactive)
REMARK    1  A    between atoms: N_1  and  C_2
REMARK    2  A    between atoms: C_2  and  C_3
REMARK    3  A    between atoms: C_3  and  N_4
REMARK    4  A    between atoms: C_3  and  C_17
REMARK    5  A    between atoms: C_5  and  C_7
REMARK    6  A    between atoms: C_20  and  O_21
REMARK    7  A    between atoms: O_21  and  C_22
REMARK                            x       y       z     vdW  Elec       q    Type
REMARK                         _______ _______ _______ _____ _____    ______ ____
ROOT
ATOM      1  C   UNL     1      48.250   8.171  13.754  0.00  0.00    +0.000 C 
ENDROOT
BRANCH   1   2
ATOM      2  C   UNL     1      47.234   7.287  13.021  0.00  0.00    +0.000 A 
ATOM      3  C   UNL     1      46.327   7.874  12.127  0.00  0.00    +0.000 A 
ATOM      4  C   UNL     1      45.384   7.097  11.451  0.00  0.00    +0.000 A 
ATOM      5  C   UNL     1      45.373   5.709  11.603  0.00  0.00    +0.000 A 
ATOM      6  C   UNL     1      46.241   5.113  12.516  0.00  0.00    +0.000 A 
ATOM      7  C   UNL     1      47.153   5.897  13.232  0.00  0.00    +0.000 A 
BRANCH   5   8
ATOM      8  O   UNL     1      44.490   4.876  10.953  0.00  0.00    +0.000 OA
BRANCH   8   9
ATOM      9  C   UNL     1      44.961   4.123   9.882  0.00  0.00    +0.000 A 
ATOM     10  C   UNL     1      44.812   2.747   9.978  0.00  0.00    +0.000 A 
ATOM     11  C   UNL     1      45.245   1.961   8.912  0.00  0.00    +0.000 A 
ATOM     12  C   UNL     1      45.811   2.574   7.799  0.00  0.00    +0.000 A 
ATOM     13  C   UNL     1      45.945   3.952   7.806  0.00  0.00    +0.000 A 
ATOM     14  N   UNL     1      45.549   4.736   8.829  0.00  0.00    +0.000 NA
ENDBRANCH   8   9
ENDBRANCH   5   8
ENDBRANCH   1   2
BRANCH   1  15
ATOM     15  N   UNL     1      48.115   7.973  15.194  0.00  0.00    +0.000 N 
ATOM     16  C   UNL     1      49.074   7.404  15.990  0.00  0.00    +0.000 C 
ATOM     17  O   UNL     1      50.202   7.128  15.593  0.00  0.00    +0.000 OA
ATOM     18  H   UNL     1      47.158   7.898  15.518  0.00  0.00    +0.000 HD
BRANCH  16  19
ATOM     19  C   UNL     1      48.688   7.198  17.391  0.00  0.00    +0.000 A 
ATOM     20  C   UNL     1      48.241   8.263  18.159  0.00  0.00    +0.000 A 
ATOM     21  S   UNL     1      47.838   7.825  19.760  0.00  0.00    +0.000 S 
ATOM     22  C   UNL     1      48.294   6.209  19.493  0.00  0.00    +0.000 A 
ATOM     23  N   UNL     1      48.242   5.286  20.492  0.00  0.00    +0.000 NA
ATOM     24  C   UNL     1      48.657   4.112  20.157  0.00  0.00    +0.000 A 
ATOM     25  N   UNL     1      49.098   3.764  18.907  0.00  0.00    +0.000 N 
ATOM     26  C   UNL     1      49.103   4.642  17.854  0.00  0.00    +0.000 A 
ATOM     27  O   UNL     1      49.392   4.274  16.720  0.00  0.00    +0.000 OA
ATOM     28  C   UNL     1      48.701   5.996  18.189  0.00  0.00    +0.000 A 
ATOM     29  H   UNL     1      49.373   2.816  18.694  0.00  0.00    +0.000 HD
ENDBRANCH  16  19
ENDBRANCH   1  15
BRANCH   1  30
ATOM     30  C   UNL     1      48.092   9.665  13.339  0.00  0.00    +0.000 C 
BRANCH  30  31
ATOM     31  N   UNL     1      49.211  10.543  13.716  0.00  0.00    +0.000 NA
ATOM     32  H   UNL     1      49.032  10.911  14.650  0.00  0.00    +0.000 HD
ATOM     33  H   UNL     1      49.225  11.354  13.098  0.00  0.00    +0.000 HD
ENDBRANCH  30  31
ENDBRANCH   1  30
TORSDOF 7
ENDMDL
MODEL 7
REMARK VINA RESULT:    -6.877      3.910      8.721
REMARK INTER + INTRA:         -10.172
REMARK INTER:                  -9.175
REMARK INTRA:                  -0.997
REMARK UNBOUND:                -0.682
REMARK  Name = 
REMARK  7 active torsions:
REMARK  status: ('A' for Active; 'I' for Inactive)
REMARK    1  A    between atoms: N_1  and  C_2
REMARK    2  A    between atoms: C_2  and  C_3
REMARK    3  A    between atoms: C_3  and  N_4
REMARK    4  A    between atoms: C_3  and  C_17
REMARK    5  A    between atoms: C_5  and  C_7
REMARK    6  A    between atoms: C_20  and  O_21
REMARK    7  A    between atoms: O_21  and  C_22
REMARK                            x       y       z     vdW  Elec       q    Type
REMARK                         _______ _______ _______ _____ _____    ______ ____
ROOT
ATOM      1  C   UNL     1      47.866   4.124  16.483  0.00  0.00    +0.000 C 
ENDROOT
BRANCH   1   2
ATOM      2  C   UNL     1      49.198   4.845  16.724  0.00  0.00    +0.000 A 
ATOM      3  C   UNL     1      50.220   4.189  17.427  0.00  0.00    +0.000 A 
ATOM      4  C   UNL     1      51.441   4.822  17.669  0.00  0.00    +0.000 A 
ATOM      5  C   UNL     1      51.691   6.096  17.156  0.00  0.00    +0.000 A 
ATOM      6  C   UNL     1      50.673   6.777  16.489  0.00  0.00    +0.000 A 
ATOM      7  C   UNL     1      49.432   6.163  16.289  0.00  0.00    +0.000 A 
BRANCH   5   8
ATOM      8  O   UNL     1      52.877   6.773  17.334  0.00  0.00    +0.000 OA
BRANCH   8   9
ATOM      9  C   UNL     1      53.733   6.899  16.244  0.00  0.00    +0.000 A 
ATOM     10  C   UNL     1      54.539   5.808  15.959  0.00  0.00    +0.000 A 
ATOM     11  C   UNL     1      55.389   5.885  14.857  0.00  0.00    +0.000 A 
ATOM     12  C   UNL     1      55.404   7.044  14.089  0.00  0.00    +0.000 A 
ATOM     13  C   UNL     1      54.585   8.093  14.467  0.00  0.00    +0.000 A 
ATOM     14  N   UNL     1      53.764   8.053  15.537  0.00  0.00    +0.000 NA
ENDBRANCH   8   9
ENDBRANCH   5   8
ENDBRANCH   1   2
BRANCH   1  15
ATOM     15  N   UNL     1      47.089   4.861  15.490  0.00  0.00    +0.000 N 
ATOM     16  C   UNL     1      46.871   4.434  14.207  0.00  0.00    +0.000 C 
ATOM     17  O   UNL     1      47.195   3.322  13.803  0.00  0.00    +0.000 OA
ATOM     18  H   UNL     1      47.054   5.861  15.646  0.00  0.00    +0.000 HD
BRANCH  16  19
ATOM     19  C   UNL     1      46.158   5.382  13.342  0.00  0.00    +0.000 A 
ATOM     20  C   UNL     1      46.706   6.626  13.063  0.00  0.00    +0.000 A 
ATOM     21  S   UNL     1      45.730   7.584  12.041  0.00  0.00    +0.000 S 
ATOM     22  C   UNL     1      44.523   6.389  11.977  0.00  0.00    +0.000 A 
ATOM     23  N   UNL     1      43.364   6.592  11.293  0.00  0.00    +0.000 NA
ATOM     24  C   UNL     1      42.522   5.618  11.368  0.00  0.00    +0.000 A 
ATOM     25  N   UNL     1      42.739   4.444  12.042  0.00  0.00    +0.000 N 
ATOM     26  C   UNL     1      43.918   4.170  12.687  0.00  0.00    +0.000 A 
ATOM     27  O   UNL     1      44.130   3.068  13.182  0.00  0.00    +0.000 OA
ATOM     28  C   UNL     1      44.879   5.257  12.686  0.00  0.00    +0.000 A 
ATOM     29  H   UNL     1      42.058   3.700  12.030  0.00  0.00    +0.000 HD
ENDBRANCH  16  19
ENDBRANCH   1  15
BRANCH   1  30
ATOM     30  C   UNL     1      47.091   3.924  17.820  0.00  0.00    +0.000 C 
BRANCH  30  31
ATOM     31  N   UNL     1      46.596   5.159  18.450  0.00  0.00    +0.000 NA
ATOM     32  H   UNL     1      45.987   5.637  17.787  0.00  0.00    +0.000 HD
ATOM     33  H   UNL     1      47.379   5.791  18.612  0.00  0.00    +0.000 HD
ENDBRANCH  30  31
ENDBRANCH   1  30
TORSDOF 7
ENDMDL
MODEL 8
REMARK VINA RESULT:    -6.708      3.969      9.328
REMARK INTER + INTRA:          -9.939
REMARK INTER:                  -9.108
REMARK INTRA:                  -0.830
REMARK UNBOUND:                -0.682
REMARK  Name = 
REMARK  7 active torsions:
REMARK  status: ('A' for Active; 'I' for Inactive)
REMARK    1  A    between atoms: N_1  and  C_2
REMARK    2  A    between atoms: C_2  and  C_3
REMARK    3  A    between atoms: C_3  and  N_4
REMARK    4  A    between atoms: C_3  and  C_17
REMARK    5  A    between atoms: C_5  and  C_7
REMARK    6  A    between atoms: C_20  and  O_21
REMARK    7  A    between atoms: O_21  and  C_22
REMARK                            x       y       z     vdW  Elec       q    Type
REMARK                         _______ _______ _______ _____ _____    ______ ____
ROOT
ATOM      1  C   UNL     1      47.541   4.261  17.400  0.00  0.00    +0.000 C 
ENDROOT
BRANCH   1   2
ATOM      2  C   UNL     1      49.021   3.857  17.418  0.00  0.00    +0.000 A 
ATOM      3  C   UNL     1      49.367   2.501  17.320  0.00  0.00    +0.000 A 
ATOM      4  C   UNL     1      50.705   2.101  17.343  0.00  0.00    +0.000 A 
ATOM      5  C   UNL     1      51.725   3.052  17.396  0.00  0.00    +0.000 A 
ATOM      6  C   UNL     1      51.399   4.400  17.533  0.00  0.00    +0.000 A 
ATOM      7  C   UNL     1      50.058   4.799  17.561  0.00  0.00    +0.000 A 
BRANCH   5   8
ATOM      8  O   UNL     1      53.066   2.735  17.398  0.00  0.00    +0.000 OA
BRANCH   8   9
ATOM      9  C   UNL     1      53.838   3.150  18.480  0.00  0.00    +0.000 A 
ATOM     10  C   UNL     1      54.766   4.151  18.232  0.00  0.00    +0.000 A 
ATOM     11  C   UNL     1      55.537   4.613  19.295  0.00  0.00    +0.000 A 
ATOM     12  C   UNL     1      55.358   4.059  20.559  0.00  0.00    +0.000 A 
ATOM     13  C   UNL     1      54.428   3.044  20.704  0.00  0.00    +0.000 A 
ATOM     14  N   UNL     1      53.679   2.566  19.690  0.00  0.00    +0.000 NA
ENDBRANCH   8   9
ENDBRANCH   5   8
ENDBRANCH   1   2
BRANCH   1  15
ATOM     15  N   UNL     1      47.249   4.972  16.158  0.00  0.00    +0.000 N 
ATOM     16  C   UNL     1      47.266   4.396  14.915  0.00  0.00    +0.000 C 
ATOM     17  O   UNL     1      47.397   3.190  14.733  0.00  0.00    +0.000 OA
ATOM     18  H   UNL     1      47.423   5.969  16.197  0.00  0.00    +0.000 HD
BRANCH  16  19
ATOM     19  C   UNL     1      47.052   5.318  13.793  0.00  0.00    +0.000 A 
ATOM     20  C   UNL     1      48.054   6.198  13.408  0.00  0.00    +0.000 A 
ATOM     21  S   UNL     1      47.618   7.186  12.086  0.00  0.00    +0.000 S 
ATOM     22  C   UNL     1      46.061   6.506  12.016  0.00  0.00    +0.000 A 
ATOM     23  N   UNL     1      45.139   6.946  11.118  0.00  0.00    +0.000 NA
ATOM     24  C   UNL     1      43.988   6.369  11.208  0.00  0.00    +0.000 A 
ATOM     25  N   UNL     1      43.679   5.373  12.098  0.00  0.00    +0.000 N 
ATOM     26  C   UNL     1      44.597   4.853  12.974  0.00  0.00    +0.000 A 
ATOM     27  O   UNL     1      44.327   3.885  13.677  0.00  0.00    +0.000 OA
ATOM     28  C   UNL     1      45.892   5.507  12.956  0.00  0.00    +0.000 A 
ATOM     29  H   UNL     1      42.772   4.931  12.093  0.00  0.00    +0.000 HD
ENDBRANCH  16  19
ENDBRANCH   1  15
BRANCH   1  30
ATOM     30  C   UNL     1      47.174   5.092  18.665  0.00  0.00    +0.000 C 
BRANCH  30  31
ATOM     31  N   UNL     1      47.095   6.548  18.460  0.00  0.00    +0.000 NA
ATOM     32  H   UNL     1      46.547   6.725  17.618  0.00  0.00    +0.000 HD
ATOM     33  H   UNL     1      48.028   6.911  18.263  0.00  0.00    +0.000 HD
ENDBRANCH  30  31
ENDBRANCH   1  30
TORSDOF 7
ENDMDL
MODEL 9
REMARK VINA RESULT:    -6.623      3.377      4.367
REMARK INTER + INTRA:          -9.822
REMARK INTER:                  -8.697
REMARK INTRA:                  -1.125
REMARK UNBOUND:                -0.682
REMARK  Name = 
REMARK  7 active torsions:
REMARK  status: ('A' for Active; 'I' for Inactive)
REMARK    1  A    between atoms: N_1  and  C_2
REMARK    2  A    between atoms: C_2  and  C_3
REMARK    3  A    between atoms: C_3  and  N_4
REMARK    4  A    between atoms: C_3  and  C_17
REMARK    5  A    between atoms: C_5  and  C_7
REMARK    6  A    between atoms: C_20  and  O_21
REMARK    7  A    between atoms: O_21  and  C_22
REMARK                            x       y       z     vdW  Elec       q    Type
REMARK                         _______ _______ _______ _____ _____    ______ ____
ROOT
ATOM      1  C   UNL     1      47.184   5.849  14.753  0.00  0.00    +0.000 C 
ENDROOT
BRANCH   1   2
ATOM      2  C   UNL     1      46.446   5.340  13.509  0.00  0.00    +0.000 A 
ATOM      3  C   UNL     1      45.954   6.262  12.573  0.00  0.00    +0.000 A 
ATOM      4  C   UNL     1      45.271   5.830  11.434  0.00  0.00    +0.000 A 
ATOM      5  C   UNL     1      45.123   4.466  11.173  0.00  0.00    +0.000 A 
ATOM      6  C   UNL     1      45.571   3.538  12.112  0.00  0.00    +0.000 A 
ATOM      7  C   UNL     1      46.212   3.970  13.278  0.00  0.00    +0.000 A 
BRANCH   5   8
ATOM      8  O   UNL     1      44.483   3.965  10.062  0.00  0.00    +0.000 OA
BRANCH   8   9
ATOM      9  C   UNL     1      45.261   3.470   9.020  0.00  0.00    +0.000 A 
ATOM     10  C   UNL     1      45.487   2.102   9.010  0.00  0.00    +0.000 A 
ATOM     11  C   UNL     1      46.237   1.564   7.967  0.00  0.00    +0.000 A 
ATOM     12  C   UNL     1      46.735   2.409   6.980  0.00  0.00    +0.000 A 
ATOM     13  C   UNL     1      46.482   3.765   7.089  0.00  0.00    +0.000 A 
ATOM     14  N   UNL     1      45.773   4.315   8.096  0.00  0.00    +0.000 NA
ENDBRANCH   8   9
ENDBRANCH   5   8
ENDBRANCH   1   2
BRANCH   1  15
ATOM     15  N   UNL     1      48.427   6.498  14.347  0.00  0.00    +0.000 N 
ATOM     16  C   UNL     1      48.615   7.854  14.311  0.00  0.00    +0.000 C 
ATOM     17  O   UNL     1      47.799   8.659  14.748  0.00  0.00    +0.000 OA
ATOM     18  H   UNL     1      49.002   5.945  13.721  0.00  0.00    +0.000 HD
BRANCH  16  19
ATOM     19  C   UNL     1      49.904   8.295  13.765  0.00  0.00    +0.000 A 
ATOM     20  C   UNL     1      49.950   9.075  12.618  0.00  0.00    +0.000 A 
ATOM     21  S   UNL     1      51.536   9.488  12.139  0.00  0.00    +0.000 S 
ATOM     22  C   UNL     1      52.215   8.598  13.419  0.00  0.00    +0.000 A 
ATOM     23  N   UNL     1      53.564   8.492  13.567  0.00  0.00    +0.000 NA
ATOM     24  C   UNL     1      53.936   7.751  14.556  0.00  0.00    +0.000 A 
ATOM     25  N   UNL     1      53.085   7.124  15.429  0.00  0.00    +0.000 N 
ATOM     26  C   UNL     1      51.723   7.259  15.358  0.00  0.00    +0.000 A 
ATOM     27  O   UNL     1      50.991   6.783  16.220  0.00  0.00    +0.000 OA
ATOM     28  C   UNL     1      51.246   8.034  14.227  0.00  0.00    +0.000 A 
ATOM     29  H   UNL     1      53.437   6.590  16.210  0.00  0.00    +0.000 HD
ENDBRANCH  16  19
ENDBRANCH   1  15
BRANCH   1  30
ATOM     30  C   UNL     1      47.417   4.695  15.774  0.00  0.00    +0.000 C 
BRANCH  30  31
ATOM     31  N   UNL     1      47.874   5.120  17.108  0.00  0.00    +0.000 NA
ATOM     32  H   UNL     1      48.352   4.336  17.549  0.00  0.00    +0.000 HD
ATOM     33  H   UNL     1      47.063   5.315  17.695  0.00  0.00    +0.000 HD
ENDBRANCH  30  31
ENDBRANCH   1  30
TORSDOF 7
ENDMDL
