MODEL 1
REMARK VINA RESULT:    -7.284      0.000      0.000
REMARK INTER + INTRA:         -11.652
REMARK INTER:                 -10.691
REMARK INTRA:                  -0.960
REMARK UNBOUND:                -0.960
REMARK  Name = 
REMARK  10 active torsions:
REMARK  status: ('A' for Active; 'I' for Inactive)
REMARK    1  A    between atoms: C_1  and  O_2
REMARK    2  A    between atoms: O_2  and  C_3
REMARK    3  A    between atoms: C_10  and  C_11
REMARK    4  A    between atoms: N_13  and  C_14
REMARK    5  A    between atoms: C_14  and  C_15
REMARK    6  A    between atoms: C_18  and  C_19
REMARK    7  A    between atoms: C_19  and  S_20
REMARK    8  A    between atoms: S_20  and  C_21
REMARK    9  A    between atoms: C_21  and  C_22
REMARK   10  A    between atoms: C_26  and  C_27
REMARK                            x       y       z     vdW  Elec       q    Type
REMARK                         _______ _______ _______ _____ _____    ______ ____
ROOT
ATOM      1  C   UNL     1      48.155   7.636  13.720  0.00  0.00    +0.000 C 
ENDROOT
BRANCH   1   2
ATOM      2  C   UNL     1      46.973   6.845  13.221  0.00  0.00    +0.000 A 
ATOM      3  C   UNL     1      46.896   5.461  13.438  0.00  0.00    +0.000 A 
ATOM      4  C   UNL     1      45.795   4.722  12.981  0.00  0.00    +0.000 A 
ATOM      5  C   UNL     1      44.753   5.350  12.288  0.00  0.00    +0.000 A 
ATOM      6  C   UNL     1      44.857   6.724  12.038  0.00  0.00    +0.000 A 
ATOM      7  C   UNL     1      45.949   7.466  12.499  0.00  0.00    +0.000 A 
BRANCH   5   8
ATOM      8  C   UNL     1      43.577   4.585  11.723  0.00  0.00    +0.000 C 
BRANCH   8   9
ATOM      9  S   UNL     1      43.958   3.200  10.614  0.00  0.00    +0.000 S 
BRANCH   9  10
ATOM     10  C   UNL     1      44.446   4.056   9.081  0.00  0.00    +0.000 C 
BRANCH  10  11
ATOM     11  C   UNL     1      45.495   3.384   8.222  0.00  0.00    +0.000 A 
ATOM     12  N   UNL     1      46.333   4.157   7.523  0.00  0.00    +0.000 NA
ATOM     13  C   UNL     1      47.305   3.501   6.890  0.00  0.00    +0.000 A 
ATOM     14  N   UNL     1      47.502   2.184   6.902  0.00  0.00    +0.000 NA
ATOM     15  C   UNL     1      46.611   1.501   7.621  0.00  0.00    +0.000 A 
ATOM     16  C   UNL     1      46.765   0.015   7.700  0.00  0.00    +0.000 C 
ATOM     17  N   UNL     1      45.594   2.050   8.293  0.00  0.00    +0.000 NA
ENDBRANCH  10  11
ENDBRANCH   9  10
ENDBRANCH   8   9
ENDBRANCH   5   8
ENDBRANCH   1   2
BRANCH   1  20
ATOM     18  C   UNL     1      49.535   7.303  15.733  0.00  0.00    +0.000 C 
ATOM     19  O   UNL     1      50.560   7.229  15.063  0.00  0.00    +0.000 OA
ATOM     20  N   UNL     1      48.316   7.503  15.146  0.00  0.00    +0.000 N 
ATOM     21  H   UNL     1      47.478   7.540  15.712  0.00  0.00    +0.000 HD
BRANCH  18  29
ATOM     22  C   UNL     1      48.757   4.747  17.906  0.00  0.00    +0.000 A 
ATOM     23  N   UNL     1      48.560   3.925  18.956  0.00  0.00    +0.000 NA
ATOM     24  C   UNL     1      48.808   4.401  20.179  0.00  0.00    +0.000 A 
ATOM     25  N   UNL     1      49.232   5.623  20.493  0.00  0.00    +0.000 NA
ATOM     26  C   UNL     1      49.425   6.405  19.418  0.00  0.00    +0.000 A 
ATOM     27  S   UNL     1      49.965   8.002  19.629  0.00  0.00    +0.000 S 
ATOM     28  C   UNL     1      49.964   8.275  17.951  0.00  0.00    +0.000 A 
ATOM     29  C   UNL     1      49.564   7.177  17.201  0.00  0.00    +0.000 A 
ATOM     30  C   UNL     1      49.229   6.060  18.083  0.00  0.00    +0.000 A 
BRANCH  22  32
ATOM     31  C   UNL     1      48.292   2.841  16.629  0.00  0.00    +0.000 C 
ATOM     32  O   UNL     1      48.526   4.247  16.642  0.00  0.00    +0.000 OA
ENDBRANCH  22  32
ENDBRANCH  18  29
ENDBRANCH   1  20
TORSDOF 8
ENDMDL
MODEL 2
REMARK VINA RESULT:    -7.068      2.661      3.412
REMARK INTER + INTRA:         -11.335
REMARK INTER:                 -10.376
REMARK INTRA:                  -0.958
REMARK UNBOUND:                -0.960
REMARK  Name = 
REMARK  10 active torsions:
REMARK  status: ('A' for Active; 'I' for Inactive)
REMARK    1  A    between atoms: C_1  and  O_2
REMARK    2  A    between atoms: O_2  and  C_3
REMARK    3  A    between atoms: C_10  and  C_11
REMARK    4  A    between atoms: N_13  and  C_14
REMARK    5  A    between atoms: C_14  and  C_15
REMARK    6  A    between atoms: C_18  and  C_19
REMARK    7  A    between atoms: C_19  and  S_20
REMARK    8  A    between atoms: S_20  and  C_21
REMARK    9  A    between atoms: C_21  and  C_22
REMARK   10  A    between atoms: C_26  and  C_27
REMARK                            x       y       z     vdW  Elec       q    Type
REMARK                         _______ _______ _______ _____ _____    ______ ____
ROOT
ATOM      1  C   UNL     1      50.081   7.437  15.622  0.00  0.00    +0.000 C 
ENDROOT
BRANCH   1   2
ATOM      2  C   UNL     1      49.010   6.899  14.708  0.00  0.00    +0.000 A 
ATOM      3  C   UNL     1      48.095   5.939  15.166  0.00  0.00    +0.000 A 
ATOM      4  C   UNL     1      47.094   5.440  14.321  0.00  0.00    +0.000 A 
ATOM      5  C   UNL     1      46.993   5.882  12.996  0.00  0.00    +0.000 A 
ATOM      6  C   UNL     1      47.936   6.808  12.533  0.00  0.00    +0.000 A 
ATOM      7  C   UNL     1      48.931   7.314  13.375  0.00  0.00    +0.000 A 
BRANCH   5   8
ATOM      8  C   UNL     1      45.970   5.327  12.031  0.00  0.00    +0.000 C 
BRANCH   8   9
ATOM      9  S   UNL     1      44.449   6.292  11.806  0.00  0.00    +0.000 S 
BRANCH   9  10
ATOM     10  C   UNL     1      43.488   5.239  10.670  0.00  0.00    +0.000 C 
BRANCH  10  11
ATOM     11  C   UNL     1      44.240   4.144   9.944  0.00  0.00    +0.000 A 
ATOM     12  N   UNL     1      43.952   2.873  10.242  0.00  0.00    +0.000 NA
ATOM     13  C   UNL     1      44.561   1.967   9.478  0.00  0.00    +0.000 A 
ATOM     14  N   UNL     1      45.401   2.220   8.476  0.00  0.00    +0.000 NA
ATOM     15  C   UNL     1      45.629   3.516   8.263  0.00  0.00    +0.000 A 
ATOM     16  C   UNL     1      46.552   3.892   7.147  0.00  0.00    +0.000 C 
ATOM     17  N   UNL     1      45.079   4.511   8.967  0.00  0.00    +0.000 NA
ENDBRANCH  10  11
ENDBRANCH   9  10
ENDBRANCH   8   9
ENDBRANCH   5   8
ENDBRANCH   1   2
BRANCH   1  20
ATOM     18  C   UNL     1      50.861   5.989  17.456  0.00  0.00    +0.000 C 
ATOM     19  O   UNL     1      50.101   6.528  18.255  0.00  0.00    +0.000 OA
ATOM     20  N   UNL     1      50.908   6.379  16.146  0.00  0.00    +0.000 N 
ATOM     21  H   UNL     1      51.556   5.938  15.505  0.00  0.00    +0.000 HD
BRANCH  18  29
ATOM     22  C   UNL     1      50.685   2.557  17.232  0.00  0.00    +0.000 A 
ATOM     23  N   UNL     1      50.888   1.224  17.243  0.00  0.00    +0.000 NA
ATOM     24  C   UNL     1      52.025   0.768  17.774  0.00  0.00    +0.000 A 
ATOM     25  N   UNL     1      53.005   1.490  18.313  0.00  0.00    +0.000 NA
ATOM     26  C   UNL     1      52.768   2.812  18.271  0.00  0.00    +0.000 A 
ATOM     27  S   UNL     1      53.912   3.888  18.916  0.00  0.00    +0.000 S 
ATOM     28  C   UNL     1      52.955   5.230  18.499  0.00  0.00    +0.000 A 
ATOM     29  C   UNL     1      51.763   4.899  17.867  0.00  0.00    +0.000 A 
ATOM     30  C   UNL     1      51.648   3.447  17.742  0.00  0.00    +0.000 A 
BRANCH  22  32
ATOM     31  C   UNL     1      48.439   3.113  17.582  0.00  0.00    +0.000 C 
ATOM     32  O   UNL     1      49.523   3.029  16.660  0.00  0.00    +0.000 OA
ENDBRANCH  22  32
ENDBRANCH  18  29
ENDBRANCH   1  20
TORSDOF 8
ENDMDL
MODEL 3
REMARK VINA RESULT:    -7.044      2.052      2.281
REMARK INTER + INTRA:         -11.299
REMARK INTER:                 -10.066
REMARK INTRA:                  -1.233
REMARK UNBOUND:                -0.960
REMARK  Name = 
REMARK  10 active torsions:
REMARK  status: ('A' for Active; 'I' for Inactive)
REMARK    1  A    between atoms: C_1  and  O_2
REMARK    2  A    between atoms: O_2  and  C_3
REMARK    3  A    between atoms: C_10  and  C_11
REMARK    4  A    between atoms: N_13  and  C_14
REMARK    5  A    between atoms: C_14  and  C_15
REMARK    6  A    between atoms: C_18  and  C_19
REMARK    7  A    between atoms: C_19  and  S_20
REMARK    8  A    between atoms: S_20  and  C_21
REMARK    9  A    between atoms: C_21  and  C_22
REMARK   10  A    between atoms: C_26  and  C_27
REMARK                            x       y       z     vdW  Elec       q    Type
REMARK                         _______ _______ _______ _____ _____    ______ ____
ROOT
ATOM      1  C   UNL     1      48.648   7.712  13.521  0.00  0.00    +0.000 C 
ENDROOT
BRANCH   1   2
ATOM      2  C   UNL     1      47.438   6.826  13.376  0.00  0.00    +0.000 A 
ATOM      3  C   UNL     1      47.385   5.577  14.014  0.00  0.00    +0.000 A 
ATOM      4  C   UNL     1      46.259   4.752  13.886  0.00  0.00    +0.000 A 
ATOM      5  C   UNL     1      45.166   5.153  13.108  0.00  0.00    +0.000 A 
ATOM      6  C   UNL     1      45.243   6.381  12.440  0.00  0.00    +0.000 A 
ATOM      7  C   UNL     1      46.361   7.210  12.571  0.00  0.00    +0.000 A 
BRANCH   5   8
ATOM      8  C   UNL     1      43.957   4.271  12.892  0.00  0.00    +0.000 C 
BRANCH   8   9
ATOM      9  S   UNL     1      43.278   4.211  11.210  0.00  0.00    +0.000 S 
BRANCH   9  10
ATOM     10  C   UNL     1      44.071   2.719  10.526  0.00  0.00    +0.000 C 
BRANCH  10  11
ATOM     11  C   UNL     1      44.955   2.906   9.312  0.00  0.00    +0.000 A 
ATOM     12  N   UNL     1      45.157   4.148   8.859  0.00  0.00    +0.000 NA
ATOM     13  C   UNL     1      46.041   4.246   7.867  0.00  0.00    +0.000 A 
ATOM     14  N   UNL     1      46.718   3.241   7.315  0.00  0.00    +0.000 NA
ATOM     15  C   UNL     1      46.443   2.043   7.831  0.00  0.00    +0.000 A 
ATOM     16  C   UNL     1      47.168   0.858   7.277  0.00  0.00    +0.000 C 
ATOM     17  N   UNL     1      45.572   1.823   8.822  0.00  0.00    +0.000 NA
ENDBRANCH  10  11
ENDBRANCH   9  10
ENDBRANCH   8   9
ENDBRANCH   5   8
ENDBRANCH   1   2
BRANCH   1  20
ATOM     18  C   UNL     1      50.574   7.782  15.056  0.00  0.00    +0.000 C 
ATOM     19  O   UNL     1      50.539   9.008  15.103  0.00  0.00    +0.000 OA
ATOM     20  N   UNL     1      49.678   7.074  14.302  0.00  0.00    +0.000 N 
ATOM     21  H   UNL     1      49.735   6.065  14.258  0.00  0.00    +0.000 HD
BRANCH  18  29
ATOM     22  C   UNL     1      50.376   5.236  17.366  0.00  0.00    +0.000 A 
ATOM     23  N   UNL     1      50.585   4.234  18.243  0.00  0.00    +0.000 NA
ATOM     24  C   UNL     1      51.848   3.927  18.553  0.00  0.00    +0.000 A 
ATOM     25  N   UNL     1      52.951   4.510  18.092  0.00  0.00    +0.000 NA
ATOM     26  C   UNL     1      52.698   5.495  17.214  0.00  0.00    +0.000 A 
ATOM     27  S   UNL     1      53.989   6.354  16.522  0.00  0.00    +0.000 S 
ATOM     28  C   UNL     1      52.924   7.317  15.611  0.00  0.00    +0.000 A 
ATOM     29  C   UNL     1      51.583   7.012  15.805  0.00  0.00    +0.000 A 
ATOM     30  C   UNL     1      51.449   5.927  16.775  0.00  0.00    +0.000 A 
BRANCH  22  32
ATOM     31  C   UNL     1      48.477   6.500  17.892  0.00  0.00    +0.000 C 
ATOM     32  O   UNL     1      49.073   5.536  17.027  0.00  0.00    +0.000 OA
ENDBRANCH  22  32
ENDBRANCH  18  29
ENDBRANCH   1  20
TORSDOF 8
ENDMDL
MODEL 4
REMARK VINA RESULT:    -6.964      3.806      8.819
REMARK INTER + INTRA:         -11.181
REMARK INTER:                  -9.821
REMARK INTRA:                  -1.360
REMARK UNBOUND:                -0.960
REMARK  Name = 
REMARK  10 active torsions:
REMARK  status: ('A' for Active; 'I' for Inactive)
REMARK    1  A    between atoms: C_1  and  O_2
REMARK    2  A    between atoms: O_2  and  C_3
REMARK    3  A    between atoms: C_10  and  C_11
REMARK    4  A    between atoms: N_13  and  C_14
REMARK    5  A    between atoms: C_14  and  C_15
REMARK    6  A    between atoms: C_18  and  C_19
REMARK    7  A    between atoms: C_19  and  S_20
REMARK    8  A    between atoms: S_20  and  C_21
REMARK    9  A    between atoms: C_21  and  C_22
REMARK   10  A    between atoms: C_26  and  C_27
REMARK                            x       y       z     vdW  Elec       q    Type
REMARK                         _______ _______ _______ _____ _____    ______ ____
ROOT
ATOM      1  C   UNL     1      47.157   3.335  16.837  0.00  0.00    +0.000 C 
ENDROOT
BRANCH   1   2
ATOM      2  C   UNL     1      48.626   3.261  17.165  0.00  0.00    +0.000 A 
ATOM      3  C   UNL     1      49.274   4.336  17.792  0.00  0.00    +0.000 A 
ATOM      4  C   UNL     1      50.639   4.269  18.104  0.00  0.00    +0.000 A 
ATOM      5  C   UNL     1      51.389   3.130  17.786  0.00  0.00    +0.000 A 
ATOM      6  C   UNL     1      50.745   2.078  17.122  0.00  0.00    +0.000 A 
ATOM      7  C   UNL     1      49.383   2.137  16.816  0.00  0.00    +0.000 A 
BRANCH   5   8
ATOM      8  C   UNL     1      52.875   3.038  18.047  0.00  0.00    +0.000 C 
BRANCH   8   9
ATOM      9  S   UNL     1      53.717   4.568  18.537  0.00  0.00    +0.000 S 
BRANCH   9  10
ATOM     10  C   UNL     1      54.480   5.108  16.971  0.00  0.00    +0.000 C 
BRANCH  10  11
ATOM     11  C   UNL     1      53.767   6.196  16.198  0.00  0.00    +0.000 A 
ATOM     12  N   UNL     1      54.436   6.825  15.226  0.00  0.00    +0.000 NA
ATOM     13  C   UNL     1      53.709   7.681  14.509  0.00  0.00    +0.000 A 
ATOM     14  N   UNL     1      52.415   7.946  14.676  0.00  0.00    +0.000 NA
ATOM     15  C   UNL     1      51.840   7.274  15.674  0.00  0.00    +0.000 A 
ATOM     16  C   UNL     1      50.383   7.503  15.926  0.00  0.00    +0.000 C 
ATOM     17  N   UNL     1      52.469   6.396  16.462  0.00  0.00    +0.000 NA
ENDBRANCH  10  11
ENDBRANCH   9  10
ENDBRANCH   8   9
ENDBRANCH   5   8
ENDBRANCH   1   2
BRANCH   1  20
ATOM     18  C   UNL     1      46.924   4.181  14.536  0.00  0.00    +0.000 C 
ATOM     19  O   UNL     1      47.204   3.084  14.064  0.00  0.00    +0.000 OA
ATOM     20  N   UNL     1      46.881   4.383  15.888  0.00  0.00    +0.000 N 
ATOM     21  H   UNL     1      46.670   5.301  16.260  0.00  0.00    +0.000 HD
BRANCH  18  29
ATOM     22  C   UNL     1      44.178   5.103  12.673  0.00  0.00    +0.000 A 
ATOM     23  N   UNL     1      43.252   5.708  11.904  0.00  0.00    +0.000 NA
ATOM     24  C   UNL     1      43.569   6.878  11.344  0.00  0.00    +0.000 A 
ATOM     25  N   UNL     1      44.723   7.533  11.455  0.00  0.00    +0.000 NA
ATOM     26  C   UNL     1      45.613   6.901  12.238  0.00  0.00    +0.000 A 
ATOM     27  S   UNL     1      47.143   7.592  12.492  0.00  0.00    +0.000 S 
ATOM     28  C   UNL     1      47.609   6.306  13.502  0.00  0.00    +0.000 A 
ATOM     29  C   UNL     1      46.627   5.338  13.671  0.00  0.00    +0.000 A 
ATOM     30  C   UNL     1      45.435   5.691  12.903  0.00  0.00    +0.000 A 
BRANCH  22  32
ATOM     31  C   UNL     1      43.636   2.851  12.336  0.00  0.00    +0.000 C 
ATOM     32  O   UNL     1      43.841   3.907  13.271  0.00  0.00    +0.000 OA
ENDBRANCH  22  32
ENDBRANCH  18  29
ENDBRANCH   1  20
TORSDOF 8
ENDMDL
MODEL 5
REMARK VINA RESULT:    -6.918      4.685      9.631
REMARK INTER + INTRA:         -11.114
REMARK INTER:                 -10.213
REMARK INTRA:                  -0.901
REMARK UNBOUND:                -0.960
REMARK  Name = 
REMARK  10 active torsions:
REMARK  status: ('A' for Active; 'I' for Inactive)
REMARK    1  A    between atoms: C_1  and  O_2
REMARK    2  A    between atoms: O_2  and  C_3
REMARK    3  A    between atoms: C_10  and  C_11
REMARK    4  A    between atoms: N_13  and  C_14
REMARK    5  A    between atoms: C_14  and  C_15
REMARK    6  A    between atoms: C_18  and  C_19
REMARK    7  A    between atoms: C_19  and  S_20
REMARK    8  A    between atoms: S_20  and  C_21
REMARK    9  A    between atoms: C_21  and  C_22
REMARK   10  A    between atoms: C_26  and  C_27
REMARK                            x       y       z     vdW  Elec       q    Type
REMARK                         _______ _______ _______ _____ _____    ______ ____
ROOT
ATOM      1  C   UNL     1      47.239   3.441  16.783  0.00  0.00    +0.000 C 
ENDROOT
BRANCH   1   2
ATOM      2  C   UNL     1      48.707   3.561  17.101  0.00  0.00    +0.000 A 
ATOM      3  C   UNL     1      49.281   4.813  17.372  0.00  0.00    +0.000 A 
ATOM      4  C   UNL     1      50.645   4.929  17.675  0.00  0.00    +0.000 A 
ATOM      5  C   UNL     1      51.468   3.796  17.701  0.00  0.00    +0.000 A 
ATOM      6  C   UNL     1      50.898   2.555  17.388  0.00  0.00    +0.000 A 
ATOM      7  C   UNL     1      49.537   2.435  17.094  0.00  0.00    +0.000 A 
BRANCH   5   8
ATOM      8  C   UNL     1      52.955   3.879  17.962  0.00  0.00    +0.000 C 
BRANCH   8   9
ATOM      9  S   UNL     1      53.537   3.298  19.579  0.00  0.00    +0.000 S 
BRANCH   9  10
ATOM     10  C   UNL     1      55.023   2.341  19.134  0.00  0.00    +0.000 C 
BRANCH  10  11
ATOM     11  C   UNL     1      54.806   1.028  18.412  0.00  0.00    +0.000 A 
ATOM     12  N   UNL     1      55.089   0.968  17.107  0.00  0.00    +0.000 NA
ATOM     13  C   UNL     1      54.992  -0.247  16.567  0.00  0.00    +0.000 A 
ATOM     14  N   UNL     1      54.650  -1.365  17.205  0.00  0.00    +0.000 NA
ATOM     15  C   UNL     1      54.380  -1.199  18.500  0.00  0.00    +0.000 A 
ATOM     16  C   UNL     1      53.999  -2.407  19.297  0.00  0.00    +0.000 C 
ATOM     17  N   UNL     1      54.440  -0.030  19.146  0.00  0.00    +0.000 NA
ENDBRANCH  10  11
ENDBRANCH   9  10
ENDBRANCH   8   9
ENDBRANCH   5   8
ENDBRANCH   1   2
BRANCH   1  20
ATOM     18  C   UNL     1      46.846   4.247  14.488  0.00  0.00    +0.000 C 
ATOM     19  O   UNL     1      47.232   3.186  14.009  0.00  0.00    +0.000 OA
ATOM     20  N   UNL     1      46.820   4.449  15.841  0.00  0.00    +0.000 N 
ATOM     21  H   UNL     1      46.519   5.338  16.218  0.00  0.00    +0.000 HD
BRANCH  18  29
ATOM     22  C   UNL     1      44.007   4.800  12.619  0.00  0.00    +0.000 A 
ATOM     23  N   UNL     1      43.010   5.278  11.849  0.00  0.00    +0.000 NA
ATOM     24  C   UNL     1      43.166   6.487  11.301  0.00  0.00    +0.000 A 
ATOM     25  N   UNL     1      44.218   7.293  11.424  0.00  0.00    +0.000 NA
ATOM     26  C   UNL     1      45.183   6.782  12.207  0.00  0.00    +0.000 A 
ATOM     27  S   UNL     1      46.603   7.674  12.475  0.00  0.00    +0.000 S 
ATOM     28  C   UNL     1      47.237   6.455  13.477  0.00  0.00    +0.000 A 
ATOM     29  C   UNL     1      46.397   5.360  13.632  0.00  0.00    +0.000 A 
ATOM     30  C   UNL     1      45.171   5.553  12.860  0.00  0.00    +0.000 A 
BRANCH  22  32
ATOM     31  C   UNL     1      43.552   2.531  12.263  0.00  0.00    +0.000 C 
ATOM     32  O   UNL     1      43.835   3.564  13.204  0.00  0.00    +0.000 OA
ENDBRANCH  22  32
ENDBRANCH  18  29
ENDBRANCH   1  20
TORSDOF 8
ENDMDL
MODEL 6
REMARK VINA RESULT:    -6.708      3.507      8.975
REMARK INTER + INTRA:         -10.806
REMARK INTER:                  -9.258
REMARK INTRA:                  -1.548
REMARK UNBOUND:                -0.960
REMARK  Name = 
REMARK  10 active torsions:
REMARK  status: ('A' for Active; 'I' for Inactive)
REMARK    1  A    between atoms: C_1  and  O_2
REMARK    2  A    between atoms: O_2  and  C_3
REMARK    3  A    between atoms: C_10  and  C_11
REMARK    4  A    between atoms: N_13  and  C_14
REMARK    5  A    between atoms: C_14  and  C_15
REMARK    6  A    between atoms: C_18  and  C_19
REMARK    7  A    between atoms: C_19  and  S_20
REMARK    8  A    between atoms: S_20  and  C_21
REMARK    9  A    between atoms: C_21  and  C_22
REMARK   10  A    between atoms: C_26  and  C_27
REMARK                            x       y       z     vdW  Elec       q    Type
REMARK                         _______ _______ _______ _____ _____    ______ ____
ROOT
ATOM      1  C   UNL     1      47.176   3.335  16.816  0.00  0.00    +0.000 C 
ENDROOT
BRANCH   1   2
ATOM      2  C   UNL     1      48.432   3.711  17.560  0.00  0.00    +0.000 A 
ATOM      3  C   UNL     1      49.681   3.227  17.145  0.00  0.00    +0.000 A 
ATOM      4  C   UNL     1      50.853   3.578  17.831  0.00  0.00    +0.000 A 
ATOM      5  C   UNL     1      50.798   4.412  18.954  0.00  0.00    +0.000 A 
ATOM      6  C   UNL     1      49.544   4.857  19.389  0.00  0.00    +0.000 A 
ATOM      7  C   UNL     1      48.374   4.515  18.703  0.00  0.00    +0.000 A 
BRANCH   5   8
ATOM      8  C   UNL     1      52.027   4.768  19.761  0.00  0.00    +0.000 C 
BRANCH   8   9
ATOM      9  S   UNL     1      52.330   6.532  20.055  0.00  0.00    +0.000 S 
BRANCH   9  10
ATOM     10  C   UNL     1      52.496   7.183  18.361  0.00  0.00    +0.000 C 
BRANCH  10  11
ATOM     11  C   UNL     1      51.218   7.407  17.582  0.00  0.00    +0.000 A 
ATOM     12  N   UNL     1      51.104   6.843  16.375  0.00  0.00    +0.000 NA
ATOM     13  C   UNL     1      49.909   6.979  15.803  0.00  0.00    +0.000 A 
ATOM     14  N   UNL     1      48.855   7.607  16.322  0.00  0.00    +0.000 NA
ATOM     15  C   UNL     1      49.071   8.141  17.525  0.00  0.00    +0.000 A 
ATOM     16  C   UNL     1      47.936   8.855  18.188  0.00  0.00    +0.000 C 
ATOM     17  N   UNL     1      50.228   8.072  18.192  0.00  0.00    +0.000 NA
ENDBRANCH  10  11
ENDBRANCH   9  10
ENDBRANCH   8   9
ENDBRANCH   5   8
ENDBRANCH   1   2
BRANCH   1  20
ATOM     18  C   UNL     1      46.867   4.146  14.511  0.00  0.00    +0.000 C 
ATOM     19  O   UNL     1      47.245   3.077  14.044  0.00  0.00    +0.000 OA
ATOM     20  N   UNL     1      46.805   4.350  15.862  0.00  0.00    +0.000 N 
ATOM     21  H   UNL     1      46.511   5.246  16.230  0.00  0.00    +0.000 HD
BRANCH  18  29
ATOM     22  C   UNL     1      44.055   4.796  12.632  0.00  0.00    +0.000 A 
ATOM     23  N   UNL     1      43.079   5.307  11.855  0.00  0.00    +0.000 NA
ATOM     24  C   UNL     1      43.286   6.501  11.294  0.00  0.00    +0.000 A 
ATOM     25  N   UNL     1      44.371   7.264  11.408  0.00  0.00    +0.000 NA
ATOM     26  C   UNL     1      45.313   6.722  12.198  0.00  0.00    +0.000 A 
ATOM     27  S   UNL     1      46.769   7.557  12.458  0.00  0.00    +0.000 S 
ATOM     28  C   UNL     1      47.350   6.324  13.475  0.00  0.00    +0.000 A 
ATOM     29  C   UNL     1      46.465   5.267  13.642  0.00  0.00    +0.000 A 
ATOM     30  C   UNL     1      45.249   5.502  12.866  0.00  0.00    +0.000 A 
BRANCH  22  32
ATOM     31  C   UNL     1      43.547   2.535  12.298  0.00  0.00    +0.000 C 
ATOM     32  O   UNL     1      43.831   3.575  13.231  0.00  0.00    +0.000 OA
ENDBRANCH  22  32
ENDBRANCH  18  29
ENDBRANCH   1  20
TORSDOF 8
ENDMDL
MODEL 7
REMARK VINA RESULT:    -6.407      4.582      9.608
REMARK INTER + INTRA:         -10.363
REMARK INTER:                  -9.164
REMARK INTRA:                  -1.199
REMARK UNBOUND:                -0.960
REMARK  Name = 
REMARK  10 active torsions:
REMARK  status: ('A' for Active; 'I' for Inactive)
REMARK    1  A    between atoms: C_1  and  O_2
REMARK    2  A    between atoms: O_2  and  C_3
REMARK    3  A    between atoms: C_10  and  C_11
REMARK    4  A    between atoms: N_13  and  C_14
REMARK    5  A    between atoms: C_14  and  C_15
REMARK    6  A    between atoms: C_18  and  C_19
REMARK    7  A    between atoms: C_19  and  S_20
REMARK    8  A    between atoms: S_20  and  C_21
REMARK    9  A    between atoms: C_21  and  C_22
REMARK   10  A    between atoms: C_26  and  C_27
REMARK                            x       y       z     vdW  Elec       q    Type
REMARK                         _______ _______ _______ _____ _____    ______ ____
ROOT
ATOM      1  C   UNL     1      47.465   3.720  17.089  0.00  0.00    +0.000 C 
ENDROOT
BRANCH   1   2
ATOM      2  C   UNL     1      48.946   3.538  17.298  0.00  0.00    +0.000 A 
ATOM      3  C   UNL     1      49.761   4.628  17.637  0.00  0.00    +0.000 A 
ATOM      4  C   UNL     1      51.139   4.462  17.838  0.00  0.00    +0.000 A 
ATOM      5  C   UNL     1      51.733   3.203  17.693  0.00  0.00    +0.000 A 
ATOM      6  C   UNL     1      50.922   2.127  17.312  0.00  0.00    +0.000 A 
ATOM      7  C   UNL     1      49.547   2.287  17.119  0.00  0.00    +0.000 A 
BRANCH   5   8
ATOM      8  C   UNL     1      53.223   2.987  17.839  0.00  0.00    +0.000 C 
BRANCH   8   9
ATOM      9  S   UNL     1      53.867   2.841  19.528  0.00  0.00    +0.000 S 
BRANCH   9  10
ATOM     10  C   UNL     1      55.291   1.726  19.304  0.00  0.00    +0.000 C 
BRANCH  10  11
ATOM     11  C   UNL     1      55.021   0.387  18.652  0.00  0.00    +0.000 A 
ATOM     12  N   UNL     1      55.634   0.109  17.497  0.00  0.00    +0.000 NA
ATOM     13  C   UNL     1      55.446  -1.131  17.047  0.00  0.00    +0.000 A 
ATOM     14  N   UNL     1      54.724  -2.081  17.638  0.00  0.00    +0.000 NA
ATOM     15  C   UNL     1      54.149  -1.704  18.780  0.00  0.00    +0.000 A 
ATOM     16  C   UNL     1      53.329  -2.715  19.519  0.00  0.00    +0.000 C 
ATOM     17  N   UNL     1      54.263  -0.488  19.325  0.00  0.00    +0.000 NA
ENDBRANCH  10  11
ENDBRANCH   9  10
ENDBRANCH   8   9
ENDBRANCH   5   8
ENDBRANCH   1   2
BRANCH   1  20
ATOM     18  C   UNL     1      47.149   4.233  14.700  0.00  0.00    +0.000 C 
ATOM     19  O   UNL     1      47.340   3.062  14.386  0.00  0.00    +0.000 OA
ATOM     20  N   UNL     1      47.194   4.633  16.007  0.00  0.00    +0.000 N 
ATOM     21  H   UNL     1      47.055   5.607  16.247  0.00  0.00    +0.000 HD
BRANCH  18  29
ATOM     22  C   UNL     1      48.763   7.125  13.755  0.00  0.00    +0.000 A 
ATOM     23  N   UNL     1      49.196   8.261  13.175  0.00  0.00    +0.000 NA
ATOM     24  C   UNL     1      48.469   8.773  12.179  0.00  0.00    +0.000 A 
ATOM     25  N   UNL     1      47.334   8.285  11.681  0.00  0.00    +0.000 NA
ATOM     26  C   UNL     1      46.944   7.148  12.280  0.00  0.00    +0.000 A 
ATOM     27  S   UNL     1      45.515   6.383  11.774  0.00  0.00    +0.000 S 
ATOM     28  C   UNL     1      45.723   5.135  12.911  0.00  0.00    +0.000 A 
ATOM     29  C   UNL     1      46.868   5.266  13.688  0.00  0.00    +0.000 A 
ATOM     30  C   UNL     1      47.592   6.480  13.315  0.00  0.00    +0.000 A 
BRANCH  22  32
ATOM     31  C   UNL     1      50.618   7.415  15.152  0.00  0.00    +0.000 C 
ATOM     32  O   UNL     1      49.528   6.583  14.766  0.00  0.00    +0.000 OA
ENDBRANCH  22  32
ENDBRANCH  18  29
ENDBRANCH   1  20
TORSDOF 8
ENDMDL
MODEL 8
REMARK VINA RESULT:    -6.286      5.357     10.025
REMARK INTER + INTRA:         -10.187
REMARK INTER:                  -9.389
REMARK INTRA:                  -0.798
REMARK UNBOUND:                -0.960
REMARK  Name = 
REMARK  10 active torsions:
REMARK  status: ('A' for Active; 'I' for Inactive)
REMARK    1  A    between atoms: C_1  and  O_2
REMARK    2  A    between atoms: O_2  and  C_3
REMARK    3  A    between atoms: C_10  and  C_11
REMARK    4  A    between atoms: N_13  and  C_14
REMARK    5  A    between atoms: C_14  and  C_15
REMARK    6  A    between atoms: C_18  and  C_19
REMARK    7  A    between atoms: C_19  and  S_20
REMARK    8  A    between atoms: S_20  and  C_21
REMARK    9  A    between atoms: C_21  and  C_22
REMARK   10  A    between atoms: C_26  and  C_27
REMARK                            x       y       z     vdW  Elec       q    Type
REMARK                         _______ _______ _______ _____ _____    ______ ____
ROOT
ATOM      1  C   UNL     1      47.447   3.472  16.976  0.00  0.00    +0.000 C 
ENDROOT
BRANCH   1   2
ATOM      2  C   UNL     1      48.899   3.166  17.241  0.00  0.00    +0.000 A 
ATOM      3  C   UNL     1      49.724   4.108  17.874  0.00  0.00    +0.000 A 
ATOM      4  C   UNL     1      51.074   3.826  18.128  0.00  0.00    +0.000 A 
ATOM      5  C   UNL     1      51.630   2.599  17.745  0.00  0.00    +0.000 A 
ATOM      6  C   UNL     1      50.812   1.681  17.076  0.00  0.00    +0.000 A 
ATOM      7  C   UNL     1      49.463   1.955  16.827  0.00  0.00    +0.000 A 
BRANCH   5   8
ATOM      8  C   UNL     1      53.094   2.275  17.942  0.00  0.00    +0.000 C 
BRANCH   8   9
ATOM      9  S   UNL     1      53.676   0.687  17.285  0.00  0.00    +0.000 S 
BRANCH   9  10
ATOM     10  C   UNL     1      54.554  -0.025  18.715  0.00  0.00    +0.000 C 
BRANCH  10  11
ATOM     11  C   UNL     1      54.428  -1.518  18.926  0.00  0.00    +0.000 A 
ATOM     12  N   UNL     1      55.289  -2.323  18.294  0.00  0.00    +0.000 NA
ATOM     13  C   UNL     1      55.198  -3.610  18.623  0.00  0.00    +0.000 A 
ATOM     14  N   UNL     1      54.349  -4.139  19.503  0.00  0.00    +0.000 NA
ATOM     15  C   UNL     1      53.529  -3.256  20.074  0.00  0.00    +0.000 A 
ATOM     16  C   UNL     1      52.550  -3.763  21.086  0.00  0.00    +0.000 C 
ATOM     17  N   UNL     1      53.526  -1.944  19.819  0.00  0.00    +0.000 NA
ENDBRANCH  10  11
ENDBRANCH   9  10
ENDBRANCH   8   9
ENDBRANCH   5   8
ENDBRANCH   1   2
BRANCH   1  20
ATOM     18  C   UNL     1      47.235   4.510  14.752  0.00  0.00    +0.000 C 
ATOM     19  O   UNL     1      47.301   3.419  14.195  0.00  0.00    +0.000 OA
ATOM     20  N   UNL     1      47.299   4.618  16.114  0.00  0.00    +0.000 N 
ATOM     21  H   UNL     1      47.264   5.528  16.555  0.00  0.00    +0.000 HD
BRANCH  18  29
ATOM     22  C   UNL     1      44.847   5.677  12.561  0.00  0.00    +0.000 A 
ATOM     23  N   UNL     1      44.066   6.378  11.716  0.00  0.00    +0.000 NA
ATOM     24  C   UNL     1      44.473   7.597  11.352  0.00  0.00    +0.000 A 
ATOM     25  N   UNL     1      45.589   8.216  11.730  0.00  0.00    +0.000 NA
ATOM     26  C   UNL     1      46.332   7.487  12.579  0.00  0.00    +0.000 A 
ATOM     27  S   UNL     1      47.795   8.120  13.166  0.00  0.00    +0.000 S 
ATOM     28  C   UNL     1      48.083   6.723  14.092  0.00  0.00    +0.000 A 
ATOM     29  C   UNL     1      47.088   5.759  13.983  0.00  0.00    +0.000 A 
ATOM     30  C   UNL     1      46.046   6.215  13.066  0.00  0.00    +0.000 A 
BRANCH  22  32
ATOM     31  C   UNL     1      43.025   4.390  13.268  0.00  0.00    +0.000 C 
ATOM     32  O   UNL     1      44.415   4.429  12.956  0.00  0.00    +0.000 OA
ENDBRANCH  22  32
ENDBRANCH  18  29
ENDBRANCH   1  20
TORSDOF 8
ENDMDL
MODEL 9
REMARK VINA RESULT:    -6.006      5.243      7.973
REMARK INTER + INTRA:          -9.776
REMARK INTER:                  -8.767
REMARK INTRA:                  -1.009
REMARK UNBOUND:                -0.960
REMARK  Name = 
REMARK  10 active torsions:
REMARK  status: ('A' for Active; 'I' for Inactive)
REMARK    1  A    between atoms: C_1  and  O_2
REMARK    2  A    between atoms: O_2  and  C_3
REMARK    3  A    between atoms: C_10  and  C_11
REMARK    4  A    between atoms: N_13  and  C_14
REMARK    5  A    between atoms: C_14  and  C_15
REMARK    6  A    between atoms: C_18  and  C_19
REMARK    7  A    between atoms: C_19  and  S_20
REMARK    8  A    between atoms: S_20  and  C_21
REMARK    9  A    between atoms: C_21  and  C_22
REMARK   10  A    between atoms: C_26  and  C_27
REMARK                            x       y       z     vdW  Elec       q    Type
REMARK                         _______ _______ _______ _____ _____    ______ ____
ROOT
ATOM      1  C   UNL     1      51.542   8.755  11.811  0.00  0.00    +0.000 C 
ENDROOT
BRANCH   1   2
ATOM      2  C   UNL     1      50.071   8.583  12.089  0.00  0.00    +0.000 A 
ATOM      3  C   UNL     1      49.395   9.473  12.936  0.00  0.00    +0.000 A 
ATOM      4  C   UNL     1      48.024   9.321  13.193  0.00  0.00    +0.000 A 
ATOM      5  C   UNL     1      47.304   8.268  12.616  0.00  0.00    +0.000 A 
ATOM      6  C   UNL     1      47.995   7.358  11.805  0.00  0.00    +0.000 A 
ATOM      7  C   UNL     1      49.359   7.511  11.541  0.00  0.00    +0.000 A 
BRANCH   5   8
ATOM      8  C   UNL     1      45.841   8.028  12.912  0.00  0.00    +0.000 C 
BRANCH   8   9
ATOM      9  S   UNL     1      45.244   6.321  12.758  0.00  0.00    +0.000 S 
BRANCH   9  10
ATOM     10  C   UNL     1      44.789   6.229  10.995  0.00  0.00    +0.000 C 
BRANCH  10  11
ATOM     11  C   UNL     1      44.829   4.863  10.345  0.00  0.00    +0.000 A 
ATOM     12  N   UNL     1      44.182   3.857  10.942  0.00  0.00    +0.000 NA
ATOM     13  C   UNL     1      44.157   2.718  10.251  0.00  0.00    +0.000 A 
ATOM     14  N   UNL     1      44.704   2.512   9.054  0.00  0.00    +0.000 NA
ATOM     15  C   UNL     1      45.331   3.573   8.547  0.00  0.00    +0.000 A 
ATOM     16  C   UNL     1      45.964   3.434   7.198  0.00  0.00    +0.000 C 
ATOM     17  N   UNL     1      45.425   4.763   9.149  0.00  0.00    +0.000 NA
ENDBRANCH  10  11
ENDBRANCH   9  10
ENDBRANCH   8   9
ENDBRANCH   5   8
ENDBRANCH   1   2
BRANCH   1  20
ATOM     18  C   UNL     1      52.852   8.944   9.734  0.00  0.00    +0.000 C 
ATOM     19  O   UNL     1      53.490   9.894  10.179  0.00  0.00    +0.000 OA
ATOM     20  N   UNL     1      51.880   8.331  10.476  0.00  0.00    +0.000 N 
ATOM     21  H   UNL     1      51.350   7.563  10.085  0.00  0.00    +0.000 HD
BRANCH  18  29
ATOM     22  C   UNL     1      53.539   5.804   8.498  0.00  0.00    +0.000 A 
ATOM     23  N   UNL     1      53.781   4.704   7.757  0.00  0.00    +0.000 NA
ATOM     24  C   UNL     1      53.884   4.850   6.434  0.00  0.00    +0.000 A 
ATOM     25  N   UNL     1      53.780   5.982   5.741  0.00  0.00    +0.000 NA
ATOM     26  C   UNL     1      53.530   7.051   6.516  0.00  0.00    +0.000 A 
ATOM     27  S   UNL     1      53.367   8.583   5.802  0.00  0.00    +0.000 S 
ATOM     28  C   UNL     1      53.081   9.310   7.312  0.00  0.00    +0.000 A 
ATOM     29  C   UNL     1      53.098   8.420   8.379  0.00  0.00    +0.000 A 
ATOM     30  C   UNL     1      53.379   7.067   7.900  0.00  0.00    +0.000 A 
BRANCH  22  32
ATOM     31  C   UNL     1      54.657   5.631  10.547  0.00  0.00    +0.000 C 
ATOM     32  O   UNL     1      53.407   5.649   9.861  0.00  0.00    +0.000 OA
ENDBRANCH  22  32
ENDBRANCH  18  29
ENDBRANCH   1  20
TORSDOF 8
ENDMDL
