MODEL 1
REMARK VINA RESULT:    -8.575      0.000      0.000
REMARK INTER + INTRA:         -13.172
REMARK INTER:                 -12.084
REMARK INTRA:                  -1.089
REMARK UNBOUND:                -1.089
REMARK  Name = 
REMARK  8 active torsions:
REMARK  status: ('A' for Active; 'I' for Inactive)
REMARK    1  A    between atoms: C_1  and  C_2
REMARK    2  A    between atoms: C_6  and  C_7
REMARK    3  A    between atoms: C_7  and  O_8
REMARK    4  A    between atoms: O_8  and  C_9
REMARK    5  A    between atoms: C_9  and  C_10
REMARK    6  A    between atoms: C_13  and  C_14
REMARK    7  A    between atoms: C_14  and  N_15
REMARK    8  A    between atoms: C_16  and  C_18
REMARK                            x       y       z     vdW  Elec       q    Type
REMARK                         _______ _______ _______ _____ _____    ______ ____
ROOT
ATOM      1  C   UNL     1      44.525   5.662  11.782  0.00  0.00    +0.000 A 
ATOM      2  C   UNL     1      45.415   6.520  11.146  0.00  0.00    +0.000 A 
ATOM      3  C   UNL     1      46.645   6.791  11.743  0.00  0.00    +0.000 A 
ATOM      4  C   UNL     1      46.972   6.198  12.965  0.00  0.00    +0.000 A 
ATOM      5  C   UNL     1      46.007   5.370  13.534  0.00  0.00    +0.000 A 
ATOM      6  N   UNL     1      44.805   5.090  12.979  0.00  0.00    +0.000 NA
ENDROOT
BRANCH   1   7
ATOM      7  C   UNL     1      43.193   5.366  11.128  0.00  0.00    +0.000 C 
BRANCH   7   8
ATOM      8  O   UNL     1      43.404   4.664   9.904  0.00  0.00    +0.000 OA
BRANCH   8   9
ATOM      9  C   UNL     1      43.995   3.387  10.124  0.00  0.00    +0.000 C 
BRANCH   9  15
ATOM     10  C   UNL     1      46.820   0.091   7.598  0.00  0.00    +0.000 C 
ATOM     11  C   UNL     1      46.412   1.511   7.849  0.00  0.00    +0.000 A 
ATOM     12  C   UNL     1      46.975   2.562   7.118  0.00  0.00    +0.000 A 
ATOM     13  C   UNL     1      46.581   3.878   7.358  0.00  0.00    +0.000 A 
ATOM     14  C   UNL     1      45.621   4.152   8.330  0.00  0.00    +0.000 A 
ATOM     15  C   UNL     1      45.029   3.113   9.062  0.00  0.00    +0.000 A 
ATOM     16  C   UNL     1      45.444   1.794   8.821  0.00  0.00    +0.000 A 
ENDBRANCH   9  15
ENDBRANCH   8   9
ENDBRANCH   7   8
ENDBRANCH   1   7
BRANCH   4  17
ATOM     17  C   UNL     1      48.294   6.422  13.654  0.00  0.00    +0.000 C 
BRANCH  17  18
ATOM     18  N   UNL     1      48.176   6.484  15.086  0.00  0.00    +0.000 N 
ATOM     19  C   UNL     1      49.149   7.038  15.882  0.00  0.00    +0.000 C 
ATOM     20  O   UNL     1      50.179   7.533  15.430  0.00  0.00    +0.000 OA
ATOM     21  H   UNL     1      47.533   5.829  15.515  0.00  0.00    +0.000 HD
BRANCH  19  22
ATOM     22  C   UNL     1      48.847   7.052  17.319  0.00  0.00    +0.000 A 
ATOM     23  C   UNL     1      48.488   8.232  17.954  0.00  0.00    +0.000 A 
ATOM     24  S   UNL     1      48.166   8.036  19.621  0.00  0.00    +0.000 S 
ATOM     25  C   UNL     1      48.520   6.373  19.553  0.00  0.00    +0.000 A 
ATOM     26  N   UNL     1      48.469   5.593  20.667  0.00  0.00    +0.000 NA
ATOM     27  C   UNL     1      48.767   4.350  20.464  0.00  0.00    +0.000 A 
ATOM     28  N   UNL     1      49.103   3.815  19.249  0.00  0.00    +0.000 N 
ATOM     29  C   UNL     1      49.147   4.558  18.094  0.00  0.00    +0.000 A 
ATOM     30  O   UNL     1      49.394   4.036  17.019  0.00  0.00    +0.000 OA
ATOM     31  C   UNL     1      48.846   5.967  18.271  0.00  0.00    +0.000 A 
ATOM     32  H   UNL     1      49.298   2.830  19.150  0.00  0.00    +0.000 HD
ENDBRANCH  19  22
ENDBRANCH  17  18
ENDBRANCH   4  17
TORSDOF 7
ENDMDL
MODEL 2
REMARK VINA RESULT:    -8.279      1.594      2.305
REMARK INTER + INTRA:         -12.756
REMARK INTER:                 -12.105
REMARK INTRA:                  -0.651
REMARK UNBOUND:                -1.089
REMARK  Name = 
REMARK  8 active torsions:
REMARK  status: ('A' for Active; 'I' for Inactive)
REMARK    1  A    between atoms: C_1  and  C_2
REMARK    2  A    between atoms: C_6  and  C_7
REMARK    3  A    between atoms: C_7  and  O_8
REMARK    4  A    between atoms: O_8  and  C_9
REMARK    5  A    between atoms: C_9  and  C_10
REMARK    6  A    between atoms: C_13  and  C_14
REMARK    7  A    between atoms: C_14  and  N_15
REMARK    8  A    between atoms: C_16  and  C_18
REMARK                            x       y       z     vdW  Elec       q    Type
REMARK                         _______ _______ _______ _____ _____    ______ ____
ROOT
ATOM      1  C   UNL     1      44.588   3.784  12.508  0.00  0.00    +0.000 A 
ATOM      2  C   UNL     1      44.446   5.158  12.666  0.00  0.00    +0.000 A 
ATOM      3  C   UNL     1      45.488   5.891  13.231  0.00  0.00    +0.000 A 
ATOM      4  C   UNL     1      46.661   5.244  13.625  0.00  0.00    +0.000 A 
ATOM      5  C   UNL     1      46.702   3.863  13.446  0.00  0.00    +0.000 A 
ATOM      6  N   UNL     1      45.706   3.124  12.903  0.00  0.00    +0.000 NA
ENDROOT
BRANCH   1   7
ATOM      7  C   UNL     1      43.457   2.992  11.890  0.00  0.00    +0.000 C 
BRANCH   7   8
ATOM      8  O   UNL     1      43.821   2.581  10.573  0.00  0.00    +0.000 OA
BRANCH   8   9
ATOM      9  C   UNL     1      44.274   3.677   9.785  0.00  0.00    +0.000 C 
BRANCH   9  15
ATOM     10  C   UNL     1      46.798  -0.119   7.677  0.00  0.00    +0.000 C 
ATOM     11  C   UNL     1      46.488   1.346   7.737  0.00  0.00    +0.000 A 
ATOM     12  C   UNL     1      47.091   2.245   6.851  0.00  0.00    +0.000 A 
ATOM     13  C   UNL     1      46.789   3.605   6.913  0.00  0.00    +0.000 A 
ATOM     14  C   UNL     1      45.882   4.075   7.861  0.00  0.00    +0.000 A 
ATOM     15  C   UNL     1      45.251   3.190   8.746  0.00  0.00    +0.000 A 
ATOM     16  C   UNL     1      45.574   1.825   8.683  0.00  0.00    +0.000 A 
ENDBRANCH   9  15
ENDBRANCH   8   9
ENDBRANCH   7   8
ENDBRANCH   1   7
BRANCH   4  17
ATOM     17  C   UNL     1      47.839   5.976  14.216  0.00  0.00    +0.000 C 
BRANCH  17  18
ATOM     18  N   UNL     1      47.872   5.917  15.652  0.00  0.00    +0.000 N 
ATOM     19  C   UNL     1      49.036   6.057  16.368  0.00  0.00    +0.000 C 
ATOM     20  O   UNL     1      50.126   6.258  15.838  0.00  0.00    +0.000 OA
ATOM     21  H   UNL     1      47.095   5.448  16.103  0.00  0.00    +0.000 HD
BRANCH  19  22
ATOM     22  C   UNL     1      48.881   6.009  17.828  0.00  0.00    +0.000 A 
ATOM     23  C   UNL     1      49.250   4.878  18.541  0.00  0.00    +0.000 A 
ATOM     24  S   UNL     1      49.004   5.026  20.225  0.00  0.00    +0.000 S 
ATOM     25  C   UNL     1      48.373   6.597  20.054  0.00  0.00    +0.000 A 
ATOM     26  N   UNL     1      47.931   7.302  21.130  0.00  0.00    +0.000 NA
ATOM     27  C   UNL     1      47.475   8.480  20.847  0.00  0.00    +0.000 A 
ATOM     28  N   UNL     1      47.429   9.019  19.589  0.00  0.00    +0.000 N 
ATOM     29  C   UNL     1      47.884   8.354  18.476  0.00  0.00    +0.000 A 
ATOM     30  O   UNL     1      47.880   8.887  17.379  0.00  0.00    +0.000 OA
ATOM     31  C   UNL     1      48.382   7.015  18.736  0.00  0.00    +0.000 A 
ATOM     32  H   UNL     1      47.087   9.956  19.436  0.00  0.00    +0.000 HD
ENDBRANCH  19  22
ENDBRANCH  17  18
ENDBRANCH   4  17
TORSDOF 7
ENDMDL
MODEL 3
REMARK VINA RESULT:    -7.768      1.809      3.065
REMARK INTER + INTRA:         -12.035
REMARK INTER:                 -11.161
REMARK INTRA:                  -0.874
REMARK UNBOUND:                -1.089
REMARK  Name = 
REMARK  8 active torsions:
REMARK  status: ('A' for Active; 'I' for Inactive)
REMARK    1  A    between atoms: C_1  and  C_2
REMARK    2  A    between atoms: C_6  and  C_7
REMARK    3  A    between atoms: C_7  and  O_8
REMARK    4  A    between atoms: O_8  and  C_9
REMARK    5  A    between atoms: C_9  and  C_10
REMARK    6  A    between atoms: C_13  and  C_14
REMARK    7  A    between atoms: C_14  and  N_15
REMARK    8  A    between atoms: C_16  and  C_18
REMARK                            x       y       z     vdW  Elec       q    Type
REMARK                         _______ _______ _______ _____ _____    ______ ____
ROOT
ATOM      1  C   UNL     1      45.750   5.569  11.758  0.00  0.00    +0.000 A 
ATOM      2  C   UNL     1      46.836   6.258  12.288  0.00  0.00    +0.000 A 
ATOM      3  C   UNL     1      47.379   5.845  13.503  0.00  0.00    +0.000 A 
ATOM      4  C   UNL     1      46.835   4.745  14.171  0.00  0.00    +0.000 A 
ATOM      5  C   UNL     1      45.736   4.133  13.573  0.00  0.00    +0.000 A 
ATOM      6  N   UNL     1      45.186   4.512  12.396  0.00  0.00    +0.000 NA
ENDROOT
BRANCH   1   7
ATOM      7  C   UNL     1      45.166   6.017  10.437  0.00  0.00    +0.000 C 
BRANCH   7   8
ATOM      8  O   UNL     1      45.711   5.228   9.379  0.00  0.00    +0.000 OA
BRANCH   8   9
ATOM      9  C   UNL     1      44.827   4.180   8.995  0.00  0.00    +0.000 C 
BRANCH   9  15
ATOM     10  C   UNL     1      47.729   2.787   5.140  0.00  0.00    +0.000 C 
ATOM     11  C   UNL     1      46.991   2.426   6.393  0.00  0.00    +0.000 A 
ATOM     12  C   UNL     1      47.011   1.118   6.887  0.00  0.00    +0.000 A 
ATOM     13  C   UNL     1      46.325   0.796   8.058  0.00  0.00    +0.000 A 
ATOM     14  C   UNL     1      45.615   1.780   8.742  0.00  0.00    +0.000 A 
ATOM     15  C   UNL     1      45.596   3.102   8.276  0.00  0.00    +0.000 A 
ATOM     16  C   UNL     1      46.278   3.410   7.089  0.00  0.00    +0.000 A 
ENDBRANCH   9  15
ENDBRANCH   8   9
ENDBRANCH   7   8
ENDBRANCH   1   7
BRANCH   4  17
ATOM     17  C   UNL     1      47.389   4.226  15.474  0.00  0.00    +0.000 C 
BRANCH  17  18
ATOM     18  N   UNL     1      47.389   5.215  16.517  0.00  0.00    +0.000 N 
ATOM     19  C   UNL     1      48.547   5.763  17.011  0.00  0.00    +0.000 C 
ATOM     20  O   UNL     1      49.661   5.463  16.589  0.00  0.00    +0.000 OA
ATOM     21  H   UNL     1      46.562   5.256  17.101  0.00  0.00    +0.000 HD
BRANCH  19  22
ATOM     22  C   UNL     1      48.361   6.787  18.048  0.00  0.00    +0.000 A 
ATOM     23  C   UNL     1      48.328   6.436  19.389  0.00  0.00    +0.000 A 
ATOM     24  S   UNL     1      48.117   7.771  20.436  0.00  0.00    +0.000 S 
ATOM     25  C   UNL     1      48.038   8.858  19.129  0.00  0.00    +0.000 A 
ATOM     26  N   UNL     1      47.834  10.188  19.327  0.00  0.00    +0.000 NA
ATOM     27  C   UNL     1      47.794  10.890  18.241  0.00  0.00    +0.000 A 
ATOM     28  N   UNL     1      47.948  10.386  16.976  0.00  0.00    +0.000 N 
ATOM     29  C   UNL     1      48.177   9.054  16.729  0.00  0.00    +0.000 A 
ATOM     30  O   UNL     1      48.366   8.648  15.594  0.00  0.00    +0.000 OA
ATOM     31  C   UNL     1      48.205   8.216  17.914  0.00  0.00    +0.000 A 
ATOM     32  H   UNL     1      47.934  10.991  16.169  0.00  0.00    +0.000 HD
ENDBRANCH  19  22
ENDBRANCH  17  18
ENDBRANCH   4  17
TORSDOF 7
ENDMDL
MODEL 4
REMARK VINA RESULT:    -7.412      2.952      8.742
REMARK INTER + INTRA:         -11.533
REMARK INTER:                 -10.172
REMARK INTRA:                  -1.362
REMARK UNBOUND:                -1.089
REMARK  Name = 
REMARK  8 active torsions:
REMARK  status: ('A' for Active; 'I' for Inactive)
REMARK    1  A    between atoms: C_1  and  C_2
REMARK    2  A    between atoms: C_6  and  C_7
REMARK    3  A    between atoms: C_7  and  O_8
REMARK    4  A    between atoms: O_8  and  C_9
REMARK    5  A    between atoms: C_9  and  C_10
REMARK    6  A    between atoms: C_13  and  C_14
REMARK    7  A    between atoms: C_14  and  N_15
REMARK    8  A    between atoms: C_16  and  C_18
REMARK                            x       y       z     vdW  Elec       q    Type
REMARK                         _______ _______ _______ _____ _____    ______ ____
ROOT
ATOM      1  C   UNL     1      49.224   7.837  15.750  0.00  0.00    +0.000 A 
ATOM      2  C   UNL     1      48.651   8.998  15.241  0.00  0.00    +0.000 A 
ATOM      3  C   UNL     1      48.097   8.981  13.962  0.00  0.00    +0.000 A 
ATOM      4  C   UNL     1      48.117   7.804  13.209  0.00  0.00    +0.000 A 
ATOM      5  C   UNL     1      48.732   6.700  13.796  0.00  0.00    +0.000 A 
ATOM      6  N   UNL     1      49.279   6.686  15.033  0.00  0.00    +0.000 NA
ENDROOT
BRANCH   1   7
ATOM      7  C   UNL     1      49.819   7.858  17.140  0.00  0.00    +0.000 C 
BRANCH   7   8
ATOM      8  O   UNL     1      48.851   7.401  18.084  0.00  0.00    +0.000 OA
BRANCH   8   9
ATOM      9  C   UNL     1      49.342   6.310  18.856  0.00  0.00    +0.000 C 
BRANCH   9  15
ATOM     10  C   UNL     1      50.767   1.800  17.168  0.00  0.00    +0.000 C 
ATOM     11  C   UNL     1      49.690   2.826  17.349  0.00  0.00    +0.000 A 
ATOM     12  C   UNL     1      48.387   2.587  16.902  0.00  0.00    +0.000 A 
ATOM     13  C   UNL     1      47.393   3.548  17.082  0.00  0.00    +0.000 A 
ATOM     14  C   UNL     1      47.695   4.755  17.709  0.00  0.00    +0.000 A 
ATOM     15  C   UNL     1      48.990   5.009  18.182  0.00  0.00    +0.000 A 
ATOM     16  C   UNL     1      49.985   4.040  17.983  0.00  0.00    +0.000 A 
ENDBRANCH   9  15
ENDBRANCH   8   9
ENDBRANCH   7   8
ENDBRANCH   1   7
BRANCH   4  17
ATOM     17  C   UNL     1      47.513   7.704  11.832  0.00  0.00    +0.000 C 
BRANCH  17  18
ATOM     18  N   UNL     1      46.780   6.484  11.629  0.00  0.00    +0.000 N 
ATOM     19  C   UNL     1      45.412   6.419  11.739  0.00  0.00    +0.000 C 
ATOM     20  O   UNL     1      44.717   7.398  12.001  0.00  0.00    +0.000 OA
ATOM     21  H   UNL     1      47.302   5.621  11.731  0.00  0.00    +0.000 HD
BRANCH  19  22
ATOM     22  C   UNL     1      44.824   5.102  11.462  0.00  0.00    +0.000 A 
ATOM     23  C   UNL     1      44.046   4.461  12.414  0.00  0.00    +0.000 A 
ATOM     24  S   UNL     1      43.445   2.948  11.895  0.00  0.00    +0.000 S 
ATOM     25  C   UNL     1      44.226   3.089  10.389  0.00  0.00    +0.000 A 
ATOM     26  N   UNL     1      44.149   2.102   9.457  0.00  0.00    +0.000 NA
ATOM     27  C   UNL     1      44.795   2.346   8.363  0.00  0.00    +0.000 A 
ATOM     28  N   UNL     1      45.505   3.491   8.113  0.00  0.00    +0.000 N 
ATOM     29  C   UNL     1      45.594   4.524   9.015  0.00  0.00    +0.000 A 
ATOM     30  O   UNL     1      46.188   5.552   8.737  0.00  0.00    +0.000 OA
ATOM     31  C   UNL     1      44.907   4.288  10.272  0.00  0.00    +0.000 A 
ATOM     32  H   UNL     1      45.966   3.635   7.228  0.00  0.00    +0.000 HD
ENDBRANCH  19  22
ENDBRANCH  17  18
ENDBRANCH   4  17
TORSDOF 7
ENDMDL
MODEL 5
REMARK VINA RESULT:    -7.236      1.655      2.265
REMARK INTER + INTRA:         -11.286
REMARK INTER:                 -10.287
REMARK INTRA:                  -1.000
REMARK UNBOUND:                -1.089
REMARK  Name = 
REMARK  8 active torsions:
REMARK  status: ('A' for Active; 'I' for Inactive)
REMARK    1  A    between atoms: C_1  and  C_2
REMARK    2  A    between atoms: C_6  and  C_7
REMARK    3  A    between atoms: C_7  and  O_8
REMARK    4  A    between atoms: O_8  and  C_9
REMARK    5  A    between atoms: C_9  and  C_10
REMARK    6  A    between atoms: C_13  and  C_14
REMARK    7  A    between atoms: C_14  and  N_15
REMARK    8  A    between atoms: C_16  and  C_18
REMARK                            x       y       z     vdW  Elec       q    Type
REMARK                         _______ _______ _______ _____ _____    ______ ____
ROOT
ATOM      1  C   UNL     1      44.719   5.299  11.059  0.00  0.00    +0.000 A 
ATOM      2  C   UNL     1      44.142   5.829  12.209  0.00  0.00    +0.000 A 
ATOM      3  C   UNL     1      44.855   6.760  12.962  0.00  0.00    +0.000 A 
ATOM      4  C   UNL     1      46.131   7.156  12.555  0.00  0.00    +0.000 A 
ATOM      5  C   UNL     1      46.632   6.554  11.403  0.00  0.00    +0.000 A 
ATOM      6  N   UNL     1      45.966   5.647  10.652  0.00  0.00    +0.000 NA
ENDROOT
BRANCH   1   7
ATOM      7  C   UNL     1      43.941   4.293  10.241  0.00  0.00    +0.000 C 
BRANCH   7   8
ATOM      8  O   UNL     1      44.567   3.014  10.332  0.00  0.00    +0.000 OA
BRANCH   8   9
ATOM      9  C   UNL     1      44.182   2.161   9.259  0.00  0.00    +0.000 C 
BRANCH   9  15
ATOM     10  C   UNL     1      47.001   3.935   5.499  0.00  0.00    +0.000 C 
ATOM     11  C   UNL     1      46.694   2.837   6.473  0.00  0.00    +0.000 A 
ATOM     12  C   UNL     1      47.461   1.668   6.503  0.00  0.00    +0.000 A 
ATOM     13  C   UNL     1      47.169   0.657   7.418  0.00  0.00    +0.000 A 
ATOM     14  C   UNL     1      46.109   0.808   8.309  0.00  0.00    +0.000 A 
ATOM     15  C   UNL     1      45.339   1.979   8.310  0.00  0.00    +0.000 A 
ATOM     16  C   UNL     1      45.633   2.984   7.375  0.00  0.00    +0.000 A 
ENDBRANCH   9  15
ENDBRANCH   8   9
ENDBRANCH   7   8
ENDBRANCH   1   7
BRANCH   4  17
ATOM     17  C   UNL     1      46.947   8.179  13.304  0.00  0.00    +0.000 C 
BRANCH  17  18
ATOM     18  N   UNL     1      47.527   7.657  14.512  0.00  0.00    +0.000 N 
ATOM     19  C   UNL     1      48.742   7.017  14.528  0.00  0.00    +0.000 C 
ATOM     20  O   UNL     1      49.427   6.858  13.520  0.00  0.00    +0.000 OA
ATOM     21  H   UNL     1      46.889   7.476  15.278  0.00  0.00    +0.000 HD
BRANCH  19  22
ATOM     22  C   UNL     1      49.202   6.581  15.853  0.00  0.00    +0.000 A 
ATOM     23  C   UNL     1      50.208   7.271  16.513  0.00  0.00    +0.000 A 
ATOM     24  S   UNL     1      50.589   6.615  18.045  0.00  0.00    +0.000 S 
ATOM     25  C   UNL     1      49.440   5.374  17.864  0.00  0.00    +0.000 A 
ATOM     26  N   UNL     1      49.269   4.423  18.822  0.00  0.00    +0.000 NA
ATOM     27  C   UNL     1      48.363   3.542  18.546  0.00  0.00    +0.000 A 
ATOM     28  N   UNL     1      47.606   3.529  17.404  0.00  0.00    +0.000 N 
ATOM     29  C   UNL     1      47.728   4.479  16.419  0.00  0.00    +0.000 A 
ATOM     30  O   UNL     1      46.999   4.469  15.442  0.00  0.00    +0.000 OA
ATOM     31  C   UNL     1      48.752   5.478  16.668  0.00  0.00    +0.000 A 
ATOM     32  H   UNL     1      46.894   2.829  17.259  0.00  0.00    +0.000 HD
ENDBRANCH  19  22
ENDBRANCH  17  18
ENDBRANCH   4  17
TORSDOF 7
ENDMDL
MODEL 6
REMARK VINA RESULT:    -6.970      3.854      5.622
REMARK INTER + INTRA:         -10.912
REMARK INTER:                  -9.870
REMARK INTRA:                  -1.042
REMARK UNBOUND:                -1.089
REMARK  Name = 
REMARK  8 active torsions:
REMARK  status: ('A' for Active; 'I' for Inactive)
REMARK    1  A    between atoms: C_1  and  C_2
REMARK    2  A    between atoms: C_6  and  C_7
REMARK    3  A    between atoms: C_7  and  O_8
REMARK    4  A    between atoms: O_8  and  C_9
REMARK    5  A    between atoms: C_9  and  C_10
REMARK    6  A    between atoms: C_13  and  C_14
REMARK    7  A    between atoms: C_14  and  N_15
REMARK    8  A    between atoms: C_16  and  C_18
REMARK                            x       y       z     vdW  Elec       q    Type
REMARK                         _______ _______ _______ _____ _____    ______ ____
ROOT
ATOM      1  C   UNL     1      46.081   4.977  12.752  0.00  0.00    +0.000 A 
ATOM      2  C   UNL     1      46.588   4.600  13.991  0.00  0.00    +0.000 A 
ATOM      3  C   UNL     1      47.558   5.392  14.601  0.00  0.00    +0.000 A 
ATOM      4  C   UNL     1      48.007   6.555  13.969  0.00  0.00    +0.000 A 
ATOM      5  C   UNL     1      47.456   6.838  12.721  0.00  0.00    +0.000 A 
ATOM      6  N   UNL     1      46.514   6.087  12.104  0.00  0.00    +0.000 NA
ENDROOT
BRANCH   1   7
ATOM      7  C   UNL     1      45.025   4.117  12.096  0.00  0.00    +0.000 C 
BRANCH   7   8
ATOM      8  O   UNL     1      44.703   4.648  10.810  0.00  0.00    +0.000 OA
BRANCH   8   9
ATOM      9  C   UNL     1      44.154   3.654   9.952  0.00  0.00    +0.000 C 
BRANCH   9  15
ATOM     10  C   UNL     1      46.796   0.083   7.608  0.00  0.00    +0.000 C 
ATOM     11  C   UNL     1      46.459   1.533   7.779  0.00  0.00    +0.000 A 
ATOM     12  C   UNL     1      47.069   2.512   6.987  0.00  0.00    +0.000 A 
ATOM     13  C   UNL     1      46.742   3.857   7.153  0.00  0.00    +0.000 A 
ATOM     14  C   UNL     1      45.804   4.233   8.111  0.00  0.00    +0.000 A 
ATOM     15  C   UNL     1      45.166   3.269   8.903  0.00  0.00    +0.000 A 
ATOM     16  C   UNL     1      45.513   1.919   8.737  0.00  0.00    +0.000 A 
ENDBRANCH   9  15
ENDBRANCH   8   9
ENDBRANCH   7   8
ENDBRANCH   1   7
BRANCH   4  17
ATOM     17  C   UNL     1      49.032   7.474  14.582  0.00  0.00    +0.000 C 
BRANCH  17  18
ATOM     18  N   UNL     1      50.266   7.508  13.845  0.00  0.00    +0.000 N 
ATOM     19  C   UNL     1      51.076   8.616  13.815  0.00  0.00    +0.000 C 
ATOM     20  O   UNL     1      50.816   9.650  14.426  0.00  0.00    +0.000 OA
ATOM     21  H   UNL     1      50.362   6.834  13.094  0.00  0.00    +0.000 HD
BRANCH  19  22
ATOM     22  C   UNL     1      52.317   8.464  13.044  0.00  0.00    +0.000 A 
ATOM     23  C   UNL     1      53.543   8.781  13.609  0.00  0.00    +0.000 A 
ATOM     24  S   UNL     1      54.864   8.522  12.556  0.00  0.00    +0.000 S 
ATOM     25  C   UNL     1      53.838   8.002  11.302  0.00  0.00    +0.000 A 
ATOM     26  N   UNL     1      54.331   7.650  10.084  0.00  0.00    +0.000 NA
ATOM     27  C   UNL     1      53.433   7.279   9.230  0.00  0.00    +0.000 A 
ATOM     28  N   UNL     1      52.089   7.220   9.484  0.00  0.00    +0.000 N 
ATOM     29  C   UNL     1      51.546   7.544  10.705  0.00  0.00    +0.000 A 
ATOM     30  O   UNL     1      50.350   7.425  10.913  0.00  0.00    +0.000 OA
ATOM     31  C   UNL     1      52.510   7.993  11.692  0.00  0.00    +0.000 A 
ATOM     32  H   UNL     1      51.440   6.895   8.783  0.00  0.00    +0.000 HD
ENDBRANCH  19  22
ENDBRANCH  17  18
ENDBRANCH   4  17
TORSDOF 7
ENDMDL
MODEL 7
REMARK VINA RESULT:    -6.579      1.567      2.186
REMARK INTER + INTRA:         -10.361
REMARK INTER:                  -9.482
REMARK INTRA:                  -0.879
REMARK UNBOUND:                -1.089
REMARK  Name = 
REMARK  8 active torsions:
REMARK  status: ('A' for Active; 'I' for Inactive)
REMARK    1  A    between atoms: C_1  and  C_2
REMARK    2  A    between atoms: C_6  and  C_7
REMARK    3  A    between atoms: C_7  and  O_8
REMARK    4  A    between atoms: O_8  and  C_9
REMARK    5  A    between atoms: C_9  and  C_10
REMARK    6  A    between atoms: C_13  and  C_14
REMARK    7  A    between atoms: C_14  and  N_15
REMARK    8  A    between atoms: C_16  and  C_18
REMARK                            x       y       z     vdW  Elec       q    Type
REMARK                         _______ _______ _______ _____ _____    ______ ____
ROOT
ATOM      1  C   UNL     1      44.941   5.566  11.154  0.00  0.00    +0.000 A 
ATOM      2  C   UNL     1      44.336   6.222  12.222  0.00  0.00    +0.000 A 
ATOM      3  C   UNL     1      45.052   7.194  12.919  0.00  0.00    +0.000 A 
ATOM      4  C   UNL     1      46.360   7.503  12.538  0.00  0.00    +0.000 A 
ATOM      5  C   UNL     1      46.887   6.778  11.471  0.00  0.00    +0.000 A 
ATOM      6  N   UNL     1      46.217   5.828  10.777  0.00  0.00    +0.000 NA
ENDROOT
BRANCH   1   7
ATOM      7  C   UNL     1      44.160   4.516  10.397  0.00  0.00    +0.000 C 
BRANCH   7   8
ATOM      8  O   UNL     1      44.877   3.283  10.408  0.00  0.00    +0.000 OA
BRANCH   8   9
ATOM      9  C   UNL     1      44.368   2.368   9.442  0.00  0.00    +0.000 C 
BRANCH   9  15
ATOM     10  C   UNL     1      46.882   3.857   5.357  0.00  0.00    +0.000 C 
ATOM     11  C   UNL     1      46.624   2.814   6.401  0.00  0.00    +0.000 A 
ATOM     12  C   UNL     1      47.336   1.610   6.408  0.00  0.00    +0.000 A 
ATOM     13  C   UNL     1      47.090   0.651   7.389  0.00  0.00    +0.000 A 
ATOM     14  C   UNL     1      46.130   0.888   8.371  0.00  0.00    +0.000 A 
ATOM     15  C   UNL     1      45.417   2.094   8.395  0.00  0.00    +0.000 A 
ATOM     16  C   UNL     1      45.663   3.046   7.394  0.00  0.00    +0.000 A 
ENDBRANCH   9  15
ENDBRANCH   8   9
ENDBRANCH   7   8
ENDBRANCH   1   7
BRANCH   4  17
ATOM     17  C   UNL     1      47.183   8.561  13.227  0.00  0.00    +0.000 C 
BRANCH  17  18
ATOM     18  N   UNL     1      47.457   8.250  14.604  0.00  0.00    +0.000 N 
ATOM     19  C   UNL     1      48.263   9.036  15.390  0.00  0.00    +0.000 C 
ATOM     20  O   UNL     1      48.794  10.066  14.982  0.00  0.00    +0.000 OA
ATOM     21  H   UNL     1      47.321   7.286  14.885  0.00  0.00    +0.000 HD
BRANCH  19  22
ATOM     22  C   UNL     1      48.404   8.591  16.783  0.00  0.00    +0.000 A 
ATOM     23  C   UNL     1      47.931   9.373  17.826  0.00  0.00    +0.000 A 
ATOM     24  S   UNL     1      48.179   8.675  19.365  0.00  0.00    +0.000 S 
ATOM     25  C   UNL     1      48.948   7.316  18.690  0.00  0.00    +0.000 A 
ATOM     26  N   UNL     1      49.445   6.322  19.475  0.00  0.00    +0.000 NA
ATOM     27  C   UNL     1      50.005   5.355  18.823  0.00  0.00    +0.000 A 
ATOM     28  N   UNL     1      50.107   5.287  17.458  0.00  0.00    +0.000 N 
ATOM     29  C   UNL     1      49.602   6.256  16.625  0.00  0.00    +0.000 A 
ATOM     30  O   UNL     1      49.660   6.135  15.412  0.00  0.00    +0.000 OA
ATOM     31  C   UNL     1      48.985   7.377  17.308  0.00  0.00    +0.000 A 
ATOM     32  H   UNL     1      50.532   4.491  17.007  0.00  0.00    +0.000 HD
ENDBRANCH  19  22
ENDBRANCH  17  18
ENDBRANCH   4  17
TORSDOF 7
ENDMDL
MODEL 8
REMARK VINA RESULT:    -6.552      3.699      9.601
REMARK INTER + INTRA:         -10.321
REMARK INTER:                  -9.196
REMARK INTRA:                  -1.125
REMARK UNBOUND:                -1.089
REMARK  Name = 
REMARK  8 active torsions:
REMARK  status: ('A' for Active; 'I' for Inactive)
REMARK    1  A    between atoms: C_1  and  C_2
REMARK    2  A    between atoms: C_6  and  C_7
REMARK    3  A    between atoms: C_7  and  O_8
REMARK    4  A    between atoms: O_8  and  C_9
REMARK    5  A    between atoms: C_9  and  C_10
REMARK    6  A    between atoms: C_13  and  C_14
REMARK    7  A    between atoms: C_14  and  N_15
REMARK    8  A    between atoms: C_16  and  C_18
REMARK                            x       y       z     vdW  Elec       q    Type
REMARK                         _______ _______ _______ _____ _____    ______ ____
ROOT
ATOM      1  C   UNL     1      49.803   5.704  19.343  0.00  0.00    +0.000 A 
ATOM      2  C   UNL     1      49.396   4.411  19.651  0.00  0.00    +0.000 A 
ATOM      3  C   UNL     1      48.558   3.731  18.768  0.00  0.00    +0.000 A 
ATOM      4  C   UNL     1      48.141   4.350  17.587  0.00  0.00    +0.000 A 
ATOM      5  C   UNL     1      48.583   5.654  17.377  0.00  0.00    +0.000 A 
ATOM      6  N   UNL     1      49.395   6.339  18.215  0.00  0.00    +0.000 NA
ENDROOT
BRANCH   1   7
ATOM      7  C   UNL     1      50.716   6.437  20.299  0.00  0.00    +0.000 C 
BRANCH   7   8
ATOM      8  O   UNL     1      52.028   6.520  19.743  0.00  0.00    +0.000 OA
BRANCH   8   9
ATOM      9  C   UNL     1      52.933   5.633  20.393  0.00  0.00    +0.000 C 
BRANCH   9  15
ATOM     10  C   UNL     1      52.503   1.369  17.774  0.00  0.00    +0.000 C 
ATOM     11  C   UNL     1      53.302   2.585  18.134  0.00  0.00    +0.000 A 
ATOM     12  C   UNL     1      54.554   2.819  17.556  0.00  0.00    +0.000 A 
ATOM     13  C   UNL     1      55.284   3.957  17.895  0.00  0.00    +0.000 A 
ATOM     14  C   UNL     1      54.768   4.869  18.814  0.00  0.00    +0.000 A 
ATOM     15  C   UNL     1      53.507   4.665  19.391  0.00  0.00    +0.000 A 
ATOM     16  C   UNL     1      52.788   3.508  19.053  0.00  0.00    +0.000 A 
ENDBRANCH   9  15
ENDBRANCH   8   9
ENDBRANCH   7   8
ENDBRANCH   1   7
BRANCH   4  17
ATOM     17  C   UNL     1      47.259   3.666  16.575  0.00  0.00    +0.000 C 
BRANCH  17  18
ATOM     18  N   UNL     1      46.736   4.569  15.586  0.00  0.00    +0.000 N 
ATOM     19  C   UNL     1      46.749   4.280  14.243  0.00  0.00    +0.000 C 
ATOM     20  O   UNL     1      47.191   3.226  13.792  0.00  0.00    +0.000 OA
ATOM     21  H   UNL     1      46.664   5.543  15.857  0.00  0.00    +0.000 HD
BRANCH  19  22
ATOM     22  C   UNL     1      46.140   5.299  13.378  0.00  0.00    +0.000 A 
ATOM     23  C   UNL     1      46.841   6.446  13.036  0.00  0.00    +0.000 A 
ATOM     24  S   UNL     1      45.965   7.497  12.013  0.00  0.00    +0.000 S 
ATOM     25  C   UNL     1      44.611   6.466  12.015  0.00  0.00    +0.000 A 
ATOM     26  N   UNL     1      43.473   6.792  11.344  0.00  0.00    +0.000 NA
ATOM     27  C   UNL     1      42.527   5.914  11.438  0.00  0.00    +0.000 A 
ATOM     28  N   UNL     1      42.617   4.738  12.135  0.00  0.00    +0.000 N 
ATOM     29  C   UNL     1      43.753   4.357  12.809  0.00  0.00    +0.000 A 
ATOM     30  O   UNL     1      43.817   3.277  13.372  0.00  0.00    +0.000 OA
ATOM     31  C   UNL     1      44.837   5.320  12.757  0.00  0.00    +0.000 A 
ATOM     32  H   UNL     1      41.852   4.080  12.148  0.00  0.00    +0.000 HD
ENDBRANCH  19  22
ENDBRANCH  17  18
ENDBRANCH   4  17
TORSDOF 7
ENDMDL
MODEL 9
REMARK VINA RESULT:    -6.055      2.841      3.229
REMARK INTER + INTRA:          -9.622
REMARK INTER:                  -8.948
REMARK INTRA:                  -0.673
REMARK UNBOUND:                -1.089
REMARK  Name = 
REMARK  8 active torsions:
REMARK  status: ('A' for Active; 'I' for Inactive)
REMARK    1  A    between atoms: C_1  and  C_2
REMARK    2  A    between atoms: C_6  and  C_7
REMARK    3  A    between atoms: C_7  and  O_8
REMARK    4  A    between atoms: O_8  and  C_9
REMARK    5  A    between atoms: C_9  and  C_10
REMARK    6  A    between atoms: C_13  and  C_14
REMARK    7  A    between atoms: C_14  and  N_15
REMARK    8  A    between atoms: C_16  and  C_18
REMARK                            x       y       z     vdW  Elec       q    Type
REMARK                         _______ _______ _______ _____ _____    ______ ____
ROOT
ATOM      1  C   UNL     1      45.947   5.469  12.248  0.00  0.00    +0.000 A 
ATOM      2  C   UNL     1      46.475   5.523  13.533  0.00  0.00    +0.000 A 
ATOM      3  C   UNL     1      47.537   6.387  13.798  0.00  0.00    +0.000 A 
ATOM      4  C   UNL     1      48.054   7.189  12.778  0.00  0.00    +0.000 A 
ATOM      5  C   UNL     1      47.473   7.049  11.520  0.00  0.00    +0.000 A 
ATOM      6  N   UNL     1      46.444   6.219  11.232  0.00  0.00    +0.000 NA
ENDROOT
BRANCH   1   7
ATOM      7  C   UNL     1      44.792   4.534  11.965  0.00  0.00    +0.000 C 
BRANCH   7   8
ATOM      8  O   UNL     1      44.316   4.747  10.637  0.00  0.00    +0.000 OA
BRANCH   8   9
ATOM      9  C   UNL     1      43.998   3.520   9.988  0.00  0.00    +0.000 C 
BRANCH   9  15
ATOM     10  C   UNL     1      46.816   0.079   7.655  0.00  0.00    +0.000 C 
ATOM     11  C   UNL     1      46.439   1.516   7.854  0.00  0.00    +0.000 A 
ATOM     12  C   UNL     1      47.057   2.531   7.116  0.00  0.00    +0.000 A 
ATOM     13  C   UNL     1      46.693   3.863   7.306  0.00  0.00    +0.000 A 
ATOM     14  C   UNL     1      45.707   4.190   8.235  0.00  0.00    +0.000 A 
ATOM     15  C   UNL     1      45.060   3.189   8.972  0.00  0.00    +0.000 A 
ATOM     16  C   UNL     1      45.446   1.853   8.782  0.00  0.00    +0.000 A 
ENDBRANCH   9  15
ENDBRANCH   8   9
ENDBRANCH   7   8
ENDBRANCH   1   7
BRANCH   4  17
ATOM     17  C   UNL     1      49.180   8.166  12.999  0.00  0.00    +0.000 C 
BRANCH  17  18
ATOM     18  N   UNL     1      49.710   8.118  14.335  0.00  0.00    +0.000 N 
ATOM     19  C   UNL     1      51.025   8.395  14.616  0.00  0.00    +0.000 C 
ATOM     20  O   UNL     1      51.838   8.720  13.754  0.00  0.00    +0.000 OA
ATOM     21  H   UNL     1      49.191   7.564  15.007  0.00  0.00    +0.000 HD
BRANCH  19  22
ATOM     22  C   UNL     1      51.387   8.336  16.039  0.00  0.00    +0.000 A 
ATOM     23  C   UNL     1      50.547   8.872  17.004  0.00  0.00    +0.000 A 
ATOM     24  S   UNL     1      51.140   8.690  18.596  0.00  0.00    +0.000 S 
ATOM     25  C   UNL     1      52.549   7.912  18.046  0.00  0.00    +0.000 A 
ATOM     26  N   UNL     1      53.519   7.509  18.911  0.00  0.00    +0.000 NA
ATOM     27  C   UNL     1      54.533   6.935  18.349  0.00  0.00    +0.000 A 
ATOM     28  N   UNL     1      54.662   6.720  17.002  0.00  0.00    +0.000 N 
ATOM     29  C   UNL     1      53.700   7.088  16.093  0.00  0.00    +0.000 A 
ATOM     30  O   UNL     1      53.823   6.830  14.907  0.00  0.00    +0.000 OA
ATOM     31  C   UNL     1      52.552   7.762  16.670  0.00  0.00    +0.000 A 
ATOM     32  H   UNL     1      55.467   6.240  16.626  0.00  0.00    +0.000 HD
ENDBRANCH  19  22
ENDBRANCH  17  18
ENDBRANCH   4  17
TORSDOF 7
ENDMDL
