MODEL 1
REMARK VINA RESULT:    -8.647      0.000      0.000
REMARK INTER + INTRA:         -12.660
REMARK INTER:                 -11.680
REMARK INTRA:                  -0.980
REMARK UNBOUND:                -0.980
REMARK  Name = 
REMARK  6 active torsions:
REMARK  status: ('A' for Active; 'I' for Inactive)
REMARK    1  A    between atoms: C_2  and  C_20
REMARK    2  A    between atoms: N_3  and  C_4
REMARK    3  A    between atoms: C_4  and  C_5
REMARK    4  A    between atoms: C_8  and  C_9
REMARK    5  A    between atoms: C_9  and  N_10
REMARK    6  A    between atoms: C_11  and  C_13
REMARK                            x       y       z     vdW  Elec       q    Type
REMARK                         _______ _______ _______ _____ _____    ______ ____
ROOT
ATOM      1  C   UNL     1      47.243   4.300  15.035  0.00  0.00    +0.000 C 
ENDROOT
BRANCH   1   2
ATOM      2  C   UNL     1      46.393   4.393  13.772  0.00  0.00    +0.000 A 
ATOM      3  N   UNL     1      46.015   5.623  13.364  0.00  0.00    +0.000 NA
ATOM      4  C   UNL     1      45.214   5.679  12.273  0.00  0.00    +0.000 A 
ATOM      5  C   UNL     1      44.754   4.568  11.601  0.00  0.00    +0.000 A 
ATOM      6  C   UNL     1      45.166   3.363  12.124  0.00  0.00    +0.000 A 
ATOM      7  N   UNL     1      45.980   3.250  13.196  0.00  0.00    +0.000 NA
BRANCH   5   8
ATOM      8  C   UNL     1      43.923   4.668  10.361  0.00  0.00    +0.000 C 
BRANCH   8   9
ATOM      9  N   UNL     1      44.441   3.791   9.336  0.00  0.00    +0.000 N 
ATOM     10  C   UNL     1      45.484   4.162   8.512  0.00  0.00    +0.000 C 
ATOM     11  O   UNL     1      46.078   5.223   8.614  0.00  0.00    +0.000 OA
ATOM     12  H   UNL     1      43.883   2.988   9.069  0.00  0.00    +0.000 HD
BRANCH  10  13
ATOM     13  C   UNL     1      45.781   3.119   7.439  0.00  0.00    +0.000 C 
ATOM     14  C   UNL     1      46.451   1.870   8.005  0.00  0.00    +0.000 C 
ATOM     15  C   UNL     1      47.092   1.188   6.801  0.00  0.00    +0.000 C 
ATOM     16  C   UNL     1      47.204   2.259   5.717  0.00  0.00    +0.000 C 
ATOM     17  C   UNL     1      46.785   3.566   6.381  0.00  0.00    +0.000 C 
ENDBRANCH  10  13
ENDBRANCH   8   9
ENDBRANCH   5   8
ENDBRANCH   1   2
BRANCH   1  20
ATOM     18  O   UNL     1      49.665   5.041  16.382  0.00  0.00    +0.000 OA
ATOM     19  C   UNL     1      48.731   5.822  16.283  0.00  0.00    +0.000 C 
ATOM     20  N   UNL     1      47.616   5.623  15.494  0.00  0.00    +0.000 N 
ATOM     21  H   UNL     1      46.830   6.235  15.638  0.00  0.00    +0.000 HD
BRANCH  19  22
ATOM     22  C   UNL     1      48.569   6.987  17.145  0.00  0.00    +0.000 A 
ATOM     23  C   UNL     1      49.095   8.228  16.826  0.00  0.00    +0.000 A 
ATOM     24  S   UNL     1      49.258   9.219  18.219  0.00  0.00    +0.000 S 
ATOM     25  C   UNL     1      48.502   8.051  19.207  0.00  0.00    +0.000 A 
ATOM     26  N   UNL     1      48.438   8.168  20.561  0.00  0.00    +0.000 NA
ATOM     27  C   UNL     1      47.778   7.217  21.139  0.00  0.00    +0.000 A 
ATOM     28  N   UNL     1      47.130   6.194  20.488  0.00  0.00    +0.000 N 
ATOM     29  C   UNL     1      47.157   6.048  19.123  0.00  0.00    +0.000 A 
ATOM     30  O   UNL     1      46.513   5.177  18.551  0.00  0.00    +0.000 OA
ATOM     31  C   UNL     1      48.001   7.012  18.456  0.00  0.00    +0.000 A 
ATOM     32  H   UNL     1      46.556   5.536  20.995  0.00  0.00    +0.000 HD
ENDBRANCH  19  22
ENDBRANCH   1  20
TORSDOF 6
ENDMDL
MODEL 2
REMARK VINA RESULT:    -8.313      2.536      3.118
REMARK INTER + INTRA:         -12.209
REMARK INTER:                 -11.284
REMARK INTRA:                  -0.925
REMARK UNBOUND:                -0.980
REMARK  Name = 
REMARK  6 active torsions:
REMARK  status: ('A' for Active; 'I' for Inactive)
REMARK    1  A    between atoms: C_2  and  C_20
REMARK    2  A    between atoms: N_3  and  C_4
REMARK    3  A    between atoms: C_4  and  C_5
REMARK    4  A    between atoms: C_8  and  C_9
REMARK    5  A    between atoms: C_9  and  N_10
REMARK    6  A    between atoms: C_11  and  C_13
REMARK                            x       y       z     vdW  Elec       q    Type
REMARK                         _______ _______ _______ _____ _____    ______ ____
ROOT
ATOM      1  C   UNL     1      47.957   7.535  14.062  0.00  0.00    +0.000 C 
ENDROOT
BRANCH   1   2
ATOM      2  C   UNL     1      46.834   6.951  13.213  0.00  0.00    +0.000 A 
ATOM      3  N   UNL     1      46.113   7.805  12.456  0.00  0.00    +0.000 NA
ATOM      4  C   UNL     1      45.085   7.272  11.753  0.00  0.00    +0.000 A 
ATOM      5  C   UNL     1      44.731   5.942  11.801  0.00  0.00    +0.000 A 
ATOM      6  C   UNL     1      45.506   5.167  12.633  0.00  0.00    +0.000 A 
ATOM      7  N   UNL     1      46.554   5.641  13.340  0.00  0.00    +0.000 NA
BRANCH   5   8
ATOM      8  C   UNL     1      43.629   5.376  10.962  0.00  0.00    +0.000 C 
BRANCH   8   9
ATOM      9  N   UNL     1      44.170   4.752   9.775  0.00  0.00    +0.000 N 
ATOM     10  C   UNL     1      44.243   3.380   9.637  0.00  0.00    +0.000 C 
ATOM     11  O   UNL     1      43.818   2.596  10.469  0.00  0.00    +0.000 OA
ATOM     12  H   UNL     1      44.708   5.327   9.138  0.00  0.00    +0.000 HD
BRANCH  10  13
ATOM     13  C   UNL     1      44.949   2.961   8.352  0.00  0.00    +0.000 C 
ATOM     14  C   UNL     1      45.825   1.724   8.541  0.00  0.00    +0.000 C 
ATOM     15  C   UNL     1      46.788   1.741   7.358  0.00  0.00    +0.000 C 
ATOM     16  C   UNL     1      46.781   3.173   6.825  0.00  0.00    +0.000 C 
ATOM     17  C   UNL     1      45.950   3.980   7.816  0.00  0.00    +0.000 C 
ENDBRANCH  10  13
ENDBRANCH   8   9
ENDBRANCH   5   8
ENDBRANCH   1   2
BRANCH   1  20
ATOM     18  O   UNL     1      48.550   8.261  16.773  0.00  0.00    +0.000 OA
ATOM     19  C   UNL     1      48.722   7.120  16.371  0.00  0.00    +0.000 C 
ATOM     20  N   UNL     1      48.286   6.640  15.153  0.00  0.00    +0.000 N 
ATOM     21  H   UNL     1      48.649   5.751  14.848  0.00  0.00    +0.000 HD
BRANCH  19  22
ATOM     22  C   UNL     1      49.591   6.159  17.040  0.00  0.00    +0.000 A 
ATOM     23  C   UNL     1      50.849   6.496  17.511  0.00  0.00    +0.000 A 
ATOM     24  S   UNL     1      51.839   5.106  17.711  0.00  0.00    +0.000 S 
ATOM     25  C   UNL     1      50.551   4.062  17.307  0.00  0.00    +0.000 A 
ATOM     26  N   UNL     1      50.721   2.725  17.126  0.00  0.00    +0.000 NA
ATOM     27  C   UNL     1      49.623   2.084  16.880  0.00  0.00    +0.000 A 
ATOM     28  N   UNL     1      48.369   2.645  16.853  0.00  0.00    +0.000 N 
ATOM     29  C   UNL     1      48.152   3.988  17.045  0.00  0.00    +0.000 A 
ATOM     30  O   UNL     1      47.023   4.461  17.095  0.00  0.00    +0.000 OA
ATOM     31  C   UNL     1      49.368   4.755  17.184  0.00  0.00    +0.000 A 
ATOM     32  H   UNL     1      47.545   2.072  16.746  0.00  0.00    +0.000 HD
ENDBRANCH  19  22
ENDBRANCH   1  20
TORSDOF 6
ENDMDL
MODEL 3
REMARK VINA RESULT:    -8.184      1.750      2.251
REMARK INTER + INTRA:         -12.034
REMARK INTER:                 -11.076
REMARK INTRA:                  -0.958
REMARK UNBOUND:                -0.980
REMARK  Name = 
REMARK  6 active torsions:
REMARK  status: ('A' for Active; 'I' for Inactive)
REMARK    1  A    between atoms: C_2  and  C_20
REMARK    2  A    between atoms: N_3  and  C_4
REMARK    3  A    between atoms: C_4  and  C_5
REMARK    4  A    between atoms: C_8  and  C_9
REMARK    5  A    between atoms: C_9  and  N_10
REMARK    6  A    between atoms: C_11  and  C_13
REMARK                            x       y       z     vdW  Elec       q    Type
REMARK                         _______ _______ _______ _____ _____    ______ ____
ROOT
ATOM      1  C   UNL     1      47.374   4.121  15.747  0.00  0.00    +0.000 C 
ENDROOT
BRANCH   1   2
ATOM      2  C   UNL     1      46.847   4.697  14.437  0.00  0.00    +0.000 A 
ATOM      3  N   UNL     1      45.656   4.244  13.990  0.00  0.00    +0.000 NA
ATOM      4  C   UNL     1      45.233   4.728  12.798  0.00  0.00    +0.000 A 
ATOM      5  C   UNL     1      45.959   5.609  12.026  0.00  0.00    +0.000 A 
ATOM      6  C   UNL     1      47.175   5.975  12.556  0.00  0.00    +0.000 A 
ATOM      7  N   UNL     1      47.637   5.541  13.748  0.00  0.00    +0.000 NA
BRANCH   5   8
ATOM      8  C   UNL     1      45.433   6.172  10.744  0.00  0.00    +0.000 C 
BRANCH   8   9
ATOM      9  N   UNL     1      45.698   5.265   9.650  0.00  0.00    +0.000 N 
ATOM     10  C   UNL     1      44.761   4.348   9.215  0.00  0.00    +0.000 C 
ATOM     11  O   UNL     1      43.636   4.263   9.679  0.00  0.00    +0.000 OA
ATOM     12  H   UNL     1      46.658   5.148   9.350  0.00  0.00    +0.000 HD
BRANCH  10  13
ATOM     13  C   UNL     1      45.306   3.429   8.126  0.00  0.00    +0.000 C 
ATOM     14  C   UNL     1      45.734   2.067   8.668  0.00  0.00    +0.000 C 
ATOM     15  C   UNL     1      46.662   1.495   7.601  0.00  0.00    +0.000 C 
ATOM     16  C   UNL     1      47.123   2.682   6.758  0.00  0.00    +0.000 C 
ATOM     17  C   UNL     1      46.588   3.924   7.463  0.00  0.00    +0.000 C 
ENDBRANCH  10  13
ENDBRANCH   8   9
ENDBRANCH   5   8
ENDBRANCH   1   2
BRANCH   1  20
ATOM     18  O   UNL     1      49.897   5.194  16.589  0.00  0.00    +0.000 OA
ATOM     19  C   UNL     1      48.860   5.488  17.164  0.00  0.00    +0.000 C 
ATOM     20  N   UNL     1      47.593   5.178  16.713  0.00  0.00    +0.000 N 
ATOM     21  H   UNL     1      46.829   5.298  17.358  0.00  0.00    +0.000 HD
BRANCH  19  22
ATOM     22  C   UNL     1      48.823   6.035  18.515  0.00  0.00    +0.000 A 
ATOM     23  C   UNL     1      48.997   5.248  19.642  0.00  0.00    +0.000 A 
ATOM     24  S   UNL     1      48.349   6.003  21.042  0.00  0.00    +0.000 S 
ATOM     25  C   UNL     1      47.971   7.421  20.172  0.00  0.00    +0.000 A 
ATOM     26  N   UNL     1      47.249   8.441  20.710  0.00  0.00    +0.000 NA
ATOM     27  C   UNL     1      47.109   9.458  19.923  0.00  0.00    +0.000 A 
ATOM     28  N   UNL     1      47.668   9.573  18.672  0.00  0.00    +0.000 N 
ATOM     29  C   UNL     1      48.415   8.574  18.098  0.00  0.00    +0.000 A 
ATOM     30  O   UNL     1      48.970   8.721  17.016  0.00  0.00    +0.000 OA
ATOM     31  C   UNL     1      48.475   7.369  18.892  0.00  0.00    +0.000 A 
ATOM     32  H   UNL     1      47.595  10.432  18.147  0.00  0.00    +0.000 HD
ENDBRANCH  19  22
ENDBRANCH   1  20
TORSDOF 6
ENDMDL
MODEL 4
REMARK VINA RESULT:    -7.966      2.198      2.749
REMARK INTER + INTRA:         -11.740
REMARK INTER:                 -10.802
REMARK INTRA:                  -0.938
REMARK UNBOUND:                -0.980
REMARK  Name = 
REMARK  6 active torsions:
REMARK  status: ('A' for Active; 'I' for Inactive)
REMARK    1  A    between atoms: C_2  and  C_20
REMARK    2  A    between atoms: N_3  and  C_4
REMARK    3  A    between atoms: C_4  and  C_5
REMARK    4  A    between atoms: C_8  and  C_9
REMARK    5  A    between atoms: C_9  and  N_10
REMARK    6  A    between atoms: C_11  and  C_13
REMARK                            x       y       z     vdW  Elec       q    Type
REMARK                         _______ _______ _______ _____ _____    ______ ____
ROOT
ATOM      1  C   UNL     1      47.479   8.325  13.643  0.00  0.00    +0.000 C 
ENDROOT
BRANCH   1   2
ATOM      2  C   UNL     1      46.382   7.553  12.918  0.00  0.00    +0.000 A 
ATOM      3  N   UNL     1      45.660   8.217  11.990  0.00  0.00    +0.000 NA
ATOM      4  C   UNL     1      44.655   7.527  11.399  0.00  0.00    +0.000 A 
ATOM      5  C   UNL     1      44.323   6.229  11.717  0.00  0.00    +0.000 A 
ATOM      6  C   UNL     1      45.097   5.660  12.704  0.00  0.00    +0.000 A 
ATOM      7  N   UNL     1      46.123   6.293  13.311  0.00  0.00    +0.000 NA
BRANCH   5   8
ATOM      8  C   UNL     1      43.248   5.477  10.999  0.00  0.00    +0.000 C 
BRANCH   8   9
ATOM      9  N   UNL     1      43.788   4.817   9.832  0.00  0.00    +0.000 N 
ATOM     10  C   UNL     1      44.210   3.502   9.864  0.00  0.00    +0.000 C 
ATOM     11  O   UNL     1      44.116   2.788  10.849  0.00  0.00    +0.000 OA
ATOM     12  H   UNL     1      44.070   5.391   9.048  0.00  0.00    +0.000 HD
BRANCH  10  13
ATOM     13  C   UNL     1      44.842   3.060   8.548  0.00  0.00    +0.000 C 
ATOM     14  C   UNL     1      45.667   1.784   8.693  0.00  0.00    +0.000 C 
ATOM     15  C   UNL     1      46.579   1.765   7.471  0.00  0.00    +0.000 C 
ATOM     16  C   UNL     1      46.616   3.200   6.947  0.00  0.00    +0.000 C 
ATOM     17  C   UNL     1      45.865   4.037   7.977  0.00  0.00    +0.000 C 
ENDBRANCH  10  13
ENDBRANCH   8   9
ENDBRANCH   5   8
ENDBRANCH   1   2
BRANCH   1  20
ATOM     18  O   UNL     1      49.875   6.983  14.471  0.00  0.00    +0.000 OA
ATOM     19  C   UNL     1      48.867   6.963  15.161  0.00  0.00    +0.000 C 
ATOM     20  N   UNL     1      47.744   7.733  14.939  0.00  0.00    +0.000 N 
ATOM     21  H   UNL     1      46.909   7.496  15.450  0.00  0.00    +0.000 HD
BRANCH  19  22
ATOM     22  C   UNL     1      48.632   5.971  16.204  0.00  0.00    +0.000 A 
ATOM     23  C   UNL     1      47.836   4.856  16.004  0.00  0.00    +0.000 A 
ATOM     24  S   UNL     1      47.280   4.205  17.493  0.00  0.00    +0.000 S 
ATOM     25  C   UNL     1      48.209   5.319  18.391  0.00  0.00    +0.000 A 
ATOM     26  N   UNL     1      48.102   5.440  19.742  0.00  0.00    +0.000 NA
ATOM     27  C   UNL     1      48.925   6.295  20.259  0.00  0.00    +0.000 A 
ATOM     28  N   UNL     1      49.879   6.996  19.561  0.00  0.00    +0.000 N 
ATOM     29  C   UNL     1      50.030   6.892  18.200  0.00  0.00    +0.000 A 
ATOM     30  O   UNL     1      50.934   7.464  17.603  0.00  0.00    +0.000 OA
ATOM     31  C   UNL     1      49.037   6.052  17.572  0.00  0.00    +0.000 A 
ATOM     32  H   UNL     1      50.550   7.579  20.040  0.00  0.00    +0.000 HD
ENDBRANCH  19  22
ENDBRANCH   1  20
TORSDOF 6
ENDMDL
MODEL 5
REMARK VINA RESULT:    -7.885      1.685      2.075
REMARK INTER + INTRA:         -11.631
REMARK INTER:                 -10.600
REMARK INTRA:                  -1.031
REMARK UNBOUND:                -0.980
REMARK  Name = 
REMARK  6 active torsions:
REMARK  status: ('A' for Active; 'I' for Inactive)
REMARK    1  A    between atoms: C_2  and  C_20
REMARK    2  A    between atoms: N_3  and  C_4
REMARK    3  A    between atoms: C_4  and  C_5
REMARK    4  A    between atoms: C_8  and  C_9
REMARK    5  A    between atoms: C_9  and  N_10
REMARK    6  A    between atoms: C_11  and  C_13
REMARK                            x       y       z     vdW  Elec       q    Type
REMARK                         _______ _______ _______ _____ _____    ______ ____
ROOT
ATOM      1  C   UNL     1      48.587   7.095  14.329  0.00  0.00    +0.000 C 
ENDROOT
BRANCH   1   2
ATOM      2  C   UNL     1      47.573   6.127  13.730  0.00  0.00    +0.000 A 
ATOM      3  N   UNL     1      46.506   6.655  13.093  0.00  0.00    +0.000 NA
ATOM      4  C   UNL     1      45.589   5.778  12.618  0.00  0.00    +0.000 A 
ATOM      5  C   UNL     1      45.677   4.413  12.781  0.00  0.00    +0.000 A 
ATOM      6  C   UNL     1      46.783   3.983  13.479  0.00  0.00    +0.000 A 
ATOM      7  N   UNL     1      47.737   4.811  13.956  0.00  0.00    +0.000 NA
BRANCH   5   8
ATOM      8  C   UNL     1      44.679   3.470  12.187  0.00  0.00    +0.000 C 
BRANCH   8   9
ATOM      9  N   UNL     1      45.081   3.085  10.853  0.00  0.00    +0.000 N 
ATOM     10  C   UNL     1      44.559   3.692   9.727  0.00  0.00    +0.000 C 
ATOM     11  O   UNL     1      43.768   4.621   9.768  0.00  0.00    +0.000 OA
ATOM     12  H   UNL     1      45.577   2.210  10.738  0.00  0.00    +0.000 HD
BRANCH  10  13
ATOM     13  C   UNL     1      45.049   3.045   8.436  0.00  0.00    +0.000 C 
ATOM     14  C   UNL     1      45.841   1.764   8.685  0.00  0.00    +0.000 C 
ATOM     15  C   UNL     1      46.633   1.536   7.402  0.00  0.00    +0.000 C 
ATOM     16  C   UNL     1      46.668   2.883   6.680  0.00  0.00    +0.000 C 
ATOM     17  C   UNL     1      46.045   3.886   7.644  0.00  0.00    +0.000 C 
ENDBRANCH  10  13
ENDBRANCH   8   9
ENDBRANCH   5   8
ENDBRANCH   1   2
BRANCH   1  20
ATOM     18  O   UNL     1      50.249   7.417  16.645  0.00  0.00    +0.000 OA
ATOM     19  C   UNL     1      49.031   7.464  16.728  0.00  0.00    +0.000 C 
ATOM     20  N   UNL     1      48.168   7.514  15.651  0.00  0.00    +0.000 N 
ATOM     21  H   UNL     1      47.191   7.356  15.832  0.00  0.00    +0.000 HD
BRANCH  19  22
ATOM     22  C   UNL     1      48.307   7.270  17.979  0.00  0.00    +0.000 A 
ATOM     23  C   UNL     1      47.701   8.314  18.658  0.00  0.00    +0.000 A 
ATOM     24  S   UNL     1      47.444   7.924  20.310  0.00  0.00    +0.000 S 
ATOM     25  C   UNL     1      48.007   6.330  20.080  0.00  0.00    +0.000 A 
ATOM     26  N   UNL     1      48.209   5.468  21.113  0.00  0.00    +0.000 NA
ATOM     27  C   UNL     1      48.583   4.285  20.744  0.00  0.00    +0.000 A 
ATOM     28  N   UNL     1      48.720   3.869  19.441  0.00  0.00    +0.000 N 
ATOM     29  C   UNL     1      48.512   4.703  18.370  0.00  0.00    +0.000 A 
ATOM     30  O   UNL     1      48.562   4.298  17.215  0.00  0.00    +0.000 OA
ATOM     31  C   UNL     1      48.228   6.068  18.747  0.00  0.00    +0.000 A 
ATOM     32  H   UNL     1      48.927   2.906  19.222  0.00  0.00    +0.000 HD
ENDBRANCH  19  22
ENDBRANCH   1  20
TORSDOF 6
ENDMDL
MODEL 6
REMARK VINA RESULT:    -7.834      2.342      3.775
REMARK INTER + INTRA:         -11.562
REMARK INTER:                 -10.743
REMARK INTRA:                  -0.819
REMARK UNBOUND:                -0.980
REMARK  Name = 
REMARK  6 active torsions:
REMARK  status: ('A' for Active; 'I' for Inactive)
REMARK    1  A    between atoms: C_2  and  C_20
REMARK    2  A    between atoms: N_3  and  C_4
REMARK    3  A    between atoms: C_4  and  C_5
REMARK    4  A    between atoms: C_8  and  C_9
REMARK    5  A    between atoms: C_9  and  N_10
REMARK    6  A    between atoms: C_11  and  C_13
REMARK                            x       y       z     vdW  Elec       q    Type
REMARK                         _______ _______ _______ _____ _____    ______ ____
ROOT
ATOM      1  C   UNL     1      47.165   5.091  14.856  0.00  0.00    +0.000 C 
ENDROOT
BRANCH   1   2
ATOM      2  C   UNL     1      46.227   4.876  13.672  0.00  0.00    +0.000 A 
ATOM      3  N   UNL     1      46.002   3.605  13.276  0.00  0.00    +0.000 NA
ATOM      4  C   UNL     1      45.212   3.442  12.189  0.00  0.00    +0.000 A 
ATOM      5  C   UNL     1      44.671   4.484  11.469  0.00  0.00    +0.000 A 
ATOM      6  C   UNL     1      44.996   5.738  11.934  0.00  0.00    +0.000 A 
ATOM      7  N   UNL     1      45.761   5.959  13.024  0.00  0.00    +0.000 NA
BRANCH   5   8
ATOM      8  C   UNL     1      43.750   4.265  10.310  0.00  0.00    +0.000 C 
BRANCH   8   9
ATOM      9  N   UNL     1      44.397   3.462   9.297  0.00  0.00    +0.000 N 
ATOM     10  C   UNL     1      45.354   3.984   8.449  0.00  0.00    +0.000 C 
ATOM     11  O   UNL     1      45.762   5.132   8.519  0.00  0.00    +0.000 OA
ATOM     12  H   UNL     1      43.981   2.571   9.058  0.00  0.00    +0.000 HD
BRANCH  10  13
ATOM     13  C   UNL     1      45.811   2.979   7.396  0.00  0.00    +0.000 C 
ATOM     14  C   UNL     1      46.432   1.727   8.011  0.00  0.00    +0.000 C 
ATOM     15  C   UNL     1      47.238   1.094   6.882  0.00  0.00    +0.000 C 
ATOM     16  C   UNL     1      47.463   2.199   5.850  0.00  0.00    +0.000 C 
ATOM     17  C   UNL     1      46.931   3.477   6.489  0.00  0.00    +0.000 C 
ENDBRANCH  10  13
ENDBRANCH   8   9
ENDBRANCH   5   8
ENDBRANCH   1   2
BRANCH   1  20
ATOM     18  O   UNL     1      49.552   5.795  16.282  0.00  0.00    +0.000 OA
ATOM     19  C   UNL     1      49.027   6.575  15.501  0.00  0.00    +0.000 C 
ATOM     20  N   UNL     1      48.001   6.254  14.636  0.00  0.00    +0.000 N 
ATOM     21  H   UNL     1      47.521   7.014  14.182  0.00  0.00    +0.000 HD
BRANCH  19  22
ATOM     22  C   UNL     1      49.277   8.012  15.517  0.00  0.00    +0.000 A 
ATOM     23  C   UNL     1      49.326   8.746  16.690  0.00  0.00    +0.000 A 
ATOM     24  S   UNL     1      49.058  10.417  16.398  0.00  0.00    +0.000 S 
ATOM     25  C   UNL     1      49.019  10.173  14.709  0.00  0.00    +0.000 A 
ATOM     26  N   UNL     1      48.674  11.156  13.834  0.00  0.00    +0.000 NA
ATOM     27  C   UNL     1      48.756  10.805  12.591  0.00  0.00    +0.000 A 
ATOM     28  N   UNL     1      49.202   9.585  12.141  0.00  0.00    +0.000 N 
ATOM     29  C   UNL     1      49.573   8.572  12.990  0.00  0.00    +0.000 A 
ATOM     30  O   UNL     1      50.041   7.518  12.575  0.00  0.00    +0.000 OA
ATOM     31  C   UNL     1      49.363   8.880  14.385  0.00  0.00    +0.000 A 
ATOM     32  H   UNL     1      49.328   9.409  11.155  0.00  0.00    +0.000 HD
ENDBRANCH  19  22
ENDBRANCH   1  20
TORSDOF 6
ENDMDL
MODEL 7
REMARK VINA RESULT:    -7.792      3.924      9.693
REMARK INTER + INTRA:         -11.506
REMARK INTER:                 -10.755
REMARK INTRA:                  -0.750
REMARK UNBOUND:                -0.980
REMARK  Name = 
REMARK  6 active torsions:
REMARK  status: ('A' for Active; 'I' for Inactive)
REMARK    1  A    between atoms: C_2  and  C_20
REMARK    2  A    between atoms: N_3  and  C_4
REMARK    3  A    between atoms: C_4  and  C_5
REMARK    4  A    between atoms: C_8  and  C_9
REMARK    5  A    between atoms: C_9  and  N_10
REMARK    6  A    between atoms: C_11  and  C_13
REMARK                            x       y       z     vdW  Elec       q    Type
REMARK                         _______ _______ _______ _____ _____    ______ ____
ROOT
ATOM      1  C   UNL     1      47.375   6.383  13.617  0.00  0.00    +0.000 C 
ENDROOT
BRANCH   1   2
ATOM      2  C   UNL     1      47.825   5.572  14.828  0.00  0.00    +0.000 A 
ATOM      3  N   UNL     1      47.200   4.399  15.061  0.00  0.00    +0.000 NA
ATOM      4  C   UNL     1      47.577   3.723  16.173  0.00  0.00    +0.000 A 
ATOM      5  C   UNL     1      48.518   4.182  17.068  0.00  0.00    +0.000 A 
ATOM      6  C   UNL     1      49.064   5.406  16.756  0.00  0.00    +0.000 A 
ATOM      7  N   UNL     1      48.741   6.113  15.652  0.00  0.00    +0.000 NA
BRANCH   5   8
ATOM      8  C   UNL     1      48.957   3.380  18.252  0.00  0.00    +0.000 C 
BRANCH   8   9
ATOM      9  N   UNL     1      50.385   3.160  18.210  0.00  0.00    +0.000 N 
ATOM     10  C   UNL     1      50.963   2.258  17.338  0.00  0.00    +0.000 C 
ATOM     11  O   UNL     1      50.330   1.622  16.511  0.00  0.00    +0.000 OA
ATOM     12  H   UNL     1      50.942   3.502  18.983  0.00  0.00    +0.000 HD
BRANCH  10  13
ATOM     13  C   UNL     1      52.466   2.119  17.555  0.00  0.00    +0.000 C 
ATOM     14  C   UNL     1      52.892   0.672  17.795  0.00  0.00    +0.000 C 
ATOM     15  C   UNL     1      54.265   0.771  18.451  0.00  0.00    +0.000 C 
ATOM     16  C   UNL     1      54.370   2.192  19.004  0.00  0.00    +0.000 C 
ATOM     17  C   UNL     1      52.994   2.817  18.804  0.00  0.00    +0.000 C 
ENDBRANCH  10  13
ENDBRANCH   8   9
ENDBRANCH   5   8
ENDBRANCH   1   2
BRANCH   1  20
ATOM     18  O   UNL     1      45.734   7.176  11.402  0.00  0.00    +0.000 OA
ATOM     19  C   UNL     1      45.862   5.999  11.706  0.00  0.00    +0.000 C 
ATOM     20  N   UNL     1      46.773   5.516  12.623  0.00  0.00    +0.000 N 
ATOM     21  H   UNL     1      46.659   4.565  12.934  0.00  0.00    +0.000 HD
BRANCH  19  22
ATOM     22  C   UNL     1      44.928   4.960  11.289  0.00  0.00    +0.000 A 
ATOM     23  C   UNL     1      43.912   4.499  12.111  0.00  0.00    +0.000 A 
ATOM     24  S   UNL     1      43.365   2.946  11.623  0.00  0.00    +0.000 S 
ATOM     25  C   UNL     1      44.377   2.959  10.249  0.00  0.00    +0.000 A 
ATOM     26  N   UNL     1      44.539   1.872   9.448  0.00  0.00    +0.000 NA
ATOM     27  C   UNL     1      45.299   2.084   8.422  0.00  0.00    +0.000 A 
ATOM     28  N   UNL     1      45.864   3.292   8.093  0.00  0.00    +0.000 N 
ATOM     29  C   UNL     1      45.714   4.417   8.866  0.00  0.00    +0.000 A 
ATOM     30  O   UNL     1      46.159   5.505   8.520  0.00  0.00    +0.000 OA
ATOM     31  C   UNL     1      44.987   4.183  10.091  0.00  0.00    +0.000 A 
ATOM     32  H   UNL     1      46.372   3.410   7.228  0.00  0.00    +0.000 HD
ENDBRANCH  19  22
ENDBRANCH   1  20
TORSDOF 6
ENDMDL
MODEL 8
REMARK VINA RESULT:    -6.802      3.404      4.653
REMARK INTER + INTRA:         -10.168
REMARK INTER:                  -9.102
REMARK INTRA:                  -1.066
REMARK UNBOUND:                -0.980
REMARK  Name = 
REMARK  6 active torsions:
REMARK  status: ('A' for Active; 'I' for Inactive)
REMARK    1  A    between atoms: C_2  and  C_20
REMARK    2  A    between atoms: N_3  and  C_4
REMARK    3  A    between atoms: C_4  and  C_5
REMARK    4  A    between atoms: C_8  and  C_9
REMARK    5  A    between atoms: C_9  and  N_10
REMARK    6  A    between atoms: C_11  and  C_13
REMARK                            x       y       z     vdW  Elec       q    Type
REMARK                         _______ _______ _______ _____ _____    ______ ____
ROOT
ATOM      1  C   UNL     1      47.489   8.728  13.166  0.00  0.00    +0.000 C 
ENDROOT
BRANCH   1   2
ATOM      2  C   UNL     1      46.460   7.818  12.503  0.00  0.00    +0.000 A 
ATOM      3  N   UNL     1      45.414   8.405  11.884  0.00  0.00    +0.000 NA
ATOM      4  C   UNL     1      44.484   7.578  11.351  0.00  0.00    +0.000 A 
ATOM      5  C   UNL     1      44.538   6.204  11.439  0.00  0.00    +0.000 A 
ATOM      6  C   UNL     1      45.624   5.711  12.125  0.00  0.00    +0.000 A 
ATOM      7  N   UNL     1      46.591   6.488  12.658  0.00  0.00    +0.000 NA
BRANCH   5   8
ATOM      8  C   UNL     1      43.526   5.319  10.783  0.00  0.00    +0.000 C 
BRANCH   8   9
ATOM      9  N   UNL     1      44.095   4.681   9.617  0.00  0.00    +0.000 N 
ATOM     10  C   UNL     1      44.363   3.327   9.580  0.00  0.00    +0.000 C 
ATOM     11  O   UNL     1      44.099   2.563  10.494  0.00  0.00    +0.000 OA
ATOM     12  H   UNL     1      44.511   5.270   8.907  0.00  0.00    +0.000 HD
BRANCH  10  13
ATOM     13  C   UNL     1      45.062   2.905   8.291  0.00  0.00    +0.000 C 
ATOM     14  C   UNL     1      45.936   1.667   8.476  0.00  0.00    +0.000 C 
ATOM     15  C   UNL     1      46.892   1.681   7.288  0.00  0.00    +0.000 C 
ATOM     16  C   UNL     1      46.886   3.113   6.755  0.00  0.00    +0.000 C 
ATOM     17  C   UNL     1      46.062   3.922   7.751  0.00  0.00    +0.000 C 
ENDBRANCH  10  13
ENDBRANCH   8   9
ENDBRANCH   5   8
ENDBRANCH   1   2
BRANCH   1  20
ATOM     18  O   UNL     1      48.908   9.605  15.499  0.00  0.00    +0.000 OA
ATOM     19  C   UNL     1      49.162   8.534  14.969  0.00  0.00    +0.000 C 
ATOM     20  N   UNL     1      48.409   7.949  13.972  0.00  0.00    +0.000 N 
ATOM     21  H   UNL     1      48.814   7.170  13.480  0.00  0.00    +0.000 HD
BRANCH  19  22
ATOM     22  C   UNL     1      50.415   7.818  15.176  0.00  0.00    +0.000 A 
ATOM     23  C   UNL     1      50.607   6.944  16.233  0.00  0.00    +0.000 A 
ATOM     24  S   UNL     1      52.277   6.707  16.558  0.00  0.00    +0.000 S 
ATOM     25  C   UNL     1      52.730   7.651  15.211  0.00  0.00    +0.000 A 
ATOM     26  N   UNL     1      54.021   8.004  14.965  0.00  0.00    +0.000 NA
ATOM     27  C   UNL     1      54.183   8.672  13.869  0.00  0.00    +0.000 A 
ATOM     28  N   UNL     1      53.187   8.970  12.970  0.00  0.00    +0.000 N 
ATOM     29  C   UNL     1      51.874   8.619  13.172  0.00  0.00    +0.000 A 
ATOM     30  O   UNL     1      51.011   8.824  12.327  0.00  0.00    +0.000 OA
ATOM     31  C   UNL     1      51.635   7.995  14.452  0.00  0.00    +0.000 A 
ATOM     32  H   UNL     1      53.398   9.415  12.089  0.00  0.00    +0.000 HD
ENDBRANCH  19  22
ENDBRANCH   1  20
TORSDOF 6
ENDMDL
MODEL 9
REMARK VINA RESULT:    -6.478      5.751      7.882
REMARK INTER + INTRA:          -9.731
REMARK INTER:                  -8.916
REMARK INTRA:                  -0.815
REMARK UNBOUND:                -0.980
REMARK  Name = 
REMARK  6 active torsions:
REMARK  status: ('A' for Active; 'I' for Inactive)
REMARK    1  A    between atoms: C_2  and  C_20
REMARK    2  A    between atoms: N_3  and  C_4
REMARK    3  A    between atoms: C_4  and  C_5
REMARK    4  A    between atoms: C_8  and  C_9
REMARK    5  A    between atoms: C_9  and  N_10
REMARK    6  A    between atoms: C_11  and  C_13
REMARK                            x       y       z     vdW  Elec       q    Type
REMARK                         _______ _______ _______ _____ _____    ______ ____
ROOT
ATOM      1  C   UNL     1      50.580   8.430  12.553  0.00  0.00    +0.000 C 
ENDROOT
BRANCH   1   2
ATOM      2  C   UNL     1      49.174   7.841  12.595  0.00  0.00    +0.000 A 
ATOM      3  N   UNL     1      48.137   8.704  12.658  0.00  0.00    +0.000 NA
ATOM      4  C   UNL     1      46.901   8.158  12.750  0.00  0.00    +0.000 A 
ATOM      5  C   UNL     1      46.663   6.803  12.816  0.00  0.00    +0.000 A 
ATOM      6  C   UNL     1      47.791   6.015  12.785  0.00  0.00    +0.000 A 
ATOM      7  N   UNL     1      49.045   6.504  12.672  0.00  0.00    +0.000 NA
BRANCH   5   8
ATOM      8  C   UNL     1      45.280   6.233  12.854  0.00  0.00    +0.000 C 
BRANCH   8   9
ATOM      9  N   UNL     1      45.073   5.339  11.737  0.00  0.00    +0.000 N 
ATOM     10  C   UNL     1      43.898   5.333  11.011  0.00  0.00    +0.000 C 
ATOM     11  O   UNL     1      42.975   6.104  11.218  0.00  0.00    +0.000 OA
ATOM     12  H   UNL     1      45.705   4.556  11.631  0.00  0.00    +0.000 HD
BRANCH  10  13
ATOM     13  C   UNL     1      43.870   4.233   9.956  0.00  0.00    +0.000 C 
ATOM     14  C   UNL     1      44.227   2.863  10.528  0.00  0.00    +0.000 C 
ATOM     15  C   UNL     1      44.618   2.022   9.317  0.00  0.00    +0.000 C 
ATOM     16  C   UNL     1      44.947   3.012   8.200  0.00  0.00    +0.000 C 
ATOM     17  C   UNL     1      44.904   4.393   8.845  0.00  0.00    +0.000 C 
ENDBRANCH  10  13
ENDBRANCH   8   9
ENDBRANCH   5   8
ENDBRANCH   1   2
BRANCH   1  20
ATOM     18  O   UNL     1      53.427   8.377  12.209  0.00  0.00    +0.000 OA
ATOM     19  C   UNL     1      52.673   8.102  11.288  0.00  0.00    +0.000 C 
ATOM     20  N   UNL     1      51.312   7.914  11.413  0.00  0.00    +0.000 N 
ATOM     21  H   UNL     1      50.767   7.883  10.566  0.00  0.00    +0.000 HD
BRANCH  19  22
ATOM     22  C   UNL     1      53.078   8.132   9.887  0.00  0.00    +0.000 A 
ATOM     23  C   UNL     1      53.049   9.291   9.129  0.00  0.00    +0.000 A 
ATOM     24  S   UNL     1      53.011   8.942   7.448  0.00  0.00    +0.000 S 
ATOM     25  C   UNL     1      53.174   7.268   7.735  0.00  0.00    +0.000 A 
ATOM     26  N   UNL     1      53.063   6.341   6.746  0.00  0.00    +0.000 NA
ATOM     27  C   UNL     1      53.273   5.126   7.139  0.00  0.00    +0.000 A 
ATOM     28  N   UNL     1      53.636   4.758   8.412  0.00  0.00    +0.000 N 
ATOM     29  C   UNL     1      53.774   5.663   9.436  0.00  0.00    +0.000 A 
ATOM     30  O   UNL     1      54.173   5.330  10.545  0.00  0.00    +0.000 OA
ATOM     31  C   UNL     1      53.412   7.011   9.066  0.00  0.00    +0.000 A 
ATOM     32  H   UNL     1      53.874   3.801   8.629  0.00  0.00    +0.000 HD
ENDBRANCH  19  22
ENDBRANCH   1  20
TORSDOF 6
ENDMDL
