MODEL 1
REMARK VINA RESULT:    -7.174      0.000      0.000
REMARK INTER + INTRA:          -9.006
REMARK INTER:                  -8.433
REMARK INTRA:                  -0.573
REMARK UNBOUND:                -0.573
REMARK  Name = 
REMARK  4 active torsions:
REMARK  status: ('A' for Active; 'I' for Inactive)
REMARK    1  A    between atoms: C_1  and  O_2
REMARK    2  A    between atoms: O_2  and  C_3
REMARK    3  A    between atoms: C_6  and  C_7
REMARK    4  A    between atoms: C_7  and  N_8
REMARK                            x       y       z     vdW  Elec       q    Type
REMARK                         _______ _______ _______ _____ _____    ______ ____
ROOT
ATOM      1  C   UNL     1      43.840   4.319   9.595  0.00  0.00    +0.000 C 
ENDROOT
BRANCH   1   2
ATOM      2  N   UNL     1      44.132   4.451  11.018  0.00  0.00    +0.000 N 
ATOM      3  C   UNL     1      43.508   3.721  12.005  0.00  0.00    +0.000 A 
ATOM      4  C   UNL     1      44.159   3.967  13.194  0.00  0.00    +0.000 A 
ATOM      5  C   UNL     1      45.207   4.875  12.925  0.00  0.00    +0.000 A 
ATOM      6  N   UNL     1      46.128   5.381  13.781  0.00  0.00    +0.000 NA
ATOM      7  C   UNL     1      47.015   6.229  13.221  0.00  0.00    +0.000 A 
ATOM      8  C   UNL     1      47.034   6.613  11.889  0.00  0.00    +0.000 A 
ATOM      9  C   UNL     1      46.085   6.087  11.014  0.00  0.00    +0.000 A 
ATOM     10  C   UNL     1      45.165   5.188  11.564  0.00  0.00    +0.000 A 
ENDBRANCH   1   2
BRANCH   1  14
ATOM     11  C   UNL     1      46.829   2.057   7.435  0.00  0.00    +0.000 A 
ATOM     12  C   UNL     1      46.020   1.429   8.381  0.00  0.00    +0.000 A 
ATOM     13  C   UNL     1      45.059   2.163   9.086  0.00  0.00    +0.000 A 
ATOM     14  C   UNL     1      44.891   3.535   8.855  0.00  0.00    +0.000 A 
ATOM     15  C   UNL     1      45.712   4.160   7.906  0.00  0.00    +0.000 A 
ATOM     16  C   UNL     1      46.668   3.423   7.203  0.00  0.00    +0.000 A 
BRANCH  11  18
ATOM     17  C   UNL     1      48.240   2.159   5.526  0.00  0.00    +0.000 C 
ATOM     18  O   UNL     1      47.797   1.455   6.679  0.00  0.00    +0.000 OA
ENDBRANCH  11  18
ENDBRANCH   1  14
TORSDOF 3
ENDMDL
MODEL 2
REMARK VINA RESULT:    -6.969      1.184      1.513
REMARK INTER + INTRA:          -8.764
REMARK INTER:                  -8.183
REMARK INTRA:                  -0.581
REMARK UNBOUND:                -0.573
REMARK  Name = 
REMARK  4 active torsions:
REMARK  status: ('A' for Active; 'I' for Inactive)
REMARK    1  A    between atoms: C_1  and  O_2
REMARK    2  A    between atoms: O_2  and  C_3
REMARK    3  A    between atoms: C_6  and  C_7
REMARK    4  A    between atoms: C_7  and  N_8
REMARK                            x       y       z     vdW  Elec       q    Type
REMARK                         _______ _______ _______ _____ _____    ______ ____
ROOT
ATOM      1  C   UNL     1      44.563   5.119  10.739  0.00  0.00    +0.000 C 
ENDROOT
BRANCH   1   2
ATOM      2  N   UNL     1      45.370   5.178  11.952  0.00  0.00    +0.000 N 
ATOM      3  C   UNL     1      45.193   4.349  13.038  0.00  0.00    +0.000 A 
ATOM      4  C   UNL     1      46.238   4.558  13.910  0.00  0.00    +0.000 A 
ATOM      5  C   UNL     1      47.075   5.544  13.342  0.00  0.00    +0.000 A 
ATOM      6  N   UNL     1      48.236   6.050  13.826  0.00  0.00    +0.000 NA
ATOM      7  C   UNL     1      48.814   6.985  13.046  0.00  0.00    +0.000 A 
ATOM      8  C   UNL     1      48.312   7.454  11.841  0.00  0.00    +0.000 A 
ATOM      9  C   UNL     1      47.120   6.928  11.349  0.00  0.00    +0.000 A 
ATOM     10  C   UNL     1      46.508   5.941  12.128  0.00  0.00    +0.000 A 
ENDBRANCH   1   2
BRANCH   1  14
ATOM     11  C   UNL     1      46.170   2.448   7.738  0.00  0.00    +0.000 A 
ATOM     12  C   UNL     1      45.460   1.939   8.825  0.00  0.00    +0.000 A 
ATOM     13  C   UNL     1      44.949   2.803   9.800  0.00  0.00    +0.000 A 
ATOM     14  C   UNL     1      45.136   4.188   9.703  0.00  0.00    +0.000 A 
ATOM     15  C   UNL     1      45.854   4.692   8.610  0.00  0.00    +0.000 A 
ATOM     16  C   UNL     1      46.362   3.827   7.637  0.00  0.00    +0.000 A 
BRANCH  11  18
ATOM     17  C   UNL     1      47.908   2.220   6.134  0.00  0.00    +0.000 C 
ATOM     18  O   UNL     1      46.715   1.716   6.719  0.00  0.00    +0.000 OA
ENDBRANCH  11  18
ENDBRANCH   1  14
TORSDOF 3
ENDMDL
MODEL 3
REMARK VINA RESULT:    -6.843      1.128      2.084
REMARK INTER + INTRA:          -8.615
REMARK INTER:                  -8.068
REMARK INTRA:                  -0.547
REMARK UNBOUND:                -0.573
REMARK  Name = 
REMARK  4 active torsions:
REMARK  status: ('A' for Active; 'I' for Inactive)
REMARK    1  A    between atoms: C_1  and  O_2
REMARK    2  A    between atoms: O_2  and  C_3
REMARK    3  A    between atoms: C_6  and  C_7
REMARK    4  A    between atoms: C_7  and  N_8
REMARK                            x       y       z     vdW  Elec       q    Type
REMARK                         _______ _______ _______ _____ _____    ______ ____
ROOT
ATOM      1  C   UNL     1      43.972   4.458  10.343  0.00  0.00    +0.000 C 
ENDROOT
BRANCH   1   2
ATOM      2  N   UNL     1      44.748   5.321  11.225  0.00  0.00    +0.000 N 
ATOM      3  C   UNL     1      44.635   6.693  11.257  0.00  0.00    +0.000 A 
ATOM      4  C   UNL     1      45.371   7.158  12.325  0.00  0.00    +0.000 A 
ATOM      5  C   UNL     1      45.951   6.038  12.959  0.00  0.00    +0.000 A 
ATOM      6  N   UNL     1      46.732   6.004  14.067  0.00  0.00    +0.000 NA
ATOM      7  C   UNL     1      47.134   4.772  14.439  0.00  0.00    +0.000 A 
ATOM      8  C   UNL     1      46.826   3.590  13.781  0.00  0.00    +0.000 A 
ATOM      9  C   UNL     1      46.022   3.632  12.645  0.00  0.00    +0.000 A 
ATOM     10  C   UNL     1      45.573   4.897  12.248  0.00  0.00    +0.000 A 
ENDBRANCH   1   2
BRANCH   1  14
ATOM     11  C   UNL     1      46.471   2.311   7.538  0.00  0.00    +0.000 A 
ATOM     12  C   UNL     1      46.429   3.704   7.519  0.00  0.00    +0.000 A 
ATOM     13  C   UNL     1      45.613   4.397   8.420  0.00  0.00    +0.000 A 
ATOM     14  C   UNL     1      44.830   3.710   9.356  0.00  0.00    +0.000 A 
ATOM     15  C   UNL     1      44.873   2.309   9.366  0.00  0.00    +0.000 A 
ATOM     16  C   UNL     1      45.691   1.620   8.466  0.00  0.00    +0.000 A 
BRANCH  11  18
ATOM     17  C   UNL     1      47.958   2.171   5.690  0.00  0.00    +0.000 C 
ATOM     18  O   UNL     1      47.226   1.517   6.718  0.00  0.00    +0.000 OA
ENDBRANCH  11  18
ENDBRANCH   1  14
TORSDOF 3
ENDMDL
MODEL 4
REMARK VINA RESULT:    -6.805      1.236      1.805
REMARK INTER + INTRA:          -8.571
REMARK INTER:                  -8.037
REMARK INTRA:                  -0.535
REMARK UNBOUND:                -0.573
REMARK  Name = 
REMARK  4 active torsions:
REMARK  status: ('A' for Active; 'I' for Inactive)
REMARK    1  A    between atoms: C_1  and  O_2
REMARK    2  A    between atoms: O_2  and  C_3
REMARK    3  A    between atoms: C_6  and  C_7
REMARK    4  A    between atoms: C_7  and  N_8
REMARK                            x       y       z     vdW  Elec       q    Type
REMARK                         _______ _______ _______ _____ _____    ______ ____
ROOT
ATOM      1  C   UNL     1      43.921   4.173  10.696  0.00  0.00    +0.000 C 
ENDROOT
BRANCH   1   2
ATOM      2  N   UNL     1      44.738   4.685  11.791  0.00  0.00    +0.000 N 
ATOM      3  C   UNL     1      45.416   3.888  12.686  0.00  0.00    +0.000 A 
ATOM      4  C   UNL     1      46.222   4.699  13.454  0.00  0.00    +0.000 A 
ATOM      5  C   UNL     1      46.028   6.027  13.017  0.00  0.00    +0.000 A 
ATOM      6  N   UNL     1      46.629   7.159  13.460  0.00  0.00    +0.000 NA
ATOM      7  C   UNL     1      46.236   8.289  12.836  0.00  0.00    +0.000 A 
ATOM      8  C   UNL     1      45.288   8.365  11.827  0.00  0.00    +0.000 A 
ATOM      9  C   UNL     1      44.676   7.198  11.376  0.00  0.00    +0.000 A 
ATOM     10  C   UNL     1      45.079   6.008  11.992  0.00  0.00    +0.000 A 
ENDBRANCH   1   2
BRANCH   1  14
ATOM     11  C   UNL     1      46.319   2.399   7.562  0.00  0.00    +0.000 A 
ATOM     12  C   UNL     1      46.181   3.784   7.643  0.00  0.00    +0.000 A 
ATOM     13  C   UNL     1      45.398   4.357   8.651  0.00  0.00    +0.000 A 
ATOM     14  C   UNL     1      44.743   3.555   9.596  0.00  0.00    +0.000 A 
ATOM     15  C   UNL     1      44.883   2.163   9.505  0.00  0.00    +0.000 A 
ATOM     16  C   UNL     1      45.668   1.595   8.498  0.00  0.00    +0.000 A 
BRANCH  11  18
ATOM     17  C   UNL     1      47.636   2.485   5.586  0.00  0.00    +0.000 C 
ATOM     18  O   UNL     1      47.056   1.718   6.632  0.00  0.00    +0.000 OA
ENDBRANCH  11  18
ENDBRANCH   1  14
TORSDOF 3
ENDMDL
MODEL 5
REMARK VINA RESULT:    -6.027      1.562      2.487
REMARK INTER + INTRA:          -7.657
REMARK INTER:                  -7.102
REMARK INTRA:                  -0.555
REMARK UNBOUND:                -0.573
REMARK  Name = 
REMARK  4 active torsions:
REMARK  status: ('A' for Active; 'I' for Inactive)
REMARK    1  A    between atoms: C_1  and  O_2
REMARK    2  A    between atoms: O_2  and  C_3
REMARK    3  A    between atoms: C_6  and  C_7
REMARK    4  A    between atoms: C_7  and  N_8
REMARK                            x       y       z     vdW  Elec       q    Type
REMARK                         _______ _______ _______ _____ _____    ______ ____
ROOT
ATOM      1  C   UNL     1      44.381   5.417  11.114  0.00  0.00    +0.000 C 
ENDROOT
BRANCH   1   2
ATOM      2  N   UNL     1      45.441   6.114  11.834  0.00  0.00    +0.000 N 
ATOM      3  C   UNL     1      45.749   7.444  11.654  0.00  0.00    +0.000 A 
ATOM      4  C   UNL     1      46.662   7.805  12.621  0.00  0.00    +0.000 A 
ATOM      5  C   UNL     1      46.919   6.662  13.409  0.00  0.00    +0.000 A 
ATOM      6  N   UNL     1      47.727   6.546  14.492  0.00  0.00    +0.000 NA
ATOM      7  C   UNL     1      47.762   5.316  15.043  0.00  0.00    +0.000 A 
ATOM      8  C   UNL     1      47.068   4.207  14.584  0.00  0.00    +0.000 A 
ATOM      9  C   UNL     1      46.238   4.333  13.472  0.00  0.00    +0.000 A 
ATOM     10  C   UNL     1      46.167   5.605  12.893  0.00  0.00    +0.000 A 
ENDBRANCH   1   2
BRANCH   1  14
ATOM     11  C   UNL     1      45.868   2.685   8.106  0.00  0.00    +0.000 A 
ATOM     12  C   UNL     1      45.172   2.201   9.213  0.00  0.00    +0.000 A 
ATOM     13  C   UNL     1      44.700   3.084  10.190  0.00  0.00    +0.000 A 
ATOM     14  C   UNL     1      44.912   4.464  10.075  0.00  0.00    +0.000 A 
ATOM     15  C   UNL     1      45.617   4.943   8.961  0.00  0.00    +0.000 A 
ATOM     16  C   UNL     1      46.085   4.058   7.987  0.00  0.00    +0.000 A 
BRANCH  11  18
ATOM     17  C   UNL     1      46.926   0.668   7.429  0.00  0.00    +0.000 C 
ATOM     18  O   UNL     1      46.375   1.932   7.082  0.00  0.00    +0.000 OA
ENDBRANCH  11  18
ENDBRANCH   1  14
TORSDOF 3
ENDMDL
MODEL 6
REMARK VINA RESULT:    -6.018      2.893      6.000
REMARK INTER + INTRA:          -7.647
REMARK INTER:                  -7.261
REMARK INTRA:                  -0.386
REMARK UNBOUND:                -0.573
REMARK  Name = 
REMARK  4 active torsions:
REMARK  status: ('A' for Active; 'I' for Inactive)
REMARK    1  A    between atoms: C_1  and  O_2
REMARK    2  A    between atoms: O_2  and  C_3
REMARK    3  A    between atoms: C_6  and  C_7
REMARK    4  A    between atoms: C_7  and  N_8
REMARK                            x       y       z     vdW  Elec       q    Type
REMARK                         _______ _______ _______ _____ _____    ______ ____
ROOT
ATOM      1  C   UNL     1      44.076   6.278  11.766  0.00  0.00    +0.000 C 
ENDROOT
BRANCH   1   2
ATOM      2  N   UNL     1      44.074   4.862  11.418  0.00  0.00    +0.000 N 
ATOM      3  C   UNL     1      43.381   3.897  12.114  0.00  0.00    +0.000 A 
ATOM      4  C   UNL     1      43.454   2.720  11.401  0.00  0.00    +0.000 A 
ATOM      5  C   UNL     1      44.216   2.975  10.240  0.00  0.00    +0.000 A 
ATOM      6  N   UNL     1      44.528   2.125   9.230  0.00  0.00    +0.000 NA
ATOM      7  C   UNL     1      45.272   2.667   8.244  0.00  0.00    +0.000 A 
ATOM      8  C   UNL     1      45.732   3.975   8.207  0.00  0.00    +0.000 A 
ATOM      9  C   UNL     1      45.406   4.842   9.246  0.00  0.00    +0.000 A 
ATOM     10  C   UNL     1      44.617   4.312  10.273  0.00  0.00    +0.000 A 
ENDBRANCH   1   2
BRANCH   1  14
ATOM     11  C   UNL     1      47.711   7.511  13.764  0.00  0.00    +0.000 A 
ATOM     12  C   UNL     1      46.774   8.461  13.359  0.00  0.00    +0.000 A 
ATOM     13  C   UNL     1      45.603   8.062  12.704  0.00  0.00    +0.000 A 
ATOM     14  C   UNL     1      45.348   6.708  12.448  0.00  0.00    +0.000 A 
ATOM     15  C   UNL     1      46.297   5.760  12.853  0.00  0.00    +0.000 A 
ATOM     16  C   UNL     1      47.464   6.161  13.508  0.00  0.00    +0.000 A 
BRANCH  11  18
ATOM     17  C   UNL     1      49.176   6.972  15.555  0.00  0.00    +0.000 C 
ATOM     18  O   UNL     1      48.887   7.767  14.413  0.00  0.00    +0.000 OA
ENDBRANCH  11  18
ENDBRANCH   1  14
TORSDOF 3
ENDMDL
MODEL 7
REMARK VINA RESULT:    -5.845      2.955      6.169
REMARK INTER + INTRA:          -7.443
REMARK INTER:                  -6.942
REMARK INTRA:                  -0.501
REMARK UNBOUND:                -0.573
REMARK  Name = 
REMARK  4 active torsions:
REMARK  status: ('A' for Active; 'I' for Inactive)
REMARK    1  A    between atoms: C_1  and  O_2
REMARK    2  A    between atoms: O_2  and  C_3
REMARK    3  A    between atoms: C_6  and  C_7
REMARK    4  A    between atoms: C_7  and  N_8
REMARK                            x       y       z     vdW  Elec       q    Type
REMARK                         _______ _______ _______ _____ _____    ______ ____
ROOT
ATOM      1  C   UNL     1      44.281   3.416  10.212  0.00  0.00    +0.000 C 
ENDROOT
BRANCH   1   2
ATOM      2  N   UNL     1      45.149   3.553   9.048  0.00  0.00    +0.000 N 
ATOM      3  C   UNL     1      45.572   4.762   8.540  0.00  0.00    +0.000 A 
ATOM      4  C   UNL     1      46.517   4.509   7.569  0.00  0.00    +0.000 A 
ATOM      5  C   UNL     1      46.672   3.109   7.482  0.00  0.00    +0.000 A 
ATOM      6  N   UNL     1      47.510   2.398   6.687  0.00  0.00    +0.000 NA
ATOM      7  C   UNL     1      47.432   1.060   6.836  0.00  0.00    +0.000 A 
ATOM      8  C   UNL     1      46.576   0.393   7.699  0.00  0.00    +0.000 A 
ATOM      9  C   UNL     1      45.719   1.129   8.514  0.00  0.00    +0.000 A 
ATOM     10  C   UNL     1      45.793   2.521   8.395  0.00  0.00    +0.000 A 
ENDBRANCH   1   2
BRANCH   1  14
ATOM     11  C   UNL     1      46.243   4.651  13.865  0.00  0.00    +0.000 A 
ATOM     12  C   UNL     1      46.458   3.374  13.349  0.00  0.00    +0.000 A 
ATOM     13  C   UNL     1      45.815   2.971  12.173  0.00  0.00    +0.000 A 
ATOM     14  C   UNL     1      44.952   3.840  11.492  0.00  0.00    +0.000 A 
ATOM     15  C   UNL     1      44.738   5.121  12.020  0.00  0.00    +0.000 A 
ATOM     16  C   UNL     1      45.382   5.519  13.194  0.00  0.00    +0.000 A 
BRANCH  11  18
ATOM     17  C   UNL     1      47.230   4.234  15.986  0.00  0.00    +0.000 C 
ATOM     18  O   UNL     1      46.811   5.166  14.998  0.00  0.00    +0.000 OA
ENDBRANCH  11  18
ENDBRANCH   1  14
TORSDOF 3
ENDMDL
MODEL 8
REMARK VINA RESULT:    -5.580      2.697      5.798
REMARK INTER + INTRA:          -7.131
REMARK INTER:                  -6.565
REMARK INTRA:                  -0.566
REMARK UNBOUND:                -0.573
REMARK  Name = 
REMARK  4 active torsions:
REMARK  status: ('A' for Active; 'I' for Inactive)
REMARK    1  A    between atoms: C_1  and  O_2
REMARK    2  A    between atoms: O_2  and  C_3
REMARK    3  A    between atoms: C_6  and  C_7
REMARK    4  A    between atoms: C_7  and  N_8
REMARK                            x       y       z     vdW  Elec       q    Type
REMARK                         _______ _______ _______ _____ _____    ______ ____
ROOT
ATOM      1  C   UNL     1      44.205   4.799  10.238  0.00  0.00    +0.000 C 
ENDROOT
BRANCH   1   2
ATOM      2  N   UNL     1      44.716   3.565   9.652  0.00  0.00    +0.000 N 
ATOM      3  C   UNL     1      44.238   2.310   9.957  0.00  0.00    +0.000 A 
ATOM      4  C   UNL     1      44.815   1.411   9.089  0.00  0.00    +0.000 A 
ATOM      5  C   UNL     1      45.671   2.137   8.232  0.00  0.00    +0.000 A 
ATOM      6  N   UNL     1      46.426   1.678   7.203  0.00  0.00    +0.000 NA
ATOM      7  C   UNL     1      47.142   2.623   6.561  0.00  0.00    +0.000 A 
ATOM      8  C   UNL     1      47.167   3.972   6.881  0.00  0.00    +0.000 A 
ATOM      9  C   UNL     1      46.388   4.437   7.938  0.00  0.00    +0.000 A 
ATOM     10  C   UNL     1      45.619   3.480   8.610  0.00  0.00    +0.000 A 
ENDBRANCH   1   2
BRANCH   1  14
ATOM     11  C   UNL     1      46.878   6.412  13.234  0.00  0.00    +0.000 A 
ATOM     12  C   UNL     1      46.095   5.294  13.519  0.00  0.00    +0.000 A 
ATOM     13  C   UNL     1      45.224   4.779  12.553  0.00  0.00    +0.000 A 
ATOM     14  C   UNL     1      45.124   5.370  11.286  0.00  0.00    +0.000 A 
ATOM     15  C   UNL     1      45.911   6.497  11.009  0.00  0.00    +0.000 A 
ATOM     16  C   UNL     1      46.780   7.007  11.976  0.00  0.00    +0.000 A 
BRANCH  11  18
ATOM     17  C   UNL     1      47.854   8.426  14.033  0.00  0.00    +0.000 C 
ATOM     18  O   UNL     1      47.768   7.008  14.085  0.00  0.00    +0.000 OA
ENDBRANCH  11  18
ENDBRANCH   1  14
TORSDOF 3
ENDMDL
MODEL 9
REMARK VINA RESULT:    -5.343      2.485      4.191
REMARK INTER + INTRA:          -6.853
REMARK INTER:                  -6.489
REMARK INTRA:                  -0.364
REMARK UNBOUND:                -0.573
REMARK  Name = 
REMARK  4 active torsions:
REMARK  status: ('A' for Active; 'I' for Inactive)
REMARK    1  A    between atoms: C_1  and  O_2
REMARK    2  A    between atoms: O_2  and  C_3
REMARK    3  A    between atoms: C_6  and  C_7
REMARK    4  A    between atoms: C_7  and  N_8
REMARK                            x       y       z     vdW  Elec       q    Type
REMARK                         _______ _______ _______ _____ _____    ______ ____
ROOT
ATOM      1  C   UNL     1      45.581   6.165  13.029  0.00  0.00    +0.000 C 
ENDROOT
BRANCH   1   2
ATOM      2  N   UNL     1      46.071   7.458  12.563  0.00  0.00    +0.000 N 
ATOM      3  C   UNL     1      45.291   8.589  12.467  0.00  0.00    +0.000 A 
ATOM      4  C   UNL     1      46.116   9.653  12.176  0.00  0.00    +0.000 A 
ATOM      5  C   UNL     1      47.435   9.156  12.090  0.00  0.00    +0.000 A 
ATOM      6  N   UNL     1      48.582   9.838  11.852  0.00  0.00    +0.000 NA
ATOM      7  C   UNL     1      49.698   9.081  11.836  0.00  0.00    +0.000 A 
ATOM      8  C   UNL     1      49.744   7.708  12.022  0.00  0.00    +0.000 A 
ATOM      9  C   UNL     1      48.562   7.014  12.268  0.00  0.00    +0.000 A 
ATOM     10  C   UNL     1      47.391   7.777  12.311  0.00  0.00    +0.000 A 
ENDBRANCH   1   2
BRANCH   1  14
ATOM     11  C   UNL     1      44.903   3.371   9.795  0.00  0.00    +0.000 A 
ATOM     12  C   UNL     1      45.284   4.685   9.522  0.00  0.00    +0.000 A 
ATOM     13  C   UNL     1      45.493   5.590  10.568  0.00  0.00    +0.000 A 
ATOM     14  C   UNL     1      45.330   5.197  11.903  0.00  0.00    +0.000 A 
ATOM     15  C   UNL     1      44.942   3.876  12.169  0.00  0.00    +0.000 A 
ATOM     16  C   UNL     1      44.735   2.975  11.122  0.00  0.00    +0.000 A 
BRANCH  11  18
ATOM     17  C   UNL     1      45.795   1.628   8.450  0.00  0.00    +0.000 C 
ATOM     18  O   UNL     1      44.672   2.392   8.869  0.00  0.00    +0.000 OA
ENDBRANCH  11  18
ENDBRANCH   1  14
TORSDOF 3
ENDMDL
