MODEL 1
REMARK VINA RESULT:    -9.113      0.000      0.000
REMARK INTER + INTRA:         -12.636
REMARK INTER:                 -11.777
REMARK INTRA:                  -0.859
REMARK UNBOUND:                -0.859
REMARK  Name = 
REMARK  5 active torsions:
REMARK  status: ('A' for Active; 'I' for Inactive)
REMARK    1  A    between atoms: C_2  and  C_4
REMARK    2  A    between atoms: N_8  and  C_9
REMARK    3  A    between atoms: C_9  and  C_10
REMARK    4  A    between atoms: C_10  and  C_11
REMARK    5  A    between atoms: C_15  and  C_16
REMARK                            x       y       z     vdW  Elec       q    Type
REMARK                         _______ _______ _______ _____ _____    ______ ____
ROOT
ATOM      1  C   UNL     1      43.344   4.509  11.184  0.00  0.00    +0.000 C 
ENDROOT
BRANCH   1   6
ATOM      2  C   UNL     1      46.479   2.489   7.732  0.00  0.00    +0.000 A 
ATOM      3  C   UNL     1      45.660   1.857   8.662  0.00  0.00    +0.000 A 
ATOM      4  C   UNL     1      44.744   2.618   9.389  0.00  0.00    +0.000 A 
ATOM      5  C   UNL     1      44.675   3.995   9.193  0.00  0.00    +0.000 A 
ATOM      6  N   UNL     1      43.732   4.801   9.812  0.00  0.00    +0.000 N 
ATOM      7  N   UNL     1      45.488   4.622   8.321  0.00  0.00    +0.000 NA
ATOM      8  C   UNL     1      46.373   3.867   7.615  0.00  0.00    +0.000 A 
ATOM      9  H   UNL     1      43.996   5.764   9.613  0.00  0.00    +0.000 HD
BRANCH   2  11
ATOM     10  N   UNL     1      48.547   2.434   6.464  0.00  0.00    +0.000 N 
ATOM     11  C   UNL     1      47.432   1.756   6.876  0.00  0.00    +0.000 C 
ATOM     12  O   UNL     1      47.255   0.583   6.577  0.00  0.00    +0.000 OA
ATOM     13  H   UNL     1      49.247   1.891   5.973  0.00  0.00    +0.000 HD
ATOM     14  H   UNL     1      48.845   3.300   6.888  0.00  0.00    +0.000 HD
ENDBRANCH   2  11
ENDBRANCH   1   6
BRANCH   1  15
ATOM     15  C   UNL     1      43.572   5.731  12.083  0.00  0.00    +0.000 C 
BRANCH  15  16
ATOM     16  C   UNL     1      45.011   5.828  12.517  0.00  0.00    +0.000 A 
ATOM     17  C   UNL     1      45.545   4.918  13.422  0.00  0.00    +0.000 A 
ATOM     18  N   UNL     1      46.836   4.908  13.813  0.00  0.00    +0.000 NA
ATOM     19  C   UNL     1      47.644   5.841  13.263  0.00  0.00    +0.000 A 
ATOM     20  C   UNL     1      47.231   6.793  12.333  0.00  0.00    +0.000 A 
ATOM     21  C   UNL     1      45.877   6.784  11.974  0.00  0.00    +0.000 A 
BRANCH  20  22
ATOM     22  C   UNL     1      48.245   7.722  11.701  0.00  0.00    +0.000 C 
ATOM     23  C   UNL     1      49.696   7.411  12.102  0.00  0.00    +0.000 C 
ATOM     24  C   UNL     1      50.668   8.358  11.394  0.00  0.00    +0.000 C 
ATOM     25  C   UNL     1      50.323   9.824  11.645  0.00  0.00    +0.000 C 
ATOM     26  C   UNL     1      48.872  10.138  11.294  0.00  0.00    +0.000 C 
ATOM     27  C   UNL     1      47.906   9.192  12.002  0.00  0.00    +0.000 C 
ENDBRANCH  20  22
ENDBRANCH  15  16
ENDBRANCH   1  15
TORSDOF 5
ENDMDL
MODEL 2
REMARK VINA RESULT:    -8.707      2.001      3.636
REMARK INTER + INTRA:         -12.111
REMARK INTER:                 -11.370
REMARK INTRA:                  -0.741
REMARK UNBOUND:                -0.859
REMARK  Name = 
REMARK  5 active torsions:
REMARK  status: ('A' for Active; 'I' for Inactive)
REMARK    1  A    between atoms: C_2  and  C_4
REMARK    2  A    between atoms: N_8  and  C_9
REMARK    3  A    between atoms: C_9  and  C_10
REMARK    4  A    between atoms: C_10  and  C_11
REMARK    5  A    between atoms: C_15  and  C_16
REMARK                            x       y       z     vdW  Elec       q    Type
REMARK                         _______ _______ _______ _____ _____    ______ ____
ROOT
ATOM      1  C   UNL     1      43.355   4.642  11.057  0.00  0.00    +0.000 C 
ENDROOT
BRANCH   1   6
ATOM      2  C   UNL     1      46.415   2.328   7.725  0.00  0.00    +0.000 A 
ATOM      3  C   UNL     1      45.605   1.779   8.713  0.00  0.00    +0.000 A 
ATOM      4  C   UNL     1      44.708   2.604   9.392  0.00  0.00    +0.000 A 
ATOM      5  C   UNL     1      44.649   3.962   9.092  0.00  0.00    +0.000 A 
ATOM      6  N   UNL     1      43.724   4.823   9.661  0.00  0.00    +0.000 N 
ATOM      7  N   UNL     1      45.454   4.511   8.162  0.00  0.00    +0.000 NA
ATOM      8  C   UNL     1      46.320   3.694   7.503  0.00  0.00    +0.000 A 
ATOM      9  H   UNL     1      43.994   5.766   9.384  0.00  0.00    +0.000 HD
BRANCH   2  11
ATOM     10  N   UNL     1      48.527   2.111   6.550  0.00  0.00    +0.000 N 
ATOM     11  C   UNL     1      47.347   1.521   6.913  0.00  0.00    +0.000 C 
ATOM     12  O   UNL     1      47.096   0.363   6.609  0.00  0.00    +0.000 OA
ATOM     13  H   UNL     1      49.205   1.515   6.091  0.00  0.00    +0.000 HD
ATOM     14  H   UNL     1      48.870   2.955   6.984  0.00  0.00    +0.000 HD
ENDBRANCH   2  11
ENDBRANCH   1   6
BRANCH   1  15
ATOM     15  C   UNL     1      43.698   5.894  11.874  0.00  0.00    +0.000 C 
BRANCH  15  16
ATOM     16  C   UNL     1      45.130   5.865  12.341  0.00  0.00    +0.000 A 
ATOM     17  C   UNL     1      46.130   6.499  11.613  0.00  0.00    +0.000 A 
ATOM     18  N   UNL     1      47.422   6.563  11.998  0.00  0.00    +0.000 NA
ATOM     19  C   UNL     1      47.733   5.980  13.176  0.00  0.00    +0.000 A 
ATOM     20  C   UNL     1      46.817   5.332  14.002  0.00  0.00    +0.000 A 
ATOM     21  C   UNL     1      45.493   5.266  13.554  0.00  0.00    +0.000 A 
BRANCH  20  22
ATOM     22  C   UNL     1      47.257   4.809  15.353  0.00  0.00    +0.000 C 
ATOM     23  C   UNL     1      48.380   5.636  15.996  0.00  0.00    +0.000 C 
ATOM     24  C   UNL     1      48.743   5.078  17.375  0.00  0.00    +0.000 C 
ATOM     25  C   UNL     1      49.109   3.596  17.313  0.00  0.00    +0.000 C 
ATOM     26  C   UNL     1      48.022   2.767  16.636  0.00  0.00    +0.000 C 
ATOM     27  C   UNL     1      47.663   3.327  15.262  0.00  0.00    +0.000 C 
ENDBRANCH  20  22
ENDBRANCH  15  16
ENDBRANCH   1  15
TORSDOF 5
ENDMDL
MODEL 3
REMARK VINA RESULT:    -8.500      1.271      1.943
REMARK INTER + INTRA:         -11.844
REMARK INTER:                 -10.985
REMARK INTRA:                  -0.858
REMARK UNBOUND:                -0.859
REMARK  Name = 
REMARK  5 active torsions:
REMARK  status: ('A' for Active; 'I' for Inactive)
REMARK    1  A    between atoms: C_2  and  C_4
REMARK    2  A    between atoms: N_8  and  C_9
REMARK    3  A    between atoms: C_9  and  C_10
REMARK    4  A    between atoms: C_10  and  C_11
REMARK    5  A    between atoms: C_15  and  C_16
REMARK                            x       y       z     vdW  Elec       q    Type
REMARK                         _______ _______ _______ _____ _____    ______ ____
ROOT
ATOM      1  C   UNL     1      43.462   3.244  11.618  0.00  0.00    +0.000 C 
ENDROOT
BRANCH   1   6
ATOM      2  C   UNL     1      46.491   2.721   7.572  0.00  0.00    +0.000 A 
ATOM      3  C   UNL     1      45.875   1.746   8.349  0.00  0.00    +0.000 A 
ATOM      4  C   UNL     1      44.936   2.132   9.306  0.00  0.00    +0.000 A 
ATOM      5  C   UNL     1      44.642   3.481   9.485  0.00  0.00    +0.000 A 
ATOM      6  N   UNL     1      43.658   3.933  10.351  0.00  0.00    +0.000 N 
ATOM      7  N   UNL     1      45.259   4.437   8.762  0.00  0.00    +0.000 NA
ATOM      8  C   UNL     1      46.168   4.045   7.829  0.00  0.00    +0.000 A 
ATOM      9  H   UNL     1      43.754   4.946  10.399  0.00  0.00    +0.000 HD
BRANCH   2  11
ATOM     10  N   UNL     1      47.390   3.164   5.362  0.00  0.00    +0.000 N 
ATOM     11  C   UNL     1      47.449   2.400   6.496  0.00  0.00    +0.000 C 
ATOM     12  O   UNL     1      48.284   1.516   6.623  0.00  0.00    +0.000 OA
ATOM     13  H   UNL     1      48.121   3.011   4.679  0.00  0.00    +0.000 HD
ATOM     14  H   UNL     1      46.895   4.043   5.323  0.00  0.00    +0.000 HD
ENDBRANCH   2  11
ENDBRANCH   1   6
BRANCH   1  15
ATOM     15  C   UNL     1      43.410   4.248  12.777  0.00  0.00    +0.000 C 
BRANCH  15  16
ATOM     16  C   UNL     1      44.745   4.913  12.983  0.00  0.00    +0.000 A 
ATOM     17  C   UNL     1      45.893   4.156  13.195  0.00  0.00    +0.000 A 
ATOM     18  N   UNL     1      47.130   4.679  13.330  0.00  0.00    +0.000 NA
ATOM     19  C   UNL     1      47.234   6.022  13.234  0.00  0.00    +0.000 A 
ATOM     20  C   UNL     1      46.162   6.883  13.006  0.00  0.00    +0.000 A 
ATOM     21  C   UNL     1      44.893   6.302  12.896  0.00  0.00    +0.000 A 
BRANCH  20  22
ATOM     22  C   UNL     1      46.411   8.363  12.808  0.00  0.00    +0.000 C 
ATOM     23  C   UNL     1      45.295   9.075  12.028  0.00  0.00    +0.000 C 
ATOM     24  C   UNL     1      45.590  10.572  11.905  0.00  0.00    +0.000 C 
ATOM     25  C   UNL     1      46.959  10.835  11.282  0.00  0.00    +0.000 C 
ATOM     26  C   UNL     1      48.074  10.098  12.019  0.00  0.00    +0.000 C 
ATOM     27  C   UNL     1      47.775   8.606  12.140  0.00  0.00    +0.000 C 
ENDBRANCH  20  22
ENDBRANCH  15  16
ENDBRANCH   1  15
TORSDOF 5
ENDMDL
MODEL 4
REMARK VINA RESULT:    -7.816      3.676      7.638
REMARK INTER + INTRA:         -10.959
REMARK INTER:                 -10.320
REMARK INTRA:                  -0.639
REMARK UNBOUND:                -0.859
REMARK  Name = 
REMARK  5 active torsions:
REMARK  status: ('A' for Active; 'I' for Inactive)
REMARK    1  A    between atoms: C_2  and  C_4
REMARK    2  A    between atoms: N_8  and  C_9
REMARK    3  A    between atoms: C_9  and  C_10
REMARK    4  A    between atoms: C_10  and  C_11
REMARK    5  A    between atoms: C_15  and  C_16
REMARK                            x       y       z     vdW  Elec       q    Type
REMARK                         _______ _______ _______ _____ _____    ______ ____
ROOT
ATOM      1  C   UNL     1      47.139   6.612  12.809  0.00  0.00    +0.000 C 
ENDROOT
BRANCH   1   6
ATOM      2  C   UNL     1      48.636   4.295  17.077  0.00  0.00    +0.000 A 
ATOM      3  C   UNL     1      48.939   5.569  16.607  0.00  0.00    +0.000 A 
ATOM      4  C   UNL     1      48.262   6.060  15.491  0.00  0.00    +0.000 A 
ATOM      5  C   UNL     1      47.314   5.268  14.849  0.00  0.00    +0.000 A 
ATOM      6  N   UNL     1      46.541   5.720  13.791  0.00  0.00    +0.000 N 
ATOM      7  N   UNL     1      47.039   4.019  15.273  0.00  0.00    +0.000 NA
ATOM      8  C   UNL     1      47.702   3.555  16.367  0.00  0.00    +0.000 A 
ATOM      9  H   UNL     1      46.048   4.909  13.422  0.00  0.00    +0.000 HD
BRANCH   2  11
ATOM     10  N   UNL     1      48.411   3.290  19.273  0.00  0.00    +0.000 N 
ATOM     11  C   UNL     1      49.256   3.719  18.286  0.00  0.00    +0.000 C 
ATOM     12  O   UNL     1      50.468   3.595  18.389  0.00  0.00    +0.000 OA
ATOM     13  H   UNL     1      48.838   2.796  20.047  0.00  0.00    +0.000 HD
ATOM     14  H   UNL     1      47.424   3.147  19.121  0.00  0.00    +0.000 HD
ENDBRANCH   2  11
ENDBRANCH   1   6
BRANCH   1  15
ATOM     15  C   UNL     1      46.057   7.272  11.945  0.00  0.00    +0.000 C 
BRANCH  15  16
ATOM     16  C   UNL     1      45.175   6.239  11.293  0.00  0.00    +0.000 A 
ATOM     17  C   UNL     1      43.808   6.208  11.544  0.00  0.00    +0.000 A 
ATOM     18  N   UNL     1      42.949   5.351  10.955  0.00  0.00    +0.000 NA
ATOM     19  C   UNL     1      43.474   4.489  10.056  0.00  0.00    +0.000 A 
ATOM     20  C   UNL     1      44.822   4.437   9.707  0.00  0.00    +0.000 A 
ATOM     21  C   UNL     1      45.682   5.327  10.361  0.00  0.00    +0.000 A 
BRANCH  20  22
ATOM     22  C   UNL     1      45.281   3.503   8.608  0.00  0.00    +0.000 C 
ATOM     23  C   UNL     1      45.779   2.144   9.123  0.00  0.00    +0.000 C 
ATOM     24  C   UNL     1      46.185   1.238   7.959  0.00  0.00    +0.000 C 
ATOM     25  C   UNL     1      47.219   1.901   7.052  0.00  0.00    +0.000 C 
ATOM     26  C   UNL     1      46.759   3.273   6.567  0.00  0.00    +0.000 C 
ATOM     27  C   UNL     1      46.355   4.173   7.732  0.00  0.00    +0.000 C 
ENDBRANCH  20  22
ENDBRANCH  15  16
ENDBRANCH   1  15
TORSDOF 5
ENDMDL
MODEL 5
REMARK VINA RESULT:    -7.634      3.241      6.852
REMARK INTER + INTRA:         -10.725
REMARK INTER:                  -9.982
REMARK INTRA:                  -0.743
REMARK UNBOUND:                -0.859
REMARK  Name = 
REMARK  5 active torsions:
REMARK  status: ('A' for Active; 'I' for Inactive)
REMARK    1  A    between atoms: C_2  and  C_4
REMARK    2  A    between atoms: N_8  and  C_9
REMARK    3  A    between atoms: C_9  and  C_10
REMARK    4  A    between atoms: C_10  and  C_11
REMARK    5  A    between atoms: C_15  and  C_16
REMARK                            x       y       z     vdW  Elec       q    Type
REMARK                         _______ _______ _______ _____ _____    ______ ____
ROOT
ATOM      1  C   UNL     1      44.240   6.499  12.631  0.00  0.00    +0.000 C 
ENDROOT
BRANCH   1   6
ATOM      2  C   UNL     1      49.019   8.224  12.587  0.00  0.00    +0.000 A 
ATOM      3  C   UNL     1      48.446   7.186  11.861  0.00  0.00    +0.000 A 
ATOM      4  C   UNL     1      47.062   7.010  11.904  0.00  0.00    +0.000 A 
ATOM      5  C   UNL     1      46.279   7.855  12.684  0.00  0.00    +0.000 A 
ATOM      6  N   UNL     1      44.894   7.797  12.707  0.00  0.00    +0.000 N 
ATOM      7  N   UNL     1      46.828   8.841  13.421  0.00  0.00    +0.000 NA
ATOM      8  C   UNL     1      48.177   9.006  13.364  0.00  0.00    +0.000 A 
ATOM      9  H   UNL     1      44.588   8.413  13.458  0.00  0.00    +0.000 HD
BRANCH   2  11
ATOM     10  N   UNL     1      51.250   7.705  11.785  0.00  0.00    +0.000 N 
ATOM     11  C   UNL     1      50.464   8.523  12.551  0.00  0.00    +0.000 C 
ATOM     12  O   UNL     1      50.936   9.480  13.148  0.00  0.00    +0.000 OA
ATOM     13  H   UNL     1      52.217   7.984  11.677  0.00  0.00    +0.000 HD
ATOM     14  H   UNL     1      50.869   7.075  11.095  0.00  0.00    +0.000 HD
ENDBRANCH   2  11
ENDBRANCH   1   6
BRANCH   1  15
ATOM     15  C   UNL     1      43.707   6.243  11.215  0.00  0.00    +0.000 C 
BRANCH  15  16
ATOM     16  C   UNL     1      43.903   4.806  10.811  0.00  0.00    +0.000 A 
ATOM     17  C   UNL     1      43.268   3.779  11.500  0.00  0.00    +0.000 A 
ATOM     18  N   UNL     1      43.350   2.476  11.162  0.00  0.00    +0.000 NA
ATOM     19  C   UNL     1      44.090   2.178  10.071  0.00  0.00    +0.000 A 
ATOM     20  C   UNL     1      44.757   3.119   9.289  0.00  0.00    +0.000 A 
ATOM     21  C   UNL     1      44.666   4.458   9.690  0.00  0.00    +0.000 A 
BRANCH  20  22
ATOM     22  C   UNL     1      45.467   2.684   8.025  0.00  0.00    +0.000 C 
ATOM     23  C   UNL     1      46.338   1.432   8.210  0.00  0.00    +0.000 C 
ATOM     24  C   UNL     1      46.990   1.024   6.886  0.00  0.00    +0.000 C 
ATOM     25  C   UNL     1      47.787   2.169   6.266  0.00  0.00    +0.000 C 
ATOM     26  C   UNL     1      46.948   3.435   6.117  0.00  0.00    +0.000 C 
ATOM     27  C   UNL     1      46.300   3.837   7.439  0.00  0.00    +0.000 C 
ENDBRANCH  20  22
ENDBRANCH  15  16
ENDBRANCH   1  15
TORSDOF 5
ENDMDL
MODEL 6
REMARK VINA RESULT:    -6.854      3.776      7.590
REMARK INTER + INTRA:          -9.717
REMARK INTER:                  -8.974
REMARK INTRA:                  -0.743
REMARK UNBOUND:                -0.859
REMARK  Name = 
REMARK  5 active torsions:
REMARK  status: ('A' for Active; 'I' for Inactive)
REMARK    1  A    between atoms: C_2  and  C_4
REMARK    2  A    between atoms: N_8  and  C_9
REMARK    3  A    between atoms: C_9  and  C_10
REMARK    4  A    between atoms: C_10  and  C_11
REMARK    5  A    between atoms: C_15  and  C_16
REMARK                            x       y       z     vdW  Elec       q    Type
REMARK                         _______ _______ _______ _____ _____    ______ ____
ROOT
ATOM      1  C   UNL     1      49.404   8.406  13.725  0.00  0.00    +0.000 C 
ENDROOT
BRANCH   1   6
ATOM      2  C   UNL     1      48.203   4.572  16.836  0.00  0.00    +0.000 A 
ATOM      3  C   UNL     1      47.525   5.054  15.722  0.00  0.00    +0.000 A 
ATOM      4  C   UNL     1      48.142   6.006  14.910  0.00  0.00    +0.000 A 
ATOM      5  C   UNL     1      49.411   6.477  15.233  0.00  0.00    +0.000 A 
ATOM      6  N   UNL     1      50.122   7.353  14.428  0.00  0.00    +0.000 N 
ATOM      7  N   UNL     1      50.063   6.044  16.331  0.00  0.00    +0.000 NA
ATOM      8  C   UNL     1      49.452   5.111  17.110  0.00  0.00    +0.000 A 
ATOM      9  H   UNL     1      50.939   7.644  14.963  0.00  0.00    +0.000 HD
BRANCH   2  11
ATOM     10  N   UNL     1      48.337   3.256  18.870  0.00  0.00    +0.000 N 
ATOM     11  C   UNL     1      47.653   3.521  17.715  0.00  0.00    +0.000 C 
ATOM     12  O   UNL     1      46.614   2.937  17.444  0.00  0.00    +0.000 OA
ATOM     13  H   UNL     1      47.894   2.616  19.517  0.00  0.00    +0.000 HD
ATOM     14  H   UNL     1      49.041   3.877  19.240  0.00  0.00    +0.000 HD
ENDBRANCH   2  11
ENDBRANCH   1   6
BRANCH   1  15
ATOM     15  C   UNL     1      49.059   7.965  12.297  0.00  0.00    +0.000 C 
BRANCH  15  16
ATOM     16  C   UNL     1      47.573   7.784  12.127  0.00  0.00    +0.000 A 
ATOM     17  C   UNL     1      46.685   8.783  12.509  0.00  0.00    +0.000 A 
ATOM     18  N   UNL     1      45.349   8.715  12.336  0.00  0.00    +0.000 NA
ATOM     19  C   UNL     1      44.871   7.603  11.736  0.00  0.00    +0.000 A 
ATOM     20  C   UNL     1      45.661   6.544  11.293  0.00  0.00    +0.000 A 
ATOM     21  C   UNL     1      47.040   6.644  11.515  0.00  0.00    +0.000 A 
BRANCH  20  22
ATOM     22  C   UNL     1      45.029   5.395  10.536  0.00  0.00    +0.000 C 
ATOM     23  C   UNL     1      44.932   4.099  11.356  0.00  0.00    +0.000 C 
ATOM     24  C   UNL     1      44.244   2.996  10.547  0.00  0.00    +0.000 C 
ATOM     25  C   UNL     1      44.936   2.756   9.207  0.00  0.00    +0.000 C 
ATOM     26  C   UNL     1      45.081   4.042   8.400  0.00  0.00    +0.000 C 
ATOM     27  C   UNL     1      45.766   5.139   9.210  0.00  0.00    +0.000 C 
ENDBRANCH  20  22
ENDBRANCH  15  16
ENDBRANCH   1  15
TORSDOF 5
ENDMDL
MODEL 7
REMARK VINA RESULT:    -6.612      4.830      6.745
REMARK INTER + INTRA:          -9.404
REMARK INTER:                  -8.623
REMARK INTRA:                  -0.781
REMARK UNBOUND:                -0.859
REMARK  Name = 
REMARK  5 active torsions:
REMARK  status: ('A' for Active; 'I' for Inactive)
REMARK    1  A    between atoms: C_2  and  C_4
REMARK    2  A    between atoms: N_8  and  C_9
REMARK    3  A    between atoms: C_9  and  C_10
REMARK    4  A    between atoms: C_10  and  C_11
REMARK    5  A    between atoms: C_15  and  C_16
REMARK                            x       y       z     vdW  Elec       q    Type
REMARK                         _______ _______ _______ _____ _____    ______ ____
ROOT
ATOM      1  C   UNL     1      48.511   6.614  14.471  0.00  0.00    +0.000 C 
ENDROOT
BRANCH   1   6
ATOM      2  C   UNL     1      45.059   3.974  11.838  0.00  0.00    +0.000 A 
ATOM      3  C   UNL     1      45.941   3.543  12.822  0.00  0.00    +0.000 A 
ATOM      4  C   UNL     1      46.675   4.488  13.539  0.00  0.00    +0.000 A 
ATOM      5  C   UNL     1      46.534   5.842  13.248  0.00  0.00    +0.000 A 
ATOM      6  N   UNL     1      47.162   6.843  13.975  0.00  0.00    +0.000 N 
ATOM      7  N   UNL     1      45.709   6.269  12.272  0.00  0.00    +0.000 NA
ATOM      8  C   UNL     1      44.995   5.337  11.586  0.00  0.00    +0.000 A 
ATOM      9  H   UNL     1      47.009   7.712  13.467  0.00  0.00    +0.000 HD
BRANCH   2  11
ATOM     10  N   UNL     1      44.770   2.396  10.018  0.00  0.00    +0.000 N 
ATOM     11  C   UNL     1      44.197   3.050  11.075  0.00  0.00    +0.000 C 
ATOM     12  O   UNL     1      43.034   2.847  11.393  0.00  0.00    +0.000 OA
ATOM     13  H   UNL     1      44.205   1.683   9.572  0.00  0.00    +0.000 HD
ATOM     14  H   UNL     1      45.768   2.347   9.884  0.00  0.00    +0.000 HD
ENDBRANCH   2  11
ENDBRANCH   1   6
BRANCH   1  15
ATOM     15  C   UNL     1      48.570   6.818  15.990  0.00  0.00    +0.000 C 
BRANCH  15  16
ATOM     16  C   UNL     1      48.625   5.500  16.716  0.00  0.00    +0.000 A 
ATOM     17  C   UNL     1      47.466   4.770  16.957  0.00  0.00    +0.000 A 
ATOM     18  N   UNL     1      47.444   3.558  17.549  0.00  0.00    +0.000 NA
ATOM     19  C   UNL     1      48.638   3.035  17.906  0.00  0.00    +0.000 A 
ATOM     20  C   UNL     1      49.866   3.660  17.700  0.00  0.00    +0.000 A 
ATOM     21  C   UNL     1      49.842   4.928  17.105  0.00  0.00    +0.000 A 
BRANCH  20  22
ATOM     22  C   UNL     1      51.150   2.934  18.041  0.00  0.00    +0.000 C 
ATOM     23  C   UNL     1      52.416   3.755  17.751  0.00  0.00    +0.000 C 
ATOM     24  C   UNL     1      53.671   2.979  18.160  0.00  0.00    +0.000 C 
ATOM     25  C   UNL     1      53.734   1.605  17.495  0.00  0.00    +0.000 C 
ATOM     26  C   UNL     1      52.464   0.794  17.736  0.00  0.00    +0.000 C 
ATOM     27  C   UNL     1      51.216   1.572  17.328  0.00  0.00    +0.000 C 
ENDBRANCH  20  22
ENDBRANCH  15  16
ENDBRANCH   1  15
TORSDOF 5
ENDMDL
MODEL 8
REMARK VINA RESULT:    -6.558      4.531      8.041
REMARK INTER + INTRA:          -9.335
REMARK INTER:                  -8.632
REMARK INTRA:                  -0.702
REMARK UNBOUND:                -0.859
REMARK  Name = 
REMARK  5 active torsions:
REMARK  status: ('A' for Active; 'I' for Inactive)
REMARK    1  A    between atoms: C_2  and  C_4
REMARK    2  A    between atoms: N_8  and  C_9
REMARK    3  A    between atoms: C_9  and  C_10
REMARK    4  A    between atoms: C_10  and  C_11
REMARK    5  A    between atoms: C_15  and  C_16
REMARK                            x       y       z     vdW  Elec       q    Type
REMARK                         _______ _______ _______ _____ _____    ______ ____
ROOT
ATOM      1  C   UNL     1      48.649   7.037  16.082  0.00  0.00    +0.000 C 
ENDROOT
BRANCH   1   6
ATOM      2  C   UNL     1      51.074   2.765  17.384  0.00  0.00    +0.000 A 
ATOM      3  C   UNL     1      51.491   4.087  17.488  0.00  0.00    +0.000 A 
ATOM      4  C   UNL     1      50.578   5.111  17.234  0.00  0.00    +0.000 A 
ATOM      5  C   UNL     1      49.273   4.801  16.861  0.00  0.00    +0.000 A 
ATOM      6  N   UNL     1      48.289   5.760  16.680  0.00  0.00    +0.000 N 
ATOM      7  N   UNL     1      48.867   3.523  16.722  0.00  0.00    +0.000 NA
ATOM      8  C   UNL     1      49.767   2.535  16.979  0.00  0.00    +0.000 A 
ATOM      9  H   UNL     1      47.487   5.282  16.272  0.00  0.00    +0.000 HD
BRANCH   2  11
ATOM     10  N   UNL     1      51.344   0.445  18.043  0.00  0.00    +0.000 N 
ATOM     11  C   UNL     1      51.953   1.621  17.695  0.00  0.00    +0.000 C 
ATOM     12  O   UNL     1      53.169   1.705  17.608  0.00  0.00    +0.000 OA
ATOM     13  H   UNL     1      51.948  -0.360  18.144  0.00  0.00    +0.000 HD
ATOM     14  H   UNL     1      50.363   0.272  17.883  0.00  0.00    +0.000 HD
ENDBRANCH   2  11
ENDBRANCH   1   6
BRANCH   1  15
ATOM     15  C   UNL     1      48.835   6.893  14.567  0.00  0.00    +0.000 C 
BRANCH  15  16
ATOM     16  C   UNL     1      47.555   7.188  13.830  0.00  0.00    +0.000 A 
ATOM     17  C   UNL     1      47.136   8.499  13.628  0.00  0.00    +0.000 A 
ATOM     18  N   UNL     1      46.033   8.842  12.930  0.00  0.00    +0.000 NA
ATOM     19  C   UNL     1      45.318   7.831  12.391  0.00  0.00    +0.000 A 
ATOM     20  C   UNL     1      45.647   6.482  12.508  0.00  0.00    +0.000 A 
ATOM     21  C   UNL     1      46.784   6.168  13.261  0.00  0.00    +0.000 A 
BRANCH  20  22
ATOM     22  C   UNL     1      44.833   5.439  11.770  0.00  0.00    +0.000 C 
ATOM     23  C   UNL     1      44.778   4.082  12.488  0.00  0.00    +0.000 C 
ATOM     24  C   UNL     1      43.905   3.093  11.711  0.00  0.00    +0.000 C 
ATOM     25  C   UNL     1      44.367   2.939  10.264  0.00  0.00    +0.000 C 
ATOM     26  C   UNL     1      44.471   4.283   9.550  0.00  0.00    +0.000 C 
ATOM     27  C   UNL     1      45.341   5.266  10.328  0.00  0.00    +0.000 C 
ENDBRANCH  20  22
ENDBRANCH  15  16
ENDBRANCH   1  15
TORSDOF 5
ENDMDL
MODEL 9
REMARK VINA RESULT:    -6.442      3.921      6.183
REMARK INTER + INTRA:          -9.184
REMARK INTER:                  -7.950
REMARK INTRA:                  -1.234
REMARK UNBOUND:                -0.859
REMARK  Name = 
REMARK  5 active torsions:
REMARK  status: ('A' for Active; 'I' for Inactive)
REMARK    1  A    between atoms: C_2  and  C_4
REMARK    2  A    between atoms: N_8  and  C_9
REMARK    3  A    between atoms: C_9  and  C_10
REMARK    4  A    between atoms: C_10  and  C_11
REMARK    5  A    between atoms: C_15  and  C_16
REMARK                            x       y       z     vdW  Elec       q    Type
REMARK                         _______ _______ _______ _____ _____    ______ ____
ROOT
ATOM      1  C   UNL     1      48.813   7.906  13.078  0.00  0.00    +0.000 C 
ENDROOT
BRANCH   1   6
ATOM      2  C   UNL     1      45.294   4.363  12.137  0.00  0.00    +0.000 A 
ATOM      3  C   UNL     1      46.130   4.510  13.238  0.00  0.00    +0.000 A 
ATOM      4  C   UNL     1      46.894   5.670  13.361  0.00  0.00    +0.000 A 
ATOM      5  C   UNL     1      46.829   6.652  12.377  0.00  0.00    +0.000 A 
ATOM      6  N   UNL     1      47.489   7.868  12.474  0.00  0.00    +0.000 N 
ATOM      7  N   UNL     1      46.049   6.504  11.287  0.00  0.00    +0.000 NA
ATOM      8  C   UNL     1      45.305   5.371  11.183  0.00  0.00    +0.000 A 
ATOM      9  H   UNL     1      47.393   8.326  11.569  0.00  0.00    +0.000 HD
BRANCH   2  11
ATOM     10  N   UNL     1      44.490   2.529  10.766  0.00  0.00    +0.000 N 
ATOM     11  C   UNL     1      44.404   3.198  11.956  0.00  0.00    +0.000 C 
ATOM     12  O   UNL     1      43.651   2.823  12.843  0.00  0.00    +0.000 OA
ATOM     13  H   UNL     1      43.960   1.670  10.695  0.00  0.00    +0.000 HD
ATOM     14  H   UNL     1      45.260   2.654  10.125  0.00  0.00    +0.000 HD
ENDBRANCH   2  11
ENDBRANCH   1   6
BRANCH   1  15
ATOM     15  C   UNL     1      48.900   9.027  14.120  0.00  0.00    +0.000 C 
BRANCH  15  16
ATOM     16  C   UNL     1      48.759   8.485  15.518  0.00  0.00    +0.000 A 
ATOM     17  C   UNL     1      48.285   9.288  16.550  0.00  0.00    +0.000 A 
ATOM     18  N   UNL     1      48.079   8.857  17.811  0.00  0.00    +0.000 NA
ATOM     19  C   UNL     1      48.343   7.555  18.058  0.00  0.00    +0.000 A 
ATOM     20  C   UNL     1      48.803   6.649  17.104  0.00  0.00    +0.000 A 
ATOM     21  C   UNL     1      49.027   7.143  15.814  0.00  0.00    +0.000 A 
BRANCH  20  22
ATOM     22  C   UNL     1      48.962   5.187  17.466  0.00  0.00    +0.000 C 
ATOM     23  C   UNL     1      50.398   4.667  17.305  0.00  0.00    +0.000 C 
ATOM     24  C   UNL     1      50.494   3.199  17.729  0.00  0.00    +0.000 C 
ATOM     25  C   UNL     1      49.497   2.321  16.976  0.00  0.00    +0.000 C 
ATOM     26  C   UNL     1      48.070   2.850  17.088  0.00  0.00    +0.000 C 
ATOM     27  C   UNL     1      47.980   4.314  16.666  0.00  0.00    +0.000 C 
ENDBRANCH  20  22
ENDBRANCH  15  16
ENDBRANCH   1  15
TORSDOF 5
ENDMDL
