MODEL 1
REMARK VINA RESULT:    -6.621      0.000      0.000
REMARK INTER + INTRA:          -8.159
REMARK INTER:                  -7.782
REMARK INTRA:                  -0.378
REMARK UNBOUND:                -0.378
REMARK  Name = 
REMARK  4 active torsions:
REMARK  status: ('A' for Active; 'I' for Inactive)
REMARK    1  A    between atoms: C_1  and  C_2
REMARK    2  A    between atoms: C_2  and  C_3
REMARK    3  A    between atoms: C_2  and  C_12
REMARK    4  A    between atoms: C_6  and  C_7
REMARK                            x       y       z     vdW  Elec       q    Type
REMARK                         _______ _______ _______ _____ _____    ______ ____
ROOT
ATOM      1  C   UNL     1      45.299   4.189   9.716  0.00  0.00    +0.000 A 
ATOM      2  N   UNL     1      45.898   4.919   8.753  0.00  0.00    +0.000 NA
ATOM      3  C   UNL     1      46.396   4.240   7.692  0.00  0.00    +0.000 A 
ATOM      4  C   UNL     1      46.353   2.868   7.578  0.00  0.00    +0.000 A 
ATOM      5  C   UNL     1      45.724   2.215   8.612  0.00  0.00    +0.000 A 
ATOM      6  N   UNL     1      45.192   2.843   9.683  0.00  0.00    +0.000 NA
ENDROOT
BRANCH   4   7
ATOM      7  C   UNL     1      46.918   2.200   6.399  0.00  0.00    +0.000 C 
ATOM      8  N   UNL     1      47.139   2.955   5.280  0.00  0.00    +0.000 N 
ATOM      9  O   UNL     1      47.155   0.999   6.406  0.00  0.00    +0.000 OA
ATOM     10  H   UNL     1      46.748   3.875   5.137  0.00  0.00    +0.000 HD
ATOM     11  H   UNL     1      47.441   2.449   4.454  0.00  0.00    +0.000 HD
ENDBRANCH   4   7
BRANCH   1  13
ATOM     12  C   UNL     1      43.187   5.085  10.758  0.00  0.00    +0.000 C 
ATOM     13  C   UNL     1      44.704   4.904  10.918  0.00  0.00    +0.000 C 
BRANCH  13  14
ATOM     14  C   UNL     1      45.416   6.241  11.285  0.00  0.00    +0.000 C 
ATOM     15  C   UNL     1      46.379   6.128  12.483  0.00  0.00    +0.000 C 
ATOM     16  C   UNL     1      47.037   7.465  12.821  0.00  0.00    +0.000 C 
ATOM     17  C   UNL     1      46.000   8.555  13.056  0.00  0.00    +0.000 C 
ATOM     18  C   UNL     1      45.092   8.711  11.842  0.00  0.00    +0.000 C 
ATOM     19  C   UNL     1      44.409   7.392  11.490  0.00  0.00    +0.000 C 
ENDBRANCH  13  14
ENDBRANCH   1  13
TORSDOF 3
ENDMDL
MODEL 2
REMARK VINA RESULT:    -6.591      3.428      6.224
REMARK INTER + INTRA:          -8.125
REMARK INTER:                  -7.956
REMARK INTRA:                  -0.168
REMARK UNBOUND:                -0.378
REMARK  Name = 
REMARK  4 active torsions:
REMARK  status: ('A' for Active; 'I' for Inactive)
REMARK    1  A    between atoms: C_1  and  C_2
REMARK    2  A    between atoms: C_2  and  C_3
REMARK    3  A    between atoms: C_2  and  C_12
REMARK    4  A    between atoms: C_6  and  C_7
REMARK                            x       y       z     vdW  Elec       q    Type
REMARK                         _______ _______ _______ _____ _____    ______ ____
ROOT
ATOM      1  C   UNL     1      45.107   5.603  11.748  0.00  0.00    +0.000 A 
ATOM      2  N   UNL     1      45.222   4.807  12.831  0.00  0.00    +0.000 NA
ATOM      3  C   UNL     1      46.249   5.068  13.674  0.00  0.00    +0.000 A 
ATOM      4  C   UNL     1      47.179   6.059  13.457  0.00  0.00    +0.000 A 
ATOM      5  C   UNL     1      46.977   6.814  12.326  0.00  0.00    +0.000 A 
ATOM      6  N   UNL     1      45.958   6.612  11.462  0.00  0.00    +0.000 NA
ENDROOT
BRANCH   4   7
ATOM      7  C   UNL     1      48.270   6.281  14.415  0.00  0.00    +0.000 C 
ATOM      8  N   UNL     1      48.025   6.019  15.735  0.00  0.00    +0.000 N 
ATOM      9  O   UNL     1      49.355   6.715  14.049  0.00  0.00    +0.000 OA
ATOM     10  H   UNL     1      47.100   5.894  16.121  0.00  0.00    +0.000 HD
ATOM     11  H   UNL     1      48.764   6.270  16.384  0.00  0.00    +0.000 HD
ENDBRANCH   4   7
BRANCH   1  13
ATOM     12  C   UNL     1      42.654   5.063  11.533  0.00  0.00    +0.000 C 
ATOM     13  C   UNL     1      43.958   5.368  10.781  0.00  0.00    +0.000 C 
BRANCH  13  14
ATOM     14  C   UNL     1      44.256   4.308   9.678  0.00  0.00    +0.000 C 
ATOM     15  C   UNL     1      44.340   2.863  10.206  0.00  0.00    +0.000 C 
ATOM     16  C   UNL     1      44.655   1.861   9.096  0.00  0.00    +0.000 C 
ATOM     17  C   UNL     1      45.924   2.242   8.344  0.00  0.00    +0.000 C 
ATOM     18  C   UNL     1      45.811   3.646   7.764  0.00  0.00    +0.000 C 
ATOM     19  C   UNL     1      45.510   4.671   8.855  0.00  0.00    +0.000 C 
ENDBRANCH  13  14
ENDBRANCH   1  13
TORSDOF 3
ENDMDL
MODEL 3
REMARK VINA RESULT:    -6.581      3.270      6.487
REMARK INTER + INTRA:          -8.113
REMARK INTER:                  -7.840
REMARK INTRA:                  -0.273
REMARK UNBOUND:                -0.378
REMARK  Name = 
REMARK  4 active torsions:
REMARK  status: ('A' for Active; 'I' for Inactive)
REMARK    1  A    between atoms: C_1  and  C_2
REMARK    2  A    between atoms: C_2  and  C_3
REMARK    3  A    between atoms: C_2  and  C_12
REMARK    4  A    between atoms: C_6  and  C_7
REMARK                            x       y       z     vdW  Elec       q    Type
REMARK                         _______ _______ _______ _____ _____    ______ ____
ROOT
ATOM      1  C   UNL     1      44.625   5.099  10.720  0.00  0.00    +0.000 A 
ATOM      2  N   UNL     1      45.914   5.430  10.943  0.00  0.00    +0.000 NA
ATOM      3  C   UNL     1      46.141   6.575  11.628  0.00  0.00    +0.000 A 
ATOM      4  C   UNL     1      45.140   7.415  12.060  0.00  0.00    +0.000 A 
ATOM      5  C   UNL     1      43.861   6.992  11.783  0.00  0.00    +0.000 A 
ATOM      6  N   UNL     1      43.576   5.849  11.122  0.00  0.00    +0.000 NA
ENDROOT
BRANCH   4   7
ATOM      7  C   UNL     1      45.463   8.645  12.796  0.00  0.00    +0.000 C 
ATOM      8  N   UNL     1      44.645   9.728  12.622  0.00  0.00    +0.000 N 
ATOM      9  O   UNL     1      46.448   8.709  13.519  0.00  0.00    +0.000 OA
ATOM     10  H   UNL     1      43.973   9.810  11.873  0.00  0.00    +0.000 HD
ATOM     11  H   UNL     1      44.944  10.588  13.069  0.00  0.00    +0.000 HD
ENDBRANCH   4   7
BRANCH   1  13
ATOM     12  C   UNL     1      43.742   2.748  10.923  0.00  0.00    +0.000 C 
ATOM     13  C   UNL     1      44.314   3.812   9.975  0.00  0.00    +0.000 C 
BRANCH  13  14
ATOM     14  C   UNL     1      45.500   3.260   9.126  0.00  0.00    +0.000 C 
ATOM     15  C   UNL     1      45.782   4.070   7.846  0.00  0.00    +0.000 C 
ATOM     16  C   UNL     1      46.936   3.483   7.035  0.00  0.00    +0.000 C 
ATOM     17  C   UNL     1      46.700   2.014   6.710  0.00  0.00    +0.000 C 
ATOM     18  C   UNL     1      46.490   1.203   7.983  0.00  0.00    +0.000 C 
ATOM     19  C   UNL     1      45.331   1.761   8.807  0.00  0.00    +0.000 C 
ENDBRANCH  13  14
ENDBRANCH   1  13
TORSDOF 3
ENDMDL
MODEL 4
REMARK VINA RESULT:    -6.448      1.139      2.011
REMARK INTER + INTRA:          -7.957
REMARK INTER:                  -7.781
REMARK INTRA:                  -0.176
REMARK UNBOUND:                -0.378
REMARK  Name = 
REMARK  4 active torsions:
REMARK  status: ('A' for Active; 'I' for Inactive)
REMARK    1  A    between atoms: C_1  and  C_2
REMARK    2  A    between atoms: C_2  and  C_3
REMARK    3  A    between atoms: C_2  and  C_12
REMARK    4  A    between atoms: C_6  and  C_7
REMARK                            x       y       z     vdW  Elec       q    Type
REMARK                         _______ _______ _______ _____ _____    ______ ____
ROOT
ATOM      1  C   UNL     1      44.940   3.655   9.843  0.00  0.00    +0.000 A 
ATOM      2  N   UNL     1      45.511   4.577   9.041  0.00  0.00    +0.000 NA
ATOM      3  C   UNL     1      46.199   4.115   7.971  0.00  0.00    +0.000 A 
ATOM      4  C   UNL     1      46.371   2.777   7.696  0.00  0.00    +0.000 A 
ATOM      5  C   UNL     1      45.753   1.916   8.572  0.00  0.00    +0.000 A 
ATOM      6  N   UNL     1      45.036   2.322   9.643  0.00  0.00    +0.000 NA
ENDROOT
BRANCH   4   7
ATOM      7  C   UNL     1      47.134   2.350   6.516  0.00  0.00    +0.000 C 
ATOM      8  N   UNL     1      47.063   3.127   5.392  0.00  0.00    +0.000 N 
ATOM      9  O   UNL     1      47.790   1.316   6.528  0.00  0.00    +0.000 OA
ATOM     10  H   UNL     1      46.366   3.843   5.247  0.00  0.00    +0.000 HD
ATOM     11  H   UNL     1      47.525   2.759   4.567  0.00  0.00    +0.000 HD
ENDBRANCH   4   7
BRANCH   1  13
ATOM     12  C   UNL     1      43.060   5.134  10.634  0.00  0.00    +0.000 C 
ATOM     13  C   UNL     1      44.137   4.121  11.046  0.00  0.00    +0.000 C 
BRANCH  13  14
ATOM     14  C   UNL     1      45.004   4.642  12.232  0.00  0.00    +0.000 C 
ATOM     15  C   UNL     1      45.694   5.992  11.955  0.00  0.00    +0.000 C 
ATOM     16  C   UNL     1      46.549   6.454  13.134  0.00  0.00    +0.000 C 
ATOM     17  C   UNL     1      47.567   5.394  13.535  0.00  0.00    +0.000 C 
ATOM     18  C   UNL     1      46.876   4.079  13.874  0.00  0.00    +0.000 C 
ATOM     19  C   UNL     1      46.025   3.586  12.706  0.00  0.00    +0.000 C 
ENDBRANCH  13  14
ENDBRANCH   1  13
TORSDOF 3
ENDMDL
MODEL 5
REMARK VINA RESULT:    -6.271      5.735      8.001
REMARK INTER + INTRA:          -7.748
REMARK INTER:                  -7.354
REMARK INTRA:                  -0.394
REMARK UNBOUND:                -0.378
REMARK  Name = 
REMARK  4 active torsions:
REMARK  status: ('A' for Active; 'I' for Inactive)
REMARK    1  A    between atoms: C_1  and  C_2
REMARK    2  A    between atoms: C_2  and  C_3
REMARK    3  A    between atoms: C_2  and  C_12
REMARK    4  A    between atoms: C_6  and  C_7
REMARK                            x       y       z     vdW  Elec       q    Type
REMARK                         _______ _______ _______ _____ _____    ______ ____
ROOT
ATOM      1  C   UNL     1      47.357   4.779  14.970  0.00  0.00    +0.000 A 
ATOM      2  N   UNL     1      48.297   5.623  15.443  0.00  0.00    +0.000 NA
ATOM      3  C   UNL     1      48.697   5.436  16.723  0.00  0.00    +0.000 A 
ATOM      4  C   UNL     1      48.169   4.472  17.552  0.00  0.00    +0.000 A 
ATOM      5  C   UNL     1      47.217   3.663  16.978  0.00  0.00    +0.000 A 
ATOM      6  N   UNL     1      46.796   3.791  15.700  0.00  0.00    +0.000 NA
ENDROOT
BRANCH   4   7
ATOM      7  C   UNL     1      48.651   4.330  18.933  0.00  0.00    +0.000 C 
ATOM      8  N   UNL     1      48.358   3.170  19.597  0.00  0.00    +0.000 N 
ATOM      9  O   UNL     1      49.269   5.232  19.482  0.00  0.00    +0.000 OA
ATOM     10  H   UNL     1      47.662   2.506  19.288  0.00  0.00    +0.000 HD
ATOM     11  H   UNL     1      48.622   3.139  20.576  0.00  0.00    +0.000 HD
ENDBRANCH   4   7
BRANCH   1  13
ATOM     12  C   UNL     1      47.165   6.347  13.007  0.00  0.00    +0.000 C 
ATOM     13  C   UNL     1      46.889   4.931  13.532  0.00  0.00    +0.000 C 
BRANCH  13  14
ATOM     14  C   UNL     1      45.411   4.497  13.290  0.00  0.00    +0.000 C 
ATOM     15  C   UNL     1      45.253   3.373  12.248  0.00  0.00    +0.000 C 
ATOM     16  C   UNL     1      43.789   2.995  12.027  0.00  0.00    +0.000 C 
ATOM     17  C   UNL     1      42.949   4.209  11.652  0.00  0.00    +0.000 C 
ATOM     18  C   UNL     1      43.054   5.291  12.719  0.00  0.00    +0.000 C 
ATOM     19  C   UNL     1      44.507   5.699  12.950  0.00  0.00    +0.000 C 
ENDBRANCH  13  14
ENDBRANCH   1  13
TORSDOF 3
ENDMDL
MODEL 6
REMARK VINA RESULT:    -5.760      3.730      6.696
REMARK INTER + INTRA:          -7.148
REMARK INTER:                  -6.781
REMARK INTRA:                  -0.367
REMARK UNBOUND:                -0.378
REMARK  Name = 
REMARK  4 active torsions:
REMARK  status: ('A' for Active; 'I' for Inactive)
REMARK    1  A    between atoms: C_1  and  C_2
REMARK    2  A    between atoms: C_2  and  C_3
REMARK    3  A    between atoms: C_2  and  C_12
REMARK    4  A    between atoms: C_6  and  C_7
REMARK                            x       y       z     vdW  Elec       q    Type
REMARK                         _______ _______ _______ _____ _____    ______ ____
ROOT
ATOM      1  C   UNL     1      45.185   6.157  11.974  0.00  0.00    +0.000 A 
ATOM      2  N   UNL     1      46.257   5.714  12.662  0.00  0.00    +0.000 NA
ATOM      3  C   UNL     1      47.005   6.648  13.295  0.00  0.00    +0.000 A 
ATOM      4  C   UNL     1      46.747   7.999  13.235  0.00  0.00    +0.000 A 
ATOM      5  C   UNL     1      45.634   8.350  12.508  0.00  0.00    +0.000 A 
ATOM      6  N   UNL     1      44.840   7.459  11.874  0.00  0.00    +0.000 NA
ENDROOT
BRANCH   4   7
ATOM      7  C   UNL     1      47.605   8.955  13.946  0.00  0.00    +0.000 C 
ATOM      8  N   UNL     1      47.475   9.043  15.305  0.00  0.00    +0.000 N 
ATOM      9  O   UNL     1      48.391   9.672  13.340  0.00  0.00    +0.000 OA
ATOM     10  H   UNL     1      46.695   8.662  15.821  0.00  0.00    +0.000 HD
ATOM     11  H   UNL     1      48.013   9.775  15.758  0.00  0.00    +0.000 HD
ENDBRANCH   4   7
BRANCH   1  13
ATOM     12  C   UNL     1      43.471   4.333  12.267  0.00  0.00    +0.000 C 
ATOM     13  C   UNL     1      44.298   5.148  11.262  0.00  0.00    +0.000 C 
BRANCH  13  14
ATOM     14  C   UNL     1      45.054   4.233  10.251  0.00  0.00    +0.000 C 
ATOM     15  C   UNL     1      45.498   4.957   8.966  0.00  0.00    +0.000 C 
ATOM     16  C   UNL     1      46.215   4.019   7.995  0.00  0.00    +0.000 C 
ATOM     17  C   UNL     1      45.364   2.798   7.667  0.00  0.00    +0.000 C 
ATOM     18  C   UNL     1      44.983   2.046   8.936  0.00  0.00    +0.000 C 
ATOM     19  C   UNL     1      44.252   2.957   9.919  0.00  0.00    +0.000 C 
ENDBRANCH  13  14
ENDBRANCH   1  13
TORSDOF 3
ENDMDL
MODEL 7
REMARK VINA RESULT:    -5.741      3.133      4.488
REMARK INTER + INTRA:          -7.126
REMARK INTER:                  -6.748
REMARK INTRA:                  -0.377
REMARK UNBOUND:                -0.378
REMARK  Name = 
REMARK  4 active torsions:
REMARK  status: ('A' for Active; 'I' for Inactive)
REMARK    1  A    between atoms: C_1  and  C_2
REMARK    2  A    between atoms: C_2  and  C_3
REMARK    3  A    between atoms: C_2  and  C_12
REMARK    4  A    between atoms: C_6  and  C_7
REMARK                            x       y       z     vdW  Elec       q    Type
REMARK                         _______ _______ _______ _____ _____    ______ ____
ROOT
ATOM      1  C   UNL     1      45.662   6.580  12.238  0.00  0.00    +0.000 A 
ATOM      2  N   UNL     1      45.472   5.633  13.179  0.00  0.00    +0.000 NA
ATOM      3  C   UNL     1      44.939   4.459  12.765  0.00  0.00    +0.000 A 
ATOM      4  C   UNL     1      44.556   4.213  11.466  0.00  0.00    +0.000 A 
ATOM      5  C   UNL     1      44.789   5.241  10.582  0.00  0.00    +0.000 A 
ATOM      6  N   UNL     1      45.337   6.424  10.936  0.00  0.00    +0.000 NA
ENDROOT
BRANCH   4   7
ATOM      7  C   UNL     1      43.981   2.915  11.090  0.00  0.00    +0.000 C 
ATOM      8  N   UNL     1      44.547   2.243  10.041  0.00  0.00    +0.000 N 
ATOM      9  O   UNL     1      43.007   2.461  11.678  0.00  0.00    +0.000 OA
ATOM     10  H   UNL     1      45.182   2.667   9.380  0.00  0.00    +0.000 HD
ATOM     11  H   UNL     1      44.072   1.396   9.746  0.00  0.00    +0.000 HD
ENDBRANCH   4   7
BRANCH   1  13
ATOM     12  C   UNL     1      45.253   9.048  12.545  0.00  0.00    +0.000 C 
ATOM     13  C   UNL     1      46.278   7.909  12.645  0.00  0.00    +0.000 C 
BRANCH  13  14
ATOM     14  C   UNL     1      47.606   8.253  11.904  0.00  0.00    +0.000 C 
ATOM     15  C   UNL     1      48.768   7.293  12.227  0.00  0.00    +0.000 C 
ATOM     16  C   UNL     1      50.054   7.679  11.497  0.00  0.00    +0.000 C 
ATOM     17  C   UNL     1      50.445   9.124  11.781  0.00  0.00    +0.000 C 
ATOM     18  C   UNL     1      49.319  10.076  11.397  0.00  0.00    +0.000 C 
ATOM     19  C   UNL     1      48.024   9.721  12.124  0.00  0.00    +0.000 C 
ENDBRANCH  13  14
ENDBRANCH   1  13
TORSDOF 3
ENDMDL
MODEL 8
REMARK VINA RESULT:    -5.234      4.076      5.478
REMARK INTER + INTRA:          -6.530
REMARK INTER:                  -6.178
REMARK INTRA:                  -0.352
REMARK UNBOUND:                -0.378
REMARK  Name = 
REMARK  4 active torsions:
REMARK  status: ('A' for Active; 'I' for Inactive)
REMARK    1  A    between atoms: C_1  and  C_2
REMARK    2  A    between atoms: C_2  and  C_3
REMARK    3  A    between atoms: C_2  and  C_12
REMARK    4  A    between atoms: C_6  and  C_7
REMARK                            x       y       z     vdW  Elec       q    Type
REMARK                         _______ _______ _______ _____ _____    ______ ____
ROOT
ATOM      1  C   UNL     1      47.385   6.320  12.551  0.00  0.00    +0.000 A 
ATOM      2  N   UNL     1      46.545   6.252  11.497  0.00  0.00    +0.000 NA
ATOM      3  C   UNL     1      45.419   5.518  11.660  0.00  0.00    +0.000 A 
ATOM      4  C   UNL     1      45.122   4.824  12.811  0.00  0.00    +0.000 A 
ATOM      5  C   UNL     1      46.040   4.955  13.826  0.00  0.00    +0.000 A 
ATOM      6  N   UNL     1      47.169   5.691  13.726  0.00  0.00    +0.000 NA
ENDROOT
BRANCH   4   7
ATOM      7  C   UNL     1      43.881   4.046  12.914  0.00  0.00    +0.000 C 
ATOM      8  N   UNL     1      43.922   2.725  12.559  0.00  0.00    +0.000 N 
ATOM      9  O   UNL     1      42.835   4.568  13.277  0.00  0.00    +0.000 OA
ATOM     10  H   UNL     1      44.678   2.308  12.036  0.00  0.00    +0.000 HD
ATOM     11  H   UNL     1      43.033   2.238  12.552  0.00  0.00    +0.000 HD
ENDBRANCH   4   7
BRANCH   1  13
ATOM     12  C   UNL     1      49.377   7.255  13.779  0.00  0.00    +0.000 C 
ATOM     13  C   UNL     1      48.653   7.148  12.429  0.00  0.00    +0.000 C 
BRANCH  13  14
ATOM     14  C   UNL     1      48.445   8.544  11.767  0.00  0.00    +0.000 C 
ATOM     15  C   UNL     1      49.752   9.325  11.533  0.00  0.00    +0.000 C 
ATOM     16  C   UNL     1      49.500  10.695  10.902  0.00  0.00    +0.000 C 
ATOM     17  C   UNL     1      48.515  11.515  11.725  0.00  0.00    +0.000 C 
ATOM     18  C   UNL     1      47.198  10.768  11.897  0.00  0.00    +0.000 C 
ATOM     19  C   UNL     1      47.419   9.400  12.538  0.00  0.00    +0.000 C 
ENDBRANCH  13  14
ENDBRANCH   1  13
TORSDOF 3
ENDMDL
MODEL 9
REMARK VINA RESULT:    -4.803      4.474      5.975
REMARK INTER + INTRA:          -6.023
REMARK INTER:                  -5.617
REMARK INTRA:                  -0.406
REMARK UNBOUND:                -0.378
REMARK  Name = 
REMARK  4 active torsions:
REMARK  status: ('A' for Active; 'I' for Inactive)
REMARK    1  A    between atoms: C_1  and  C_2
REMARK    2  A    between atoms: C_2  and  C_3
REMARK    3  A    between atoms: C_2  and  C_12
REMARK    4  A    between atoms: C_6  and  C_7
REMARK                            x       y       z     vdW  Elec       q    Type
REMARK                         _______ _______ _______ _____ _____    ______ ____
ROOT
ATOM      1  C   UNL     1      46.943   7.274  13.182  0.00  0.00    +0.000 A 
ATOM      2  N   UNL     1      45.678   7.509  12.777  0.00  0.00    +0.000 NA
ATOM      3  C   UNL     1      44.846   6.443  12.721  0.00  0.00    +0.000 A 
ATOM      4  C   UNL     1      45.237   5.156  13.014  0.00  0.00    +0.000 A 
ATOM      5  C   UNL     1      46.545   5.019  13.415  0.00  0.00    +0.000 A 
ATOM      6  N   UNL     1      47.413   6.050  13.509  0.00  0.00    +0.000 NA
ENDROOT
BRANCH   4   7
ATOM      7  C   UNL     1      44.278   4.046  12.928  0.00  0.00    +0.000 C 
ATOM      8  N   UNL     1      44.749   2.823  12.537  0.00  0.00    +0.000 N 
ATOM      9  O   UNL     1      43.090   4.217  13.169  0.00  0.00    +0.000 OA
ATOM     10  H   UNL     1      45.649   2.680  12.102  0.00  0.00    +0.000 HD
ATOM     11  H   UNL     1      44.050   2.100  12.397  0.00  0.00    +0.000 HD
ENDBRANCH   4   7
BRANCH   1  13
ATOM     12  C   UNL     1      47.406   9.652  12.488  0.00  0.00    +0.000 C 
ATOM     13  C   UNL     1      47.912   8.440  13.284  0.00  0.00    +0.000 C 
BRANCH  13  14
ATOM     14  C   UNL     1      49.386   8.081  12.925  0.00  0.00    +0.000 C 
ATOM     15  C   UNL     1      50.434   8.951  13.646  0.00  0.00    +0.000 C 
ATOM     16  C   UNL     1      51.862   8.579  13.249  0.00  0.00    +0.000 C 
ATOM     17  C   UNL     1      52.054   8.633  11.738  0.00  0.00    +0.000 C 
ATOM     18  C   UNL     1      51.061   7.719  11.032  0.00  0.00    +0.000 C 
ATOM     19  C   UNL     1      49.623   8.078  11.400  0.00  0.00    +0.000 C 
ENDBRANCH  13  14
ENDBRANCH   1  13
TORSDOF 3
ENDMDL
