MODEL 1
REMARK VINA RESULT:    -8.126      0.000      0.000
REMARK INTER + INTRA:         -10.927
REMARK INTER:                 -10.501
REMARK INTRA:                  -0.427
REMARK UNBOUND:                -0.427
REMARK  Name = 
REMARK  5 active torsions:
REMARK  status: ('A' for Active; 'I' for Inactive)
REMARK    1  A    between atoms: C_2  and  C_5
REMARK    2  A    between atoms: C_9  and  N_10
REMARK    3  A    between atoms: N_10  and  C_11
REMARK    4  A    between atoms: C_11  and  C_12
REMARK    5  A    between atoms: C_16  and  N_17
REMARK                            x       y       z     vdW  Elec       q    Type
REMARK                         _______ _______ _______ _____ _____    ______ ____
ROOT
ATOM      1  C   UNL     1      43.673   3.184  11.868  0.00  0.00    +0.000 C 
ENDROOT
BRANCH   1   2
ATOM      2  C   UNL     1      44.867   3.948  12.419  0.00  0.00    +0.000 A 
ATOM      3  N   UNL     1      45.721   3.276  13.212  0.00  0.00    +0.000 NA
ATOM      4  C   UNL     1      46.811   3.952  13.593  0.00  0.00    +0.000 A 
ATOM      5  C   UNL     1      47.065   5.254  13.228  0.00  0.00    +0.000 A 
ATOM      6  C   UNL     1      46.133   5.898  12.431  0.00  0.00    +0.000 A 
ATOM      7  N   UNL     1      45.035   5.230  12.025  0.00  0.00    +0.000 NA
BRANCH   6   8
ATOM      8  N   UNL     1      46.338   7.188  11.978  0.00  0.00    +0.000 N 
ATOM      9  C   UNL     1      47.602   7.907  12.187  0.00  0.00    +0.000 C 
ATOM     10  C   UNL     1      47.407   9.136  13.105  0.00  0.00    +0.000 C 
ATOM     11  N   UNL     1      46.322  10.038  12.671  0.00  0.00    +0.000 NA
ATOM     12  C   UNL     1      45.074   9.249  12.590  0.00  0.00    +0.000 C 
ATOM     13  C   UNL     1      45.178   8.032  11.646  0.00  0.00    +0.000 C 
ATOM     14  H   UNL     1      46.543  10.375  11.733  0.00  0.00    +0.000 HD
ENDBRANCH   6   8
ENDBRANCH   1   2
BRANCH   1  15
ATOM     15  N   UNL     1      44.001   2.313  10.752  0.00  0.00    +0.000 N 
ATOM     16  H   UNL     1      43.846   1.317  10.842  0.00  0.00    +0.000 HD
BRANCH  15  21
ATOM     17  C   UNL     1      46.160   2.134   7.943  0.00  0.00    +0.000 A 
ATOM     18  N   UNL     1      46.069   3.348   7.349  0.00  0.00    +0.000 NA
ATOM     19  C   UNL     1      45.254   4.238   7.933  0.00  0.00    +0.000 A 
ATOM     20  C   UNL     1      44.531   3.970   9.070  0.00  0.00    +0.000 A 
ATOM     21  C   UNL     1      44.672   2.717   9.628  0.00  0.00    +0.000 A 
ATOM     22  N   UNL     1      45.483   1.801   9.074  0.00  0.00    +0.000 NA
BRANCH  17  24
ATOM     23  F   UNL     1      47.051  -0.132   7.944  0.00  0.00    +0.000 F 
ATOM     24  C   UNL     1      47.069   1.078   7.303  0.00  0.00    +0.000 C 
ATOM     25  F   UNL     1      48.387   1.446   7.277  0.00  0.00    +0.000 F 
ATOM     26  F   UNL     1      46.740   0.798   6.005  0.00  0.00    +0.000 F 
ENDBRANCH  17  24
ENDBRANCH  15  21
ENDBRANCH   1  15
TORSDOF 5
ENDMDL
MODEL 2
REMARK VINA RESULT:    -7.606      2.010      3.375
REMARK INTER + INTRA:         -10.256
REMARK INTER:                  -9.544
REMARK INTRA:                  -0.712
REMARK UNBOUND:                -0.427
REMARK  Name = 
REMARK  5 active torsions:
REMARK  status: ('A' for Active; 'I' for Inactive)
REMARK    1  A    between atoms: C_2  and  C_5
REMARK    2  A    between atoms: C_9  and  N_10
REMARK    3  A    between atoms: N_10  and  C_11
REMARK    4  A    between atoms: C_11  and  C_12
REMARK    5  A    between atoms: C_16  and  N_17
REMARK                            x       y       z     vdW  Elec       q    Type
REMARK                         _______ _______ _______ _____ _____    ______ ____
ROOT
ATOM      1  C   UNL     1      43.441   5.121  10.735  0.00  0.00    +0.000 C 
ENDROOT
BRANCH   1   2
ATOM      2  C   UNL     1      44.483   5.988  11.423  0.00  0.00    +0.000 A 
ATOM      3  N   UNL     1      44.313   7.321  11.372  0.00  0.00    +0.000 NA
ATOM      4  C   UNL     1      45.191   8.045  12.076  0.00  0.00    +0.000 A 
ATOM      5  C   UNL     1      46.223   7.494  12.801  0.00  0.00    +0.000 A 
ATOM      6  C   UNL     1      46.359   6.116  12.789  0.00  0.00    +0.000 A 
ATOM      7  N   UNL     1      45.476   5.368  12.100  0.00  0.00    +0.000 NA
BRANCH   6   8
ATOM      8  N   UNL     1      47.337   5.481  13.533  0.00  0.00    +0.000 N 
ATOM      9  C   UNL     1      47.143   4.148  14.121  0.00  0.00    +0.000 C 
ATOM     10  C   UNL     1      47.160   4.205  15.666  0.00  0.00    +0.000 C 
ATOM     11  N   UNL     1      48.344   4.889  16.224  0.00  0.00    +0.000 NA
ATOM     12  C   UNL     1      48.396   6.253  15.655  0.00  0.00    +0.000 C 
ATOM     13  C   UNL     1      48.436   6.273  14.112  0.00  0.00    +0.000 C 
ATOM     14  H   UNL     1      49.177   4.387  15.916  0.00  0.00    +0.000 HD
ENDBRANCH   6   8
ENDBRANCH   1   2
BRANCH   1  15
ATOM     15  N   UNL     1      43.751   4.824   9.346  0.00  0.00    +0.000 N 
ATOM     16  H   UNL     1      43.310   5.368   8.615  0.00  0.00    +0.000 HD
BRANCH  15  21
ATOM     17  C   UNL     1      45.999   2.896   7.394  0.00  0.00    +0.000 A 
ATOM     18  N   UNL     1      46.025   1.678   7.985  0.00  0.00    +0.000 NA
ATOM     19  C   UNL     1      45.250   1.523   9.068  0.00  0.00    +0.000 A 
ATOM     20  C   UNL     1      44.462   2.524   9.584  0.00  0.00    +0.000 A 
ATOM     21  C   UNL     1      44.478   3.739   8.932  0.00  0.00    +0.000 A 
ATOM     22  N   UNL     1      45.237   3.930   7.842  0.00  0.00    +0.000 NA
BRANCH  17  24
ATOM     23  F   UNL     1      48.167   2.680   6.307  0.00  0.00    +0.000 F 
ATOM     24  C   UNL     1      46.880   3.124   6.160  0.00  0.00    +0.000 C 
ATOM     25  F   UNL     1      46.997   4.444   5.818  0.00  0.00    +0.000 F 
ATOM     26  F   UNL     1      46.412   2.494   5.040  0.00  0.00    +0.000 F 
ENDBRANCH  17  24
ENDBRANCH  15  21
ENDBRANCH   1  15
TORSDOF 5
ENDMDL
MODEL 3
REMARK VINA RESULT:    -7.439      1.793      2.595
REMARK INTER + INTRA:         -10.039
REMARK INTER:                  -9.342
REMARK INTRA:                  -0.697
REMARK UNBOUND:                -0.427
REMARK  Name = 
REMARK  5 active torsions:
REMARK  status: ('A' for Active; 'I' for Inactive)
REMARK    1  A    between atoms: C_2  and  C_5
REMARK    2  A    between atoms: C_9  and  N_10
REMARK    3  A    between atoms: N_10  and  C_11
REMARK    4  A    between atoms: C_11  and  C_12
REMARK    5  A    between atoms: C_16  and  N_17
REMARK                            x       y       z     vdW  Elec       q    Type
REMARK                         _______ _______ _______ _____ _____    ______ ____
ROOT
ATOM      1  C   UNL     1      44.575   5.946  11.005  0.00  0.00    +0.000 C 
ENDROOT
BRANCH   1   2
ATOM      2  C   UNL     1      45.606   5.837  12.117  0.00  0.00    +0.000 A 
ATOM      3  N   UNL     1      45.357   4.966  13.111  0.00  0.00    +0.000 NA
ATOM      4  C   UNL     1      46.333   4.823  14.015  0.00  0.00    +0.000 A 
ATOM      5  C   UNL     1      47.520   5.518  13.968  0.00  0.00    +0.000 A 
ATOM      6  C   UNL     1      47.703   6.420  12.934  0.00  0.00    +0.000 A 
ATOM      7  N   UNL     1      46.738   6.568  12.005  0.00  0.00    +0.000 NA
BRANCH   6   8
ATOM      8  N   UNL     1      48.887   7.120  12.787  0.00  0.00    +0.000 N 
ATOM      9  C   UNL     1      49.751   7.460  13.926  0.00  0.00    +0.000 C 
ATOM     10  C   UNL     1      49.828   8.989  14.139  0.00  0.00    +0.000 C 
ATOM     11  N   UNL     1      50.193   9.742  12.923  0.00  0.00    +0.000 NA
ATOM     12  C   UNL     1      49.209   9.416  11.868  0.00  0.00    +0.000 C 
ATOM     13  C   UNL     1      49.117   7.905  11.563  0.00  0.00    +0.000 C 
ATOM     14  H   UNL     1      51.109   9.420  12.610  0.00  0.00    +0.000 HD
ENDBRANCH   6   8
ENDBRANCH   1   2
BRANCH   1  15
ATOM     15  N   UNL     1      45.077   5.548   9.701  0.00  0.00    +0.000 N 
ATOM     16  H   UNL     1      45.259   6.260   9.004  0.00  0.00    +0.000 HD
BRANCH  15  21
ATOM     17  C   UNL     1      46.135   2.766   7.770  0.00  0.00    +0.000 A 
ATOM     18  N   UNL     1      45.490   1.701   8.304  0.00  0.00    +0.000 NA
ATOM     19  C   UNL     1      44.678   1.952   9.339  0.00  0.00    +0.000 A 
ATOM     20  C   UNL     1      44.485   3.207   9.863  0.00  0.00    +0.000 A 
ATOM     21  C   UNL     1      45.167   4.250   9.271  0.00  0.00    +0.000 A 
ATOM     22  N   UNL     1      45.986   4.038   8.229  0.00  0.00    +0.000 NA
BRANCH  17  24
ATOM     23  F   UNL     1      46.780   3.254   5.474  0.00  0.00    +0.000 F 
ATOM     24  C   UNL     1      47.086   2.526   6.592  0.00  0.00    +0.000 C 
ATOM     25  F   UNL     1      47.106   1.223   6.173  0.00  0.00    +0.000 F 
ATOM     26  F   UNL     1      48.387   2.840   6.877  0.00  0.00    +0.000 F 
ENDBRANCH  17  24
ENDBRANCH  15  21
ENDBRANCH   1  15
TORSDOF 5
ENDMDL
MODEL 4
REMARK VINA RESULT:    -7.382      4.764      7.951
REMARK INTER + INTRA:          -9.967
REMARK INTER:                  -9.481
REMARK INTRA:                  -0.486
REMARK UNBOUND:                -0.427
REMARK  Name = 
REMARK  5 active torsions:
REMARK  status: ('A' for Active; 'I' for Inactive)
REMARK    1  A    between atoms: C_2  and  C_5
REMARK    2  A    between atoms: C_9  and  N_10
REMARK    3  A    between atoms: N_10  and  C_11
REMARK    4  A    between atoms: C_11  and  C_12
REMARK    5  A    between atoms: C_16  and  N_17
REMARK                            x       y       z     vdW  Elec       q    Type
REMARK                         _______ _______ _______ _____ _____    ______ ____
ROOT
ATOM      1  C   UNL     1      46.742   4.078  13.651  0.00  0.00    +0.000 C 
ENDROOT
BRANCH   1   2
ATOM      2  C   UNL     1      45.444   3.971  12.867  0.00  0.00    +0.000 A 
ATOM      3  N   UNL     1      44.314   4.369  13.479  0.00  0.00    +0.000 NA
ATOM      4  C   UNL     1      43.210   4.357  12.723  0.00  0.00    +0.000 A 
ATOM      5  C   UNL     1      43.194   3.955  11.407  0.00  0.00    +0.000 A 
ATOM      6  C   UNL     1      44.386   3.531  10.844  0.00  0.00    +0.000 A 
ATOM      7  N   UNL     1      45.512   3.549  11.584  0.00  0.00    +0.000 NA
BRANCH   6   8
ATOM      8  N   UNL     1      44.465   3.161   9.514  0.00  0.00    +0.000 N 
ATOM      9  C   UNL     1      44.674   1.768   9.092  0.00  0.00    +0.000 C 
ATOM     10  C   UNL     1      46.031   1.596   8.371  0.00  0.00    +0.000 C 
ATOM     11  N   UNL     1      46.243   2.548   7.263  0.00  0.00    +0.000 NA
ATOM     12  C   UNL     1      46.115   3.918   7.804  0.00  0.00    +0.000 C 
ATOM     13  C   UNL     1      44.759   4.181   8.494  0.00  0.00    +0.000 C 
ATOM     14  H   UNL     1      45.500   2.409   6.577  0.00  0.00    +0.000 HD
ENDBRANCH   6   8
ENDBRANCH   1   2
BRANCH   1  15
ATOM     15  N   UNL     1      46.564   4.545  15.016  0.00  0.00    +0.000 N 
ATOM     16  H   UNL     1      45.834   5.218  15.215  0.00  0.00    +0.000 HD
BRANCH  15  21
ATOM     17  C   UNL     1      49.448   4.777  17.067  0.00  0.00    +0.000 A 
ATOM     18  N   UNL     1      49.251   3.874  18.057  0.00  0.00    +0.000 NA
ATOM     19  C   UNL     1      48.109   3.174  18.008  0.00  0.00    +0.000 A 
ATOM     20  C   UNL     1      47.162   3.339  17.026  0.00  0.00    +0.000 A 
ATOM     21  C   UNL     1      47.426   4.271  16.044  0.00  0.00    +0.000 A 
ATOM     22  N   UNL     1      48.561   4.987  16.057  0.00  0.00    +0.000 NA
BRANCH  17  24
ATOM     23  F   UNL     1      50.870   6.451  16.016  0.00  0.00    +0.000 F 
ATOM     24  C   UNL     1      50.735   5.611  17.089  0.00  0.00    +0.000 C 
ATOM     25  F   UNL     1      51.871   4.849  17.088  0.00  0.00    +0.000 F 
ATOM     26  F   UNL     1      50.835   6.419  18.188  0.00  0.00    +0.000 F 
ENDBRANCH  17  24
ENDBRANCH  15  21
ENDBRANCH   1  15
TORSDOF 5
ENDMDL
MODEL 5
REMARK VINA RESULT:    -7.241      4.245      5.406
REMARK INTER + INTRA:          -9.784
REMARK INTER:                  -9.281
REMARK INTRA:                  -0.504
REMARK UNBOUND:                -0.427
REMARK  Name = 
REMARK  5 active torsions:
REMARK  status: ('A' for Active; 'I' for Inactive)
REMARK    1  A    between atoms: C_2  and  C_5
REMARK    2  A    between atoms: C_9  and  N_10
REMARK    3  A    between atoms: N_10  and  C_11
REMARK    4  A    between atoms: C_11  and  C_12
REMARK    5  A    between atoms: C_16  and  N_17
REMARK                            x       y       z     vdW  Elec       q    Type
REMARK                         _______ _______ _______ _____ _____    ______ ____
ROOT
ATOM      1  C   UNL     1      46.796   4.689  14.063  0.00  0.00    +0.000 C 
ENDROOT
BRANCH   1   2
ATOM      2  C   UNL     1      47.459   4.162  15.325  0.00  0.00    +0.000 A 
ATOM      3  N   UNL     1      47.822   2.866  15.341  0.00  0.00    +0.000 NA
ATOM      4  C   UNL     1      48.494   2.466  16.426  0.00  0.00    +0.000 A 
ATOM      5  C   UNL     1      48.795   3.294  17.483  0.00  0.00    +0.000 A 
ATOM      6  C   UNL     1      48.369   4.610  17.417  0.00  0.00    +0.000 A 
ATOM      7  N   UNL     1      47.704   5.037  16.326  0.00  0.00    +0.000 NA
BRANCH   6   8
ATOM      8  N   UNL     1      48.675   5.519  18.413  0.00  0.00    +0.000 N 
ATOM      9  C   UNL     1      48.642   5.169  19.840  0.00  0.00    +0.000 C 
ATOM     10  C   UNL     1      47.546   5.961  20.589  0.00  0.00    +0.000 C 
ATOM     11  N   UNL     1      47.615   7.421  20.378  0.00  0.00    +0.000 NA
ATOM     12  C   UNL     1      47.537   7.679  18.924  0.00  0.00    +0.000 C 
ATOM     13  C   UNL     1      48.639   6.961  18.114  0.00  0.00    +0.000 C 
ATOM     14  H   UNL     1      48.524   7.748  20.708  0.00  0.00    +0.000 HD
ENDBRANCH   6   8
ENDBRANCH   1   2
BRANCH   1  15
ATOM     15  N   UNL     1      45.378   4.380  13.974  0.00  0.00    +0.000 N 
ATOM     16  H   UNL     1      44.948   3.824  14.702  0.00  0.00    +0.000 HD
BRANCH  15  21
ATOM     17  C   UNL     1      44.432   4.608  10.563  0.00  0.00    +0.000 A 
ATOM     18  N   UNL     1      43.163   5.079  10.579  0.00  0.00    +0.000 NA
ATOM     19  C   UNL     1      42.633   5.325  11.785  0.00  0.00    +0.000 A 
ATOM     20  C   UNL     1      43.308   5.119  12.964  0.00  0.00    +0.000 A 
ATOM     21  C   UNL     1      44.599   4.643  12.879  0.00  0.00    +0.000 A 
ATOM     22  N   UNL     1      45.165   4.389  11.688  0.00  0.00    +0.000 NA
BRANCH  17  24
ATOM     23  F   UNL     1      44.195   4.310   8.158  0.00  0.00    +0.000 F 
ATOM     24  C   UNL     1      45.076   4.299   9.206  0.00  0.00    +0.000 C 
ATOM     25  F   UNL     1      45.668   3.066   9.159  0.00  0.00    +0.000 F 
ATOM     26  F   UNL     1      46.054   5.190   8.857  0.00  0.00    +0.000 F 
ENDBRANCH  17  24
ENDBRANCH  15  21
ENDBRANCH   1  15
TORSDOF 5
ENDMDL
MODEL 6
REMARK VINA RESULT:    -7.192      4.173      7.456
REMARK INTER + INTRA:          -9.720
REMARK INTER:                  -8.949
REMARK INTRA:                  -0.771
REMARK UNBOUND:                -0.427
REMARK  Name = 
REMARK  5 active torsions:
REMARK  status: ('A' for Active; 'I' for Inactive)
REMARK    1  A    between atoms: C_2  and  C_5
REMARK    2  A    between atoms: C_9  and  N_10
REMARK    3  A    between atoms: N_10  and  C_11
REMARK    4  A    between atoms: C_11  and  C_12
REMARK    5  A    between atoms: C_16  and  N_17
REMARK                            x       y       z     vdW  Elec       q    Type
REMARK                         _______ _______ _______ _____ _____    ______ ____
ROOT
ATOM      1  C   UNL     1      48.299   6.418  12.893  0.00  0.00    +0.000 C 
ENDROOT
BRANCH   1   2
ATOM      2  C   UNL     1      46.897   6.779  12.431  0.00  0.00    +0.000 A 
ATOM      3  N   UNL     1      46.542   8.076  12.478  0.00  0.00    +0.000 NA
ATOM      4  C   UNL     1      45.340   8.367  11.967  0.00  0.00    +0.000 A 
ATOM      5  C   UNL     1      44.491   7.423  11.435  0.00  0.00    +0.000 A 
ATOM      6  C   UNL     1      44.905   6.102  11.441  0.00  0.00    +0.000 A 
ATOM      7  N   UNL     1      46.118   5.789  11.938  0.00  0.00    +0.000 NA
BRANCH   6   8
ATOM      8  N   UNL     1      44.134   5.101  10.879  0.00  0.00    +0.000 N 
ATOM      9  C   UNL     1      43.059   4.423  11.617  0.00  0.00    +0.000 C 
ATOM     10  C   UNL     1      43.380   2.925  11.832  0.00  0.00    +0.000 C 
ATOM     11  N   UNL     1      43.738   2.209  10.591  0.00  0.00    +0.000 NA
ATOM     12  C   UNL     1      44.891   2.902   9.977  0.00  0.00    +0.000 C 
ATOM     13  C   UNL     1      44.623   4.394   9.683  0.00  0.00    +0.000 C 
ATOM     14  H   UNL     1      42.951   2.275   9.946  0.00  0.00    +0.000 HD
ENDBRANCH   6   8
ENDBRANCH   1   2
BRANCH   1  15
ATOM     15  N   UNL     1      48.724   7.133  14.085  0.00  0.00    +0.000 N 
ATOM     16  H   UNL     1      49.220   8.010  13.983  0.00  0.00    +0.000 HD
BRANCH  15  21
ATOM     17  C   UNL     1      48.297   4.753  16.679  0.00  0.00    +0.000 A 
ATOM     18  N   UNL     1      48.512   5.439  17.827  0.00  0.00    +0.000 NA
ATOM     19  C   UNL     1      48.803   6.741  17.699  0.00  0.00    +0.000 A 
ATOM     20  C   UNL     1      48.891   7.380  16.486  0.00  0.00    +0.000 A 
ATOM     21  C   UNL     1      48.656   6.626  15.356  0.00  0.00    +0.000 A 
ATOM     22  N   UNL     1      48.357   5.321  15.445  0.00  0.00    +0.000 NA
BRANCH  17  24
ATOM     23  F   UNL     1      46.809   2.981  17.438  0.00  0.00    +0.000 F 
ATOM     24  C   UNL     1      47.975   3.256  16.776  0.00  0.00    +0.000 C 
ATOM     25  F   UNL     1      48.935   2.540  17.437  0.00  0.00    +0.000 F 
ATOM     26  F   UNL     1      47.842   2.654  15.555  0.00  0.00    +0.000 F 
ENDBRANCH  17  24
ENDBRANCH  15  21
ENDBRANCH   1  15
TORSDOF 5
ENDMDL
MODEL 7
REMARK VINA RESULT:    -7.172      3.260      5.181
REMARK INTER + INTRA:          -9.694
REMARK INTER:                  -9.082
REMARK INTRA:                  -0.612
REMARK UNBOUND:                -0.427
REMARK  Name = 
REMARK  5 active torsions:
REMARK  status: ('A' for Active; 'I' for Inactive)
REMARK    1  A    between atoms: C_2  and  C_5
REMARK    2  A    between atoms: C_9  and  N_10
REMARK    3  A    between atoms: N_10  and  C_11
REMARK    4  A    between atoms: C_11  and  C_12
REMARK    5  A    between atoms: C_16  and  N_17
REMARK                            x       y       z     vdW  Elec       q    Type
REMARK                         _______ _______ _______ _____ _____    ______ ____
ROOT
ATOM      1  C   UNL     1      47.015   6.234  12.364  0.00  0.00    +0.000 C 
ENDROOT
BRANCH   1   2
ATOM      2  C   UNL     1      47.826   6.265  13.649  0.00  0.00    +0.000 A 
ATOM      3  N   UNL     1      48.795   7.193  13.749  0.00  0.00    +0.000 NA
ATOM      4  C   UNL     1      49.417   7.257  14.932  0.00  0.00    +0.000 A 
ATOM      5  C   UNL     1      49.120   6.432  15.993  0.00  0.00    +0.000 A 
ATOM      6  C   UNL     1      48.130   5.479  15.816  0.00  0.00    +0.000 A 
ATOM      7  N   UNL     1      47.482   5.408  14.637  0.00  0.00    +0.000 NA
BRANCH   6   8
ATOM      8  N   UNL     1      47.737   4.647  16.848  0.00  0.00    +0.000 N 
ATOM      9  C   UNL     1      47.396   5.152  18.185  0.00  0.00    +0.000 C 
ATOM     10  C   UNL     1      48.395   4.644  19.251  0.00  0.00    +0.000 C 
ATOM     11  N   UNL     1      48.581   3.179  19.243  0.00  0.00    +0.000 NA
ATOM     12  C   UNL     1      49.022   2.779  17.889  0.00  0.00    +0.000 C 
ATOM     13  C   UNL     1      48.042   3.208  16.774  0.00  0.00    +0.000 C 
ATOM     14  H   UNL     1      47.676   2.741  19.422  0.00  0.00    +0.000 HD
ENDBRANCH   6   8
ENDBRANCH   1   2
BRANCH   1  15
ATOM     15  N   UNL     1      45.612   5.910  12.566  0.00  0.00    +0.000 N 
ATOM     16  H   UNL     1      45.106   6.360  13.319  0.00  0.00    +0.000 HD
BRANCH  15  21
ATOM     17  C   UNL     1      44.775   3.634   9.978  0.00  0.00    +0.000 A 
ATOM     18  N   UNL     1      43.758   2.892  10.475  0.00  0.00    +0.000 NA
ATOM     19  C   UNL     1      43.355   3.188  11.719  0.00  0.00    +0.000 A 
ATOM     20  C   UNL     1      43.922   4.181  12.481  0.00  0.00    +0.000 A 
ATOM     21  C   UNL     1      44.951   4.904  11.914  0.00  0.00    +0.000 A 
ATOM     22  N   UNL     1      45.378   4.638  10.669  0.00  0.00    +0.000 NA
BRANCH  17  24
ATOM     23  F   UNL     1      44.295   3.319   7.612  0.00  0.00    +0.000 F 
ATOM     24  C   UNL     1      45.279   3.321   8.564  0.00  0.00    +0.000 C 
ATOM     25  F   UNL     1      45.873   2.092   8.462  0.00  0.00    +0.000 F 
ATOM     26  F   UNL     1      46.210   4.217   8.113  0.00  0.00    +0.000 F 
ENDBRANCH  17  24
ENDBRANCH  15  21
ENDBRANCH   1  15
TORSDOF 5
ENDMDL
MODEL 8
REMARK VINA RESULT:    -6.999      4.346      5.516
REMARK INTER + INTRA:          -9.471
REMARK INTER:                  -8.987
REMARK INTRA:                  -0.484
REMARK UNBOUND:                -0.427
REMARK  Name = 
REMARK  5 active torsions:
REMARK  status: ('A' for Active; 'I' for Inactive)
REMARK    1  A    between atoms: C_2  and  C_5
REMARK    2  A    between atoms: C_9  and  N_10
REMARK    3  A    between atoms: N_10  and  C_11
REMARK    4  A    between atoms: C_11  and  C_12
REMARK    5  A    between atoms: C_16  and  N_17
REMARK                            x       y       z     vdW  Elec       q    Type
REMARK                         _______ _______ _______ _____ _____    ______ ____
ROOT
ATOM      1  C   UNL     1      46.828   4.545  13.980  0.00  0.00    +0.000 C 
ENDROOT
BRANCH   1   2
ATOM      2  C   UNL     1      47.354   4.541  15.407  0.00  0.00    +0.000 A 
ATOM      3  N   UNL     1      46.871   3.606  16.244  0.00  0.00    +0.000 NA
ATOM      4  C   UNL     1      47.433   3.569  17.458  0.00  0.00    +0.000 A 
ATOM      5  C   UNL     1      48.429   4.428  17.861  0.00  0.00    +0.000 A 
ATOM      6  C   UNL     1      48.863   5.386  16.960  0.00  0.00    +0.000 A 
ATOM      7  N   UNL     1      48.321   5.431  15.727  0.00  0.00    +0.000 NA
BRANCH   6   8
ATOM      8  N   UNL     1      49.895   6.253  17.269  0.00  0.00    +0.000 N 
ATOM      9  C   UNL     1      50.944   6.609  16.303  0.00  0.00    +0.000 C 
ATOM     10  C   UNL     1      52.330   6.098  16.762  0.00  0.00    +0.000 C 
ATOM     11  N   UNL     1      52.686   6.497  18.138  0.00  0.00    +0.000 NA
ATOM     12  C   UNL     1      51.627   6.007  19.047  0.00  0.00    +0.000 C 
ATOM     13  C   UNL     1      50.218   6.521  18.680  0.00  0.00    +0.000 C 
ATOM     14  H   UNL     1      52.693   7.517  18.184  0.00  0.00    +0.000 HD
ENDBRANCH   6   8
ENDBRANCH   1   2
BRANCH   1  15
ATOM     15  N   UNL     1      45.662   5.391  13.789  0.00  0.00    +0.000 N 
ATOM     16  H   UNL     1      45.399   6.041  14.520  0.00  0.00    +0.000 HD
BRANCH  15  21
ATOM     17  C   UNL     1      44.475   4.738  10.511  0.00  0.00    +0.000 A 
ATOM     18  N   UNL     1      43.135   4.923  10.578  0.00  0.00    +0.000 NA
ATOM     19  C   UNL     1      42.640   5.282  11.770  0.00  0.00    +0.000 A 
ATOM     20  C   UNL     1      43.417   5.460  12.889  0.00  0.00    +0.000 A 
ATOM     21  C   UNL     1      44.775   5.261  12.753  0.00  0.00    +0.000 A 
ATOM     22  N   UNL     1      45.307   4.905  11.574  0.00  0.00    +0.000 NA
BRANCH  17  24
ATOM     23  F   UNL     1      46.090   5.131   8.733  0.00  0.00    +0.000 F 
ATOM     24  C   UNL     1      45.085   4.312   9.170  0.00  0.00    +0.000 C 
ATOM     25  F   UNL     1      44.176   4.290   8.148  0.00  0.00    +0.000 F 
ATOM     26  F   UNL     1      45.633   3.060   9.201  0.00  0.00    +0.000 F 
ENDBRANCH  17  24
ENDBRANCH  15  21
ENDBRANCH   1  15
TORSDOF 5
ENDMDL
MODEL 9
REMARK VINA RESULT:    -6.834      1.995      3.578
REMARK INTER + INTRA:          -9.258
REMARK INTER:                  -8.717
REMARK INTRA:                  -0.541
REMARK UNBOUND:                -0.427
REMARK  Name = 
REMARK  5 active torsions:
REMARK  status: ('A' for Active; 'I' for Inactive)
REMARK    1  A    between atoms: C_2  and  C_5
REMARK    2  A    between atoms: C_9  and  N_10
REMARK    3  A    between atoms: N_10  and  C_11
REMARK    4  A    between atoms: C_11  and  C_12
REMARK    5  A    between atoms: C_16  and  N_17
REMARK                            x       y       z     vdW  Elec       q    Type
REMARK                         _______ _______ _______ _____ _____    ______ ____
ROOT
ATOM      1  C   UNL     1      44.736   6.000  11.532  0.00  0.00    +0.000 C 
ENDROOT
BRANCH   1   2
ATOM      2  C   UNL     1      45.271   7.416  11.678  0.00  0.00    +0.000 A 
ATOM      3  N   UNL     1      44.449   8.428  11.345  0.00  0.00    +0.000 NA
ATOM      4  C   UNL     1      44.918   9.658  11.585  0.00  0.00    +0.000 A 
ATOM      5  C   UNL     1      46.160   9.907  12.120  0.00  0.00    +0.000 A 
ATOM      6  C   UNL     1      46.968   8.822  12.416  0.00  0.00    +0.000 A 
ATOM      7  N   UNL     1      46.510   7.575  12.196  0.00  0.00    +0.000 NA
BRANCH   6   8
ATOM      8  N   UNL     1      48.209   8.986  13.004  0.00  0.00    +0.000 N 
ATOM      9  C   UNL     1      49.417   9.301  12.228  0.00  0.00    +0.000 C 
ATOM     10  C   UNL     1      50.447   8.150  12.295  0.00  0.00    +0.000 C 
ATOM     11  N   UNL     1      50.769   7.718  13.669  0.00  0.00    +0.000 NA
ATOM     12  C   UNL     1      49.509   7.323  14.334  0.00  0.00    +0.000 C 
ATOM     13  C   UNL     1      48.448   8.445  14.353  0.00  0.00    +0.000 C 
ATOM     14  H   UNL     1      51.154   8.517  14.173  0.00  0.00    +0.000 HD
ENDBRANCH   6   8
ENDBRANCH   1   2
BRANCH   1  15
ATOM     15  N   UNL     1      44.451   5.622  10.158  0.00  0.00    +0.000 N 
ATOM     16  H   UNL     1      43.912   6.250   9.575  0.00  0.00    +0.000 HD
BRANCH  15  21
ATOM     17  C   UNL     1      45.821   3.178   7.983  0.00  0.00    +0.000 A 
ATOM     18  N   UNL     1      45.370   1.992   8.455  0.00  0.00    +0.000 NA
ATOM     19  C   UNL     1      44.579   2.042   9.536  0.00  0.00    +0.000 A 
ATOM     20  C   UNL     1      44.226   3.213  10.161  0.00  0.00    +0.000 A 
ATOM     21  C   UNL     1      44.714   4.387   9.627  0.00  0.00    +0.000 A 
ATOM     22  N   UNL     1      45.505   4.377   8.543  0.00  0.00    +0.000 NA
BRANCH  17  24
ATOM     23  F   UNL     1      46.746   4.348   6.058  0.00  0.00    +0.000 F 
ATOM     24  C   UNL     1      46.742   3.170   6.756  0.00  0.00    +0.000 C 
ATOM     25  F   UNL     1      46.405   2.215   5.836  0.00  0.00    +0.000 F 
ATOM     26  F   UNL     1      48.053   2.935   7.067  0.00  0.00    +0.000 F 
ENDBRANCH  17  24
ENDBRANCH  15  21
ENDBRANCH   1  15
TORSDOF 5
ENDMDL
