MODEL 1
REMARK VINA RESULT:    -7.695      0.000      0.000
REMARK INTER + INTRA:          -9.858
REMARK INTER:                  -9.045
REMARK INTRA:                  -0.813
REMARK UNBOUND:                -0.813
REMARK  Name = 
REMARK  4 active torsions:
REMARK  status: ('A' for Active; 'I' for Inactive)
REMARK    1  A    between atoms: C_1  and  C_2
REMARK    2  A    between atoms: C_2  and  N_3
REMARK    3  A    between atoms: C_2  and  C_16
REMARK    4  A    between atoms: C_4  and  C_6
REMARK                            x       y       z     vdW  Elec       q    Type
REMARK                         _______ _______ _______ _____ _____    ______ ____
ROOT
ATOM      1  C   UNL     1      47.155   3.159  17.389  0.00  0.00    +0.000 C 
ATOM      2  C   UNL     1      47.913   4.224  16.583  0.00  0.00    +0.000 C 
ENDROOT
BRANCH   2   3
ATOM      3  C   UNL     1      48.520   5.327  17.522  0.00  0.00    +0.000 C 
ATOM      4  C   UNL     1      48.950   6.607  16.768  0.00  0.00    +0.000 C 
ATOM      5  C   UNL     1      49.394   7.715  17.736  0.00  0.00    +0.000 C 
ATOM      6  C   UNL     1      50.434   7.223  18.738  0.00  0.00    +0.000 C 
ATOM      7  C   UNL     1      49.939   5.956  19.429  0.00  0.00    +0.000 C 
ATOM      8  N   UNL     1      49.652   4.932  18.421  0.00  0.00    +0.000 N 
ATOM      9  C   UNL     1      50.590   3.980  17.993  0.00  0.00    +0.000 C 
ATOM     10  O   UNL     1      50.384   3.269  17.015  0.00  0.00    +0.000 OA
ATOM     11  N   UNL     1      51.719   3.870  18.753  0.00  0.00    +0.000 N 
ATOM     12  C   UNL     1      52.712   2.920  18.563  0.00  0.00    +0.000 A 
ATOM     13  N   UNL     1      52.778   2.164  17.460  0.00  0.00    +0.000 NA
ATOM     14  C   UNL     1      53.712   1.195  17.424  0.00  0.00    +0.000 A 
ATOM     15  C   UNL     1      54.585   0.956  18.455  0.00  0.00    +0.000 A 
ATOM     16 CL   UNL     1      55.723  -0.315  18.417  0.00  0.00    +0.000 Cl
ATOM     17  C   UNL     1      54.466   1.805  19.532  0.00  0.00    +0.000 A 
ATOM     18  N   UNL     1      53.550   2.800  19.607  0.00  0.00    +0.000 NA
ATOM     19  H   UNL     1      51.812   4.322  19.638  0.00  0.00    +0.000 HD
ENDBRANCH   2   3
BRANCH   2  20
ATOM     20  N   UNL     1      46.980   4.769  15.588  0.00  0.00    +0.000 N 
ATOM     21  C   UNL     1      46.862   4.261  14.318  0.00  0.00    +0.000 C 
ATOM     22  O   UNL     1      47.556   3.336  13.906  0.00  0.00    +0.000 OA
ATOM     23  H   UNL     1      46.477   5.615  15.834  0.00  0.00    +0.000 HD
BRANCH  21  24
ATOM     24  C   UNL     1      45.827   4.859  13.470  0.00  0.00    +0.000 A 
ATOM     25  C   UNL     1      44.761   4.079  13.042  0.00  0.00    +0.000 A 
ATOM     26  S   UNL     1      43.644   4.925  12.075  0.00  0.00    +0.000 S 
ATOM     27  C   UNL     1      44.572   6.349  12.148  0.00  0.00    +0.000 A 
ATOM     28  N   UNL     1      44.194   7.466  11.478  0.00  0.00    +0.000 NA
ATOM     29  C   UNL     1      45.019   8.454  11.576  0.00  0.00    +0.000 A 
ATOM     30  N   UNL     1      46.184   8.429  12.298  0.00  0.00    +0.000 N 
ATOM     31  C   UNL     1      46.574   7.345  13.050  0.00  0.00    +0.000 A 
ATOM     32  O   UNL     1      47.559   7.394  13.775  0.00  0.00    +0.000 OA
ATOM     33  C   UNL     1      45.704   6.189  12.933  0.00  0.00    +0.000 A 
ATOM     34  H   UNL     1      46.775   9.245  12.355  0.00  0.00    +0.000 HD
ENDBRANCH  21  24
ENDBRANCH   2  20
TORSDOF 3
ENDMDL
MODEL 2
REMARK VINA RESULT:    -7.576      1.427      2.049
REMARK INTER + INTRA:          -9.717
REMARK INTER:                  -9.222
REMARK INTRA:                  -0.496
REMARK UNBOUND:                -0.813
REMARK  Name = 
REMARK  4 active torsions:
REMARK  status: ('A' for Active; 'I' for Inactive)
REMARK    1  A    between atoms: C_1  and  C_2
REMARK    2  A    between atoms: C_2  and  N_3
REMARK    3  A    between atoms: C_2  and  C_16
REMARK    4  A    between atoms: C_4  and  C_6
REMARK                            x       y       z     vdW  Elec       q    Type
REMARK                         _______ _______ _______ _____ _____    ______ ____
ROOT
ATOM      1  C   UNL     1      47.171   3.517  17.386  0.00  0.00    +0.000 C 
ATOM      2  C   UNL     1      48.209   4.342  16.612  0.00  0.00    +0.000 C 
ENDROOT
BRANCH   2   3
ATOM      3  C   UNL     1      49.053   5.248  17.578  0.00  0.00    +0.000 C 
ATOM      4  C   UNL     1      49.663   6.487  16.881  0.00  0.00    +0.000 C 
ATOM      5  C   UNL     1      50.349   7.425  17.887  0.00  0.00    +0.000 C 
ATOM      6  C   UNL     1      51.339   6.684  18.783  0.00  0.00    +0.000 C 
ATOM      7  C   UNL     1      50.664   5.475  19.422  0.00  0.00    +0.000 C 
ATOM      8  N   UNL     1      50.144   4.596  18.371  0.00  0.00    +0.000 N 
ATOM      9  C   UNL     1      50.873   3.530  17.820  0.00  0.00    +0.000 C 
ATOM     10  O   UNL     1      50.490   2.941  16.815  0.00  0.00    +0.000 OA
ATOM     11  N   UNL     1      52.004   3.168  18.495  0.00  0.00    +0.000 N 
ATOM     12  C   UNL     1      52.799   2.076  18.178  0.00  0.00    +0.000 A 
ATOM     13  N   UNL     1      52.669   1.407  17.026  0.00  0.00    +0.000 NA
ATOM     14  C   UNL     1      53.412   0.295  16.864  0.00  0.00    +0.000 A 
ATOM     15  C   UNL     1      54.283  -0.170  17.817  0.00  0.00    +0.000 A 
ATOM     16 CL   UNL     1      55.173  -1.613  17.620  0.00  0.00    +0.000 Cl
ATOM     17  C   UNL     1      54.376   0.603  18.952  0.00  0.00    +0.000 A 
ATOM     18  N   UNL     1      53.658   1.734  19.153  0.00  0.00    +0.000 NA
ATOM     19  H   UNL     1      52.224   3.529  19.399  0.00  0.00    +0.000 HD
ENDBRANCH   2   3
BRANCH   2  20
ATOM     20  N   UNL     1      47.487   5.111  15.590  0.00  0.00    +0.000 N 
ATOM     21  C   UNL     1      47.201   4.613  14.343  0.00  0.00    +0.000 C 
ATOM     22  O   UNL     1      47.560   3.498  13.976  0.00  0.00    +0.000 OA
ATOM     23  H   UNL     1      47.281   6.083  15.797  0.00  0.00    +0.000 HD
BRANCH  21  24
ATOM     24  C   UNL     1      46.400   5.471  13.466  0.00  0.00    +0.000 A 
ATOM     25  C   UNL     1      46.722   6.817  13.349  0.00  0.00    +0.000 A 
ATOM     26  S   UNL     1      45.702   7.671  12.286  0.00  0.00    +0.000 S 
ATOM     27  C   UNL     1      44.760   6.286  11.986  0.00  0.00    +0.000 A 
ATOM     28  N   UNL     1      43.670   6.341  11.181  0.00  0.00    +0.000 NA
ATOM     29  C   UNL     1      43.018   5.232  11.086  0.00  0.00    +0.000 A 
ATOM     30  N   UNL     1      43.366   4.065  11.716  0.00  0.00    +0.000 N 
ATOM     31  C   UNL     1      44.501   3.941  12.485  0.00  0.00    +0.000 A 
ATOM     32  O   UNL     1      44.846   2.858  12.939  0.00  0.00    +0.000 OA
ATOM     33  C   UNL     1      45.242   5.176  12.663  0.00  0.00    +0.000 A 
ATOM     34  H   UNL     1      42.826   3.223  11.582  0.00  0.00    +0.000 HD
ENDBRANCH  21  24
ENDBRANCH   2  20
TORSDOF 3
ENDMDL
MODEL 3
REMARK VINA RESULT:    -7.094      4.491      7.412
REMARK INTER + INTRA:          -9.151
REMARK INTER:                  -8.004
REMARK INTRA:                  -1.147
REMARK UNBOUND:                -0.813
REMARK  Name = 
REMARK  4 active torsions:
REMARK  status: ('A' for Active; 'I' for Inactive)
REMARK    1  A    between atoms: C_1  and  C_2
REMARK    2  A    between atoms: C_2  and  N_3
REMARK    3  A    between atoms: C_2  and  C_16
REMARK    4  A    between atoms: C_4  and  C_6
REMARK                            x       y       z     vdW  Elec       q    Type
REMARK                         _______ _______ _______ _____ _____    ______ ____
ROOT
ATOM      1  C   UNL     1      48.820   7.415  18.580  0.00  0.00    +0.000 C 
ATOM      2  C   UNL     1      48.646   6.695  17.235  0.00  0.00    +0.000 C 
ENDROOT
BRANCH   2   3
ATOM      3  C   UNL     1      48.741   5.137  17.405  0.00  0.00    +0.000 C 
ATOM      4  C   UNL     1      50.165   4.579  17.170  0.00  0.00    +0.000 C 
ATOM      5  C   UNL     1      50.249   3.080  17.494  0.00  0.00    +0.000 C 
ATOM      6  C   UNL     1      49.158   2.276  16.790  0.00  0.00    +0.000 C 
ATOM      7  C   UNL     1      47.792   2.895  17.063  0.00  0.00    +0.000 C 
ATOM      8  N   UNL     1      47.791   4.290  16.616  0.00  0.00    +0.000 N 
ATOM      9  C   UNL     1      47.391   4.692  15.332  0.00  0.00    +0.000 C 
ATOM     10  O   UNL     1      47.586   5.833  14.925  0.00  0.00    +0.000 OA
ATOM     11  N   UNL     1      46.739   3.752  14.587  0.00  0.00    +0.000 N 
ATOM     12  C   UNL     1      46.169   3.982  13.343  0.00  0.00    +0.000 A 
ATOM     13  N   UNL     1      46.414   5.094  12.639  0.00  0.00    +0.000 NA
ATOM     14  C   UNL     1      45.725   5.272  11.495  0.00  0.00    +0.000 A 
ATOM     15  C   UNL     1      44.798   4.373  11.031  0.00  0.00    +0.000 A 
ATOM     16 CL   UNL     1      43.891   4.642   9.611  0.00  0.00    +0.000 Cl
ATOM     17  C   UNL     1      44.641   3.244  11.802  0.00  0.00    +0.000 A 
ATOM     18  N   UNL     1      45.320   3.018  12.952  0.00  0.00    +0.000 NA
ATOM     19  H   UNL     1      46.429   2.886  14.974  0.00  0.00    +0.000 HD
ENDBRANCH   2   3
BRANCH   2  20
ATOM     20  N   UNL     1      49.656   7.234  16.314  0.00  0.00    +0.000 N 
ATOM     21  C   UNL     1      49.454   8.366  15.563  0.00  0.00    +0.000 C 
ATOM     22  O   UNL     1      48.399   8.992  15.578  0.00  0.00    +0.000 OA
ATOM     23  H   UNL     1      50.496   6.683  16.168  0.00  0.00    +0.000 HD
BRANCH  21  24
ATOM     24  C   UNL     1      50.588   8.824  14.756  0.00  0.00    +0.000 A 
ATOM     25  C   UNL     1      51.529   9.675  15.322  0.00  0.00    +0.000 A 
ATOM     26  S   UNL     1      52.786  10.104  14.256  0.00  0.00    +0.000 S 
ATOM     27  C   UNL     1      52.090   9.214  12.985  0.00  0.00    +0.000 A 
ATOM     28  N   UNL     1      52.652   9.199  11.751  0.00  0.00    +0.000 NA
ATOM     29  C   UNL     1      51.989   8.528  10.869  0.00  0.00    +0.000 A 
ATOM     30  N   UNL     1      50.819   7.859  11.114  0.00  0.00    +0.000 N 
ATOM     31  C   UNL     1      50.248   7.786  12.365  0.00  0.00    +0.000 A 
ATOM     32  O   UNL     1      49.267   7.086  12.577  0.00  0.00    +0.000 OA
ATOM     33  C   UNL     1      50.930   8.566  13.382  0.00  0.00    +0.000 A 
ATOM     34  H   UNL     1      50.361   7.332  10.386  0.00  0.00    +0.000 HD
ENDBRANCH  21  24
ENDBRANCH   2  20
TORSDOF 3
ENDMDL
MODEL 4
REMARK VINA RESULT:    -6.977      3.378      5.464
REMARK INTER + INTRA:          -9.013
REMARK INTER:                  -8.152
REMARK INTRA:                  -0.861
REMARK UNBOUND:                -0.813
REMARK  Name = 
REMARK  4 active torsions:
REMARK  status: ('A' for Active; 'I' for Inactive)
REMARK    1  A    between atoms: C_1  and  C_2
REMARK    2  A    between atoms: C_2  and  N_3
REMARK    3  A    between atoms: C_2  and  C_16
REMARK    4  A    between atoms: C_4  and  C_6
REMARK                            x       y       z     vdW  Elec       q    Type
REMARK                         _______ _______ _______ _____ _____    ______ ____
ROOT
ATOM      1  C   UNL     1      47.102   9.965  11.768  0.00  0.00    +0.000 C 
ATOM      2  C   UNL     1      47.704   8.739  12.470  0.00  0.00    +0.000 C 
ENDROOT
BRANCH   2   3
ATOM      3  C   UNL     1      49.273   8.802  12.484  0.00  0.00    +0.000 C 
ATOM      4  C   UNL     1      49.932   7.924  11.395  0.00  0.00    +0.000 C 
ATOM      5  C   UNL     1      51.454   8.131  11.342  0.00  0.00    +0.000 C 
ATOM      6  C   UNL     1      52.104   7.984  12.716  0.00  0.00    +0.000 C 
ATOM      7  C   UNL     1      51.391   8.871  13.731  0.00  0.00    +0.000 C 
ATOM      8  N   UNL     1      49.971   8.513  13.778  0.00  0.00    +0.000 N 
ATOM      9  C   UNL     1      49.438   7.568  14.668  0.00  0.00    +0.000 C 
ATOM     10  O   UNL     1      48.291   7.150  14.552  0.00  0.00    +0.000 OA
ATOM     11  N   UNL     1      50.259   7.179  15.689  0.00  0.00    +0.000 N 
ATOM     12  C   UNL     1      49.885   6.343  16.730  0.00  0.00    +0.000 A 
ATOM     13  N   UNL     1      48.747   5.637  16.708  0.00  0.00    +0.000 NA
ATOM     14  C   UNL     1      48.424   4.943  17.816  0.00  0.00    +0.000 A 
ATOM     15  C   UNL     1      49.201   4.930  18.947  0.00  0.00    +0.000 A 
ATOM     16 CL   UNL     1      48.745   4.093  20.363  0.00  0.00    +0.000 Cl
ATOM     17  C   UNL     1      50.368   5.655  18.864  0.00  0.00    +0.000 A 
ATOM     18  N   UNL     1      50.739   6.358  17.767  0.00  0.00    +0.000 NA
ATOM     19  H   UNL     1      51.122   7.641  15.884  0.00  0.00    +0.000 HD
ENDBRANCH   2   3
BRANCH   2  20
ATOM     20  N   UNL     1      47.184   7.545  11.791  0.00  0.00    +0.000 N 
ATOM     21  C   UNL     1      45.938   7.026  12.041  0.00  0.00    +0.000 C 
ATOM     22  O   UNL     1      45.178   7.500  12.880  0.00  0.00    +0.000 OA
ATOM     23  H   UNL     1      47.821   7.039  11.183  0.00  0.00    +0.000 HD
BRANCH  21  24
ATOM     24  C   UNL     1      45.532   5.881  11.222  0.00  0.00    +0.000 A 
ATOM     25  C   UNL     1      45.821   5.878   9.863  0.00  0.00    +0.000 A 
ATOM     26  S   UNL     1      45.290   4.473   9.058  0.00  0.00    +0.000 S 
ATOM     27  C   UNL     1      44.609   3.844  10.484  0.00  0.00    +0.000 A 
ATOM     28  N   UNL     1      43.941   2.664  10.479  0.00  0.00    +0.000 NA
ATOM     29  C   UNL     1      43.429   2.334  11.617  0.00  0.00    +0.000 A 
ATOM     30  N   UNL     1      43.535   3.074  12.765  0.00  0.00    +0.000 N 
ATOM     31  C   UNL     1      44.261   4.242  12.837  0.00  0.00    +0.000 A 
ATOM     32  O   UNL     1      44.433   4.819  13.902  0.00  0.00    +0.000 OA
ATOM     33  C   UNL     1      44.816   4.681  11.570  0.00  0.00    +0.000 A 
ATOM     34  H   UNL     1      43.131   2.749  13.631  0.00  0.00    +0.000 HD
ENDBRANCH  21  24
ENDBRANCH   2  20
TORSDOF 3
ENDMDL
MODEL 5
REMARK VINA RESULT:    -6.761      3.646      4.594
REMARK INTER + INTRA:          -8.760
REMARK INTER:                  -8.176
REMARK INTRA:                  -0.584
REMARK UNBOUND:                -0.813
REMARK  Name = 
REMARK  4 active torsions:
REMARK  status: ('A' for Active; 'I' for Inactive)
REMARK    1  A    between atoms: C_1  and  C_2
REMARK    2  A    between atoms: C_2  and  N_3
REMARK    3  A    between atoms: C_2  and  C_16
REMARK    4  A    between atoms: C_4  and  C_6
REMARK                            x       y       z     vdW  Elec       q    Type
REMARK                         _______ _______ _______ _____ _____    ______ ____
ROOT
ATOM      1  C   UNL     1      47.415   3.057  16.697  0.00  0.00    +0.000 C 
ATOM      2  C   UNL     1      48.166   4.364  16.405  0.00  0.00    +0.000 C 
ENDROOT
BRANCH   2   3
ATOM      3  C   UNL     1      48.487   5.145  17.728  0.00  0.00    +0.000 C 
ATOM      4  C   UNL     1      47.359   6.111  18.161  0.00  0.00    +0.000 C 
ATOM      5  C   UNL     1      47.643   6.740  19.534  0.00  0.00    +0.000 C 
ATOM      6  C   UNL     1      49.035   7.361  19.607  0.00  0.00    +0.000 C 
ATOM      7  C   UNL     1      50.085   6.351  19.157  0.00  0.00    +0.000 C 
ATOM      8  N   UNL     1      49.778   5.903  17.796  0.00  0.00    +0.000 N 
ATOM      9  C   UNL     1      50.296   6.513  16.643  0.00  0.00    +0.000 C 
ATOM     10  O   UNL     1      49.869   6.243  15.525  0.00  0.00    +0.000 OA
ATOM     11  N   UNL     1      51.325   7.389  16.841  0.00  0.00    +0.000 N 
ATOM     12  C   UNL     1      52.042   8.010  15.829  0.00  0.00    +0.000 A 
ATOM     13  N   UNL     1      51.636   7.997  14.553  0.00  0.00    +0.000 NA
ATOM     14  C   UNL     1      52.461   8.532  13.632  0.00  0.00    +0.000 A 
ATOM     15  C   UNL     1      53.679   9.081  13.945  0.00  0.00    +0.000 A 
ATOM     16 CL   UNL     1      54.738   9.700  12.758  0.00  0.00    +0.000 Cl
ATOM     17  C   UNL     1      53.994   9.081  15.284  0.00  0.00    +0.000 A 
ATOM     18  N   UNL     1      53.192   8.566  16.246  0.00  0.00    +0.000 NA
ATOM     19  H   UNL     1      51.784   7.481  17.722  0.00  0.00    +0.000 HD
ENDBRANCH   2   3
BRANCH   2  20
ATOM     20  N   UNL     1      47.348   5.141  15.465  0.00  0.00    +0.000 N 
ATOM     21  C   UNL     1      47.099   4.734  14.177  0.00  0.00    +0.000 C 
ATOM     22  O   UNL     1      47.574   3.706  13.703  0.00  0.00    +0.000 OA
ATOM     23  H   UNL     1      47.039   6.060  15.764  0.00  0.00    +0.000 HD
BRANCH  21  24
ATOM     24  C   UNL     1      46.195   5.576  13.390  0.00  0.00    +0.000 A 
ATOM     25  C   UNL     1      46.474   6.929  13.249  0.00  0.00    +0.000 A 
ATOM     26  S   UNL     1      45.333   7.763  12.298  0.00  0.00    +0.000 S 
ATOM     27  C   UNL     1      44.398   6.359  12.086  0.00  0.00    +0.000 A 
ATOM     28  N   UNL     1      43.231   6.392  11.395  0.00  0.00    +0.000 NA
ATOM     29  C   UNL     1      42.597   5.268  11.360  0.00  0.00    +0.000 A 
ATOM     30  N   UNL     1      43.033   4.108  11.945  0.00  0.00    +0.000 N 
ATOM     31  C   UNL     1      44.242   4.007  12.595  0.00  0.00    +0.000 A 
ATOM     32  O   UNL     1      44.655   2.931  13.007  0.00  0.00    +0.000 OA
ATOM     33  C   UNL     1      44.970   5.258  12.705  0.00  0.00    +0.000 A 
ATOM     34  H   UNL     1      42.501   3.254  11.861  0.00  0.00    +0.000 HD
ENDBRANCH  21  24
ENDBRANCH   2  20
TORSDOF 3
ENDMDL
MODEL 6
REMARK VINA RESULT:    -6.672      3.487      4.159
REMARK INTER + INTRA:          -8.655
REMARK INTER:                  -7.658
REMARK INTRA:                  -0.997
REMARK UNBOUND:                -0.813
REMARK  Name = 
REMARK  4 active torsions:
REMARK  status: ('A' for Active; 'I' for Inactive)
REMARK    1  A    between atoms: C_1  and  C_2
REMARK    2  A    between atoms: C_2  and  N_3
REMARK    3  A    between atoms: C_2  and  C_16
REMARK    4  A    between atoms: C_4  and  C_6
REMARK                            x       y       z     vdW  Elec       q    Type
REMARK                         _______ _______ _______ _____ _____    ______ ____
ROOT
ATOM      1  C   UNL     1      47.556   2.871  17.049  0.00  0.00    +0.000 C 
ATOM      2  C   UNL     1      48.149   4.238  16.677  0.00  0.00    +0.000 C 
ENDROOT
BRANCH   2   3
ATOM      3  C   UNL     1      48.403   5.116  17.953  0.00  0.00    +0.000 C 
ATOM      4  C   UNL     1      47.222   6.052  18.301  0.00  0.00    +0.000 C 
ATOM      5  C   UNL     1      47.445   6.779  19.636  0.00  0.00    +0.000 C 
ATOM      6  C   UNL     1      48.804   7.471  19.695  0.00  0.00    +0.000 C 
ATOM      7  C   UNL     1      49.910   6.486  19.332  0.00  0.00    +0.000 C 
ATOM      8  N   UNL     1      49.655   5.938  17.997  0.00  0.00    +0.000 N 
ATOM      9  C   UNL     1      50.168   6.499  16.817  0.00  0.00    +0.000 C 
ATOM     10  O   UNL     1      49.780   6.138  15.711  0.00  0.00    +0.000 OA
ATOM     11  N   UNL     1      51.150   7.435  16.978  0.00  0.00    +0.000 N 
ATOM     12  C   UNL     1      51.859   8.024  15.941  0.00  0.00    +0.000 A 
ATOM     13  N   UNL     1      51.483   7.911  14.662  0.00  0.00    +0.000 NA
ATOM     14  C   UNL     1      52.302   8.426  13.724  0.00  0.00    +0.000 A 
ATOM     15  C   UNL     1      53.486   9.052  14.024  0.00  0.00    +0.000 A 
ATOM     16 CL   UNL     1      54.540   9.646  12.820  0.00  0.00    +0.000 Cl
ATOM     17  C   UNL     1      53.771   9.153  15.367  0.00  0.00    +0.000 A 
ATOM     18  N   UNL     1      52.972   8.661  16.344  0.00  0.00    +0.000 NA
ATOM     19  H   UNL     1      51.585   7.605  17.860  0.00  0.00    +0.000 HD
ENDBRANCH   2   3
BRANCH   2  20
ATOM     20  N   UNL     1      47.231   4.869  15.720  0.00  0.00    +0.000 N 
ATOM     21  C   UNL     1      47.031   4.390  14.449  0.00  0.00    +0.000 C 
ATOM     22  O   UNL     1      47.633   3.417  14.004  0.00  0.00    +0.000 OA
ATOM     23  H   UNL     1      46.806   5.750  15.992  0.00  0.00    +0.000 HD
BRANCH  21  24
ATOM     24  C   UNL     1      46.020   5.081  13.643  0.00  0.00    +0.000 A 
ATOM     25  C   UNL     1      44.879   4.396  13.247  0.00  0.00    +0.000 A 
ATOM     26  S   UNL     1      43.803   5.343  12.326  0.00  0.00    +0.000 S 
ATOM     27  C   UNL     1      44.848   6.684  12.379  0.00  0.00    +0.000 A 
ATOM     28  N   UNL     1      44.541   7.836  11.732  0.00  0.00    +0.000 NA
ATOM     29  C   UNL     1      45.447   8.751  11.810  0.00  0.00    +0.000 A 
ATOM     30  N   UNL     1      46.631   8.623  12.490  0.00  0.00    +0.000 N 
ATOM     31  C   UNL     1      46.955   7.501  13.219  0.00  0.00    +0.000 A 
ATOM     32  O   UNL     1      47.965   7.461  13.909  0.00  0.00    +0.000 OA
ATOM     33  C   UNL     1      45.989   6.423  13.122  0.00  0.00    +0.000 A 
ATOM     34  H   UNL     1      47.289   9.386  12.533  0.00  0.00    +0.000 HD
ENDBRANCH  21  24
ENDBRANCH   2  20
TORSDOF 3
ENDMDL
MODEL 7
REMARK VINA RESULT:    -6.438      3.280      4.397
REMARK INTER + INTRA:          -8.380
REMARK INTER:                  -8.373
REMARK INTRA:                  -0.008
REMARK UNBOUND:                -0.813
REMARK  Name = 
REMARK  4 active torsions:
REMARK  status: ('A' for Active; 'I' for Inactive)
REMARK    1  A    between atoms: C_1  and  C_2
REMARK    2  A    between atoms: C_2  and  N_3
REMARK    3  A    between atoms: C_2  and  C_16
REMARK    4  A    between atoms: C_4  and  C_6
REMARK                            x       y       z     vdW  Elec       q    Type
REMARK                         _______ _______ _______ _____ _____    ______ ____
ROOT
ATOM      1  C   UNL     1      48.066   9.057  15.616  0.00  0.00    +0.000 C 
ATOM      2  C   UNL     1      48.525   7.973  14.631  0.00  0.00    +0.000 C 
ENDROOT
BRANCH   2   3
ATOM      3  C   UNL     1      49.740   8.465  13.766  0.00  0.00    +0.000 C 
ATOM      4  C   UNL     1      49.810   7.801  12.371  0.00  0.00    +0.000 C 
ATOM      5  C   UNL     1      50.917   8.418  11.502  0.00  0.00    +0.000 C 
ATOM      6  C   UNL     1      52.261   8.457  12.223  0.00  0.00    +0.000 C 
ATOM      7  C   UNL     1      52.105   9.115  13.589  0.00  0.00    +0.000 C 
ATOM      8  N   UNL     1      51.108   8.381  14.372  0.00  0.00    +0.000 N 
ATOM      9  C   UNL     1      51.427   7.327  15.242  0.00  0.00    +0.000 C 
ATOM     10  O   UNL     1      50.560   6.609  15.729  0.00  0.00    +0.000 OA
ATOM     11  N   UNL     1      52.751   7.180  15.542  0.00  0.00    +0.000 N 
ATOM     12  C   UNL     1      53.259   6.274  16.462  0.00  0.00    +0.000 A 
ATOM     13  N   UNL     1      52.518   5.283  16.973  0.00  0.00    +0.000 NA
ATOM     14  C   UNL     1      53.072   4.528  17.942  0.00  0.00    +0.000 A 
ATOM     15  C   UNL     1      54.344   4.731  18.416  0.00  0.00    +0.000 A 
ATOM     16 CL   UNL     1      55.008   3.803  19.685  0.00  0.00    +0.000 Cl
ATOM     17  C   UNL     1      55.041   5.749  17.806  0.00  0.00    +0.000 A 
ATOM     18  N   UNL     1      54.529   6.525  16.822  0.00  0.00    +0.000 NA
ATOM     19  H   UNL     1      53.434   7.862  15.287  0.00  0.00    +0.000 HD
ENDBRANCH   2   3
BRANCH   2  20
ATOM     20  N   UNL     1      47.360   7.595  13.819  0.00  0.00    +0.000 N 
ATOM     21  C   UNL     1      47.083   6.296  13.470  0.00  0.00    +0.000 C 
ATOM     22  O   UNL     1      47.809   5.356  13.780  0.00  0.00    +0.000 OA
ATOM     23  H   UNL     1      46.800   8.346  13.429  0.00  0.00    +0.000 HD
BRANCH  21  24
ATOM     24  C   UNL     1      45.839   6.072  12.730  0.00  0.00    +0.000 A 
ATOM     25  C   UNL     1      45.145   7.160  12.217  0.00  0.00    +0.000 A 
ATOM     26  S   UNL     1      43.727   6.727  11.377  0.00  0.00    +0.000 S 
ATOM     27  C   UNL     1      43.961   5.077  11.715  0.00  0.00    +0.000 A 
ATOM     28  N   UNL     1      43.061   4.146  11.314  0.00  0.00    +0.000 NA
ATOM     29  C   UNL     1      43.335   2.941  11.686  0.00  0.00    +0.000 A 
ATOM     30  N   UNL     1      44.439   2.580  12.414  0.00  0.00    +0.000 N 
ATOM     31  C   UNL     1      45.416   3.477  12.783  0.00  0.00    +0.000 A 
ATOM     32  O   UNL     1      46.446   3.107  13.332  0.00  0.00    +0.000 OA
ATOM     33  C   UNL     1      45.128   4.856  12.431  0.00  0.00    +0.000 A 
ATOM     34  H   UNL     1      44.610   1.615  12.653  0.00  0.00    +0.000 HD
ENDBRANCH  21  24
ENDBRANCH   2  20
TORSDOF 3
ENDMDL
MODEL 8
REMARK VINA RESULT:    -6.341      4.669      8.235
REMARK INTER + INTRA:          -8.266
REMARK INTER:                  -7.162
REMARK INTRA:                  -1.104
REMARK UNBOUND:                -0.813
REMARK  Name = 
REMARK  4 active torsions:
REMARK  status: ('A' for Active; 'I' for Inactive)
REMARK    1  A    between atoms: C_1  and  C_2
REMARK    2  A    between atoms: C_2  and  N_3
REMARK    3  A    between atoms: C_2  and  C_16
REMARK    4  A    between atoms: C_4  and  C_6
REMARK                            x       y       z     vdW  Elec       q    Type
REMARK                         _______ _______ _______ _____ _____    ______ ____
ROOT
ATOM      1  C   UNL     1      51.907   7.648  15.169  0.00  0.00    +0.000 C 
ATOM      2  C   UNL     1      50.428   7.450  14.806  0.00  0.00    +0.000 C 
ENDROOT
BRANCH   2   3
ATOM      3  C   UNL     1      49.943   8.530  13.776  0.00  0.00    +0.000 C 
ATOM      4  C   UNL     1      49.285   9.762  14.441  0.00  0.00    +0.000 C 
ATOM      5  C   UNL     1      48.965  10.860  13.415  0.00  0.00    +0.000 C 
ATOM      6  C   UNL     1      48.179  10.322  12.222  0.00  0.00    +0.000 C 
ATOM      7  C   UNL     1      48.886   9.108  11.631  0.00  0.00    +0.000 C 
ATOM      8  N   UNL     1      49.040   8.083  12.667  0.00  0.00    +0.000 N 
ATOM      9  C   UNL     1      48.104   7.061  12.893  0.00  0.00    +0.000 C 
ATOM     10  O   UNL     1      48.163   6.343  13.885  0.00  0.00    +0.000 OA
ATOM     11  N   UNL     1      47.157   6.894  11.923  0.00  0.00    +0.000 N 
ATOM     12  C   UNL     1      46.215   5.875  11.904  0.00  0.00    +0.000 A 
ATOM     13  N   UNL     1      45.986   5.093  12.966  0.00  0.00    +0.000 NA
ATOM     14  C   UNL     1      45.132   4.063  12.808  0.00  0.00    +0.000 A 
ATOM     15  C   UNL     1      44.498   3.790  11.622  0.00  0.00    +0.000 A 
ATOM     16 CL   UNL     1      43.465   2.446  11.423  0.00  0.00    +0.000 Cl
ATOM     17  C   UNL     1      44.767   4.669  10.598  0.00  0.00    +0.000 A 
ATOM     18  N   UNL     1      45.609   5.724  10.715  0.00  0.00    +0.000 NA
ATOM     19  H   UNL     1      47.209   7.358  11.041  0.00  0.00    +0.000 HD
ENDBRANCH   2   3
BRANCH   2  20
ATOM     20  N   UNL     1      49.661   7.468  16.059  0.00  0.00    +0.000 N 
ATOM     21  C   UNL     1      49.597   6.393  16.911  0.00  0.00    +0.000 C 
ATOM     22  O   UNL     1      50.147   5.322  16.671  0.00  0.00    +0.000 OA
ATOM     23  H   UNL     1      49.084   8.282  16.241  0.00  0.00    +0.000 HD
BRANCH  21  24
ATOM     24  C   UNL     1      48.860   6.595  18.161  0.00  0.00    +0.000 A 
ATOM     25  C   UNL     1      48.071   5.568  18.662  0.00  0.00    +0.000 A 
ATOM     26  S   UNL     1      47.291   5.961  20.125  0.00  0.00    +0.000 S 
ATOM     27  C   UNL     1      47.937   7.534  20.113  0.00  0.00    +0.000 A 
ATOM     28  N   UNL     1      47.618   8.429  21.081  0.00  0.00    +0.000 NA
ATOM     29  C   UNL     1      48.134   9.601  20.919  0.00  0.00    +0.000 A 
ATOM     30  N   UNL     1      48.953   9.956  19.878  0.00  0.00    +0.000 N 
ATOM     31  C   UNL     1      49.361   9.065  18.912  0.00  0.00    +0.000 A 
ATOM     32  O   UNL     1      50.183   9.380  18.062  0.00  0.00    +0.000 OA
ATOM     33  C   UNL     1      48.767   7.745  19.023  0.00  0.00    +0.000 A 
ATOM     34  H   UNL     1      49.344  10.883  19.821  0.00  0.00    +0.000 HD
ENDBRANCH  21  24
ENDBRANCH   2  20
TORSDOF 3
ENDMDL
MODEL 9
REMARK VINA RESULT:    -6.050      4.042      5.647
REMARK INTER + INTRA:          -7.923
REMARK INTER:                  -6.897
REMARK INTRA:                  -1.026
REMARK UNBOUND:                -0.813
REMARK  Name = 
REMARK  4 active torsions:
REMARK  status: ('A' for Active; 'I' for Inactive)
REMARK    1  A    between atoms: C_1  and  C_2
REMARK    2  A    between atoms: C_2  and  N_3
REMARK    3  A    between atoms: C_2  and  C_16
REMARK    4  A    between atoms: C_4  and  C_6
REMARK                            x       y       z     vdW  Elec       q    Type
REMARK                         _______ _______ _______ _____ _____    ______ ____
ROOT
ATOM      1  C   UNL     1      48.873  10.285  11.295  0.00  0.00    +0.000 C 
ATOM      2  C   UNL     1      49.569   9.186  12.111  0.00  0.00    +0.000 C 
ENDROOT
BRANCH   2   3
ATOM      3  C   UNL     1      50.979   8.838  11.514  0.00  0.00    +0.000 C 
ATOM      4  C   UNL     1      50.965   7.599  10.587  0.00  0.00    +0.000 C 
ATOM      5  C   UNL     1      52.325   7.384   9.904  0.00  0.00    +0.000 C 
ATOM      6  C   UNL     1      53.478   7.380  10.905  0.00  0.00    +0.000 C 
ATOM      7  C   UNL     1      53.414   8.625  11.784  0.00  0.00    +0.000 C 
ATOM      8  N   UNL     1      52.120   8.671  12.470  0.00  0.00    +0.000 N 
ATOM      9  C   UNL     1      51.896   8.119  13.741  0.00  0.00    +0.000 C 
ATOM     10  O   UNL     1      50.765   8.000  14.201  0.00  0.00    +0.000 OA
ATOM     11  N   UNL     1      53.013   7.765  14.444  0.00  0.00    +0.000 N 
ATOM     12  C   UNL     1      53.011   7.308  15.754  0.00  0.00    +0.000 A 
ATOM     13  N   UNL     1      51.888   6.937  16.381  0.00  0.00    +0.000 NA
ATOM     14  C   UNL     1      51.981   6.615  17.686  0.00  0.00    +0.000 A 
ATOM     15  C   UNL     1      53.162   6.650  18.385  0.00  0.00    +0.000 A 
ATOM     16 CL   UNL     1      53.251   6.297  20.052  0.00  0.00    +0.000 Cl
ATOM     17  C   UNL     1      54.268   7.008  17.648  0.00  0.00    +0.000 A 
ATOM     18  N   UNL     1      54.224   7.329  16.333  0.00  0.00    +0.000 NA
ATOM     19  H   UNL     1      53.932   8.017  14.147  0.00  0.00    +0.000 HD
ENDBRANCH   2   3
BRANCH   2  20
ATOM     20  N   UNL     1      48.664   8.030  12.154  0.00  0.00    +0.000 N 
ATOM     21  C   UNL     1      47.618   7.932  13.038  0.00  0.00    +0.000 C 
ATOM     22  O   UNL     1      47.384   8.789  13.885  0.00  0.00    +0.000 OA
ATOM     23  H   UNL     1      48.891   7.237  11.563  0.00  0.00    +0.000 HD
BRANCH  21  24
ATOM     24  C   UNL     1      46.755   6.757  12.900  0.00  0.00    +0.000 A 
ATOM     25  C   UNL     1      47.200   5.525  13.363  0.00  0.00    +0.000 A 
ATOM     26  S   UNL     1      46.076   4.266  13.136  0.00  0.00    +0.000 S 
ATOM     27  C   UNL     1      44.977   5.309  12.363  0.00  0.00    +0.000 A 
ATOM     28  N   UNL     1      43.803   4.846  11.865  0.00  0.00    +0.000 NA
ATOM     29  C   UNL     1      43.092   5.734  11.256  0.00  0.00    +0.000 A 
ATOM     30  N   UNL     1      43.444   7.051  11.111  0.00  0.00    +0.000 N 
ATOM     31  C   UNL     1      44.590   7.583  11.658  0.00  0.00    +0.000 A 
ATOM     32  O   UNL     1      44.820   8.784  11.610  0.00  0.00    +0.000 OA
ATOM     33  C   UNL     1      45.449   6.612  12.311  0.00  0.00    +0.000 A 
ATOM     34  H   UNL     1      42.832   7.702  10.643  0.00  0.00    +0.000 HD
ENDBRANCH  21  24
ENDBRANCH   2  20
TORSDOF 3
ENDMDL
