MODEL 1
REMARK VINA RESULT:    -8.094      0.000      0.000
REMARK INTER + INTRA:         -12.667
REMARK INTER:                 -11.407
REMARK INTRA:                  -1.261
REMARK UNBOUND:                -1.261
REMARK  Name = 
REMARK  7 active torsions:
REMARK  status: ('A' for Active; 'I' for Inactive)
REMARK    1  A    between atoms: C_2  and  C_3
REMARK    2  A    between atoms: C_3  and  N_4
REMARK    3  A    between atoms: C_3  and  C_18
REMARK    4  A    between atoms: C_5  and  C_7
REMARK    5  A    between atoms: C_21  and  O_22
REMARK    6  A    between atoms: O_22  and  C_23
REMARK    7  A    between atoms: C_23  and  C_24
REMARK                            x       y       z     vdW  Elec       q    Type
REMARK                         _______ _______ _______ _____ _____    ______ ____
ROOT
ATOM      1  C   UNL     1      46.443   8.427  12.735  0.00  0.00    +0.000 C 
ENDROOT
BRANCH   1   2
ATOM      2  C   UNL     1      45.943   7.046  12.359  0.00  0.00    +0.000 A 
ATOM      3  C   UNL     1      44.950   6.872  11.385  0.00  0.00    +0.000 A 
ATOM      4  C   UNL     1      44.541   5.587  11.017  0.00  0.00    +0.000 A 
ATOM      5  C   UNL     1      45.131   4.467  11.606  0.00  0.00    +0.000 A 
ATOM      6  C   UNL     1      46.063   4.637  12.626  0.00  0.00    +0.000 A 
ATOM      7  C   UNL     1      46.473   5.913  12.991  0.00  0.00    +0.000 A 
BRANCH   5   8
ATOM      8  O   UNL     1      44.757   3.250  11.104  0.00  0.00    +0.000 OA
BRANCH   8   9
ATOM      9  C   UNL     1      44.200   3.322   9.783  0.00  0.00    +0.000 C 
BRANCH   9  10
ATOM     10  C   UNL     1      45.205   2.849   8.764  0.00  0.00    +0.000 A 
ATOM     11  C   UNL     1      45.821   3.774   7.923  0.00  0.00    +0.000 A 
ATOM     12  C   UNL     1      46.814   3.327   7.054  0.00  0.00    +0.000 A 
ATOM     13  C   UNL     1      47.166   1.981   7.054  0.00  0.00    +0.000 A 
ATOM     14  C   UNL     1      46.504   1.131   7.926  0.00  0.00    +0.000 A 
ATOM     15  N   UNL     1      45.536   1.531   8.776  0.00  0.00    +0.000 NA
ENDBRANCH   9  10
ENDBRANCH   8   9
ENDBRANCH   5   8
ENDBRANCH   1   2
BRANCH   1  16
ATOM     16  N   UNL     1      46.828   8.496  14.127  0.00  0.00    +0.000 N 
ATOM     17  C   UNL     1      48.012   9.044  14.533  0.00  0.00    +0.000 C 
ATOM     18  O   UNL     1      48.726   9.694  13.774  0.00  0.00    +0.000 OA
ATOM     19  H   UNL     1      46.403   7.798  14.736  0.00  0.00    +0.000 HD
BRANCH  17  20
ATOM     20  C   UNL     1      48.326   8.890  15.958  0.00  0.00    +0.000 A 
ATOM     21  C   UNL     1      48.185   9.963  16.824  0.00  0.00    +0.000 A 
ATOM     22  S   UNL     1      48.535   9.573  18.448  0.00  0.00    +0.000 S 
ATOM     23  C   UNL     1      48.936   7.966  18.042  0.00  0.00    +0.000 A 
ATOM     24  N   UNL     1      49.335   7.089  19.001  0.00  0.00    +0.000 NA
ATOM     25  C   UNL     1      49.639   5.911  18.543  0.00  0.00    +0.000 A 
ATOM     26  N   UNL     1      49.574   5.550  17.215  0.00  0.00    +0.000 N 
ATOM     27  O   UNL     1      49.920   4.235  16.904  0.00  0.00    +0.000 OA
ATOM     28  C   UNL     1      49.132   6.392  16.198  0.00  0.00    +0.000 A 
ATOM     29  O   UNL     1      48.975   6.105  15.013  0.00  0.00    +0.000 OA
ATOM     30  C   UNL     1      48.796   7.731  16.686  0.00  0.00    +0.000 A 
ENDBRANCH  17  20
ENDBRANCH   1  16
BRANCH   1  32
ATOM     31  N   UNL     1      44.487  10.326  12.190  0.00  0.00    +0.000 NA
ATOM     32  C   UNL     1      45.374   9.465  12.437  0.00  0.00    +0.000 C 
ENDBRANCH   1  32
TORSDOF 7
ENDMDL
MODEL 2
REMARK VINA RESULT:    -8.002      2.180      2.893
REMARK INTER + INTRA:         -12.537
REMARK INTER:                 -11.615
REMARK INTRA:                  -0.923
REMARK UNBOUND:                -1.261
REMARK  Name = 
REMARK  7 active torsions:
REMARK  status: ('A' for Active; 'I' for Inactive)
REMARK    1  A    between atoms: C_2  and  C_3
REMARK    2  A    between atoms: C_3  and  N_4
REMARK    3  A    between atoms: C_3  and  C_18
REMARK    4  A    between atoms: C_5  and  C_7
REMARK    5  A    between atoms: C_21  and  O_22
REMARK    6  A    between atoms: O_22  and  C_23
REMARK    7  A    between atoms: C_23  and  C_24
REMARK                            x       y       z     vdW  Elec       q    Type
REMARK                         _______ _______ _______ _____ _____    ______ ____
ROOT
ATOM      1  C   UNL     1      47.558   6.479  13.378  0.00  0.00    +0.000 C 
ENDROOT
BRANCH   1   2
ATOM      2  C   UNL     1      46.575   5.730  12.499  0.00  0.00    +0.000 A 
ATOM      3  C   UNL     1      46.128   6.269  11.284  0.00  0.00    +0.000 A 
ATOM      4  C   UNL     1      45.262   5.538  10.465  0.00  0.00    +0.000 A 
ATOM      5  C   UNL     1      44.851   4.259  10.844  0.00  0.00    +0.000 A 
ATOM      6  C   UNL     1      45.233   3.751  12.083  0.00  0.00    +0.000 A 
ATOM      7  C   UNL     1      46.095   4.475  12.897  0.00  0.00    +0.000 A 
BRANCH   5   8
ATOM      8  O   UNL     1      44.100   3.568   9.932  0.00  0.00    +0.000 OA
BRANCH   8   9
ATOM      9  C   UNL     1      44.579   2.237   9.686  0.00  0.00    +0.000 C 
BRANCH   9  10
ATOM     10  C   UNL     1      45.479   2.218   8.478  0.00  0.00    +0.000 A 
ATOM     11  C   UNL     1      45.551   3.339   7.653  0.00  0.00    +0.000 A 
ATOM     12  C   UNL     1      46.459   3.333   6.597  0.00  0.00    +0.000 A 
ATOM     13  C   UNL     1      47.268   2.220   6.399  0.00  0.00    +0.000 A 
ATOM     14  C   UNL     1      47.134   1.149   7.269  0.00  0.00    +0.000 A 
ATOM     15  N   UNL     1      46.262   1.122   8.298  0.00  0.00    +0.000 NA
ENDBRANCH   9  10
ENDBRANCH   8   9
ENDBRANCH   5   8
ENDBRANCH   1   2
BRANCH   1  16
ATOM     16  N   UNL     1      47.527   6.002  14.742  0.00  0.00    +0.000 N 
ATOM     17  C   UNL     1      48.630   6.018  15.549  0.00  0.00    +0.000 C 
ATOM     18  O   UNL     1      49.655   6.622  15.243  0.00  0.00    +0.000 OA
ATOM     19  H   UNL     1      46.806   5.313  14.951  0.00  0.00    +0.000 HD
BRANCH  17  20
ATOM     20  C   UNL     1      48.477   5.350  16.846  0.00  0.00    +0.000 A 
ATOM     21  C   UNL     1      48.533   3.968  16.931  0.00  0.00    +0.000 A 
ATOM     22  S   UNL     1      48.400   3.382  18.528  0.00  0.00    +0.000 S 
ATOM     23  C   UNL     1      48.211   4.955  19.158  0.00  0.00    +0.000 A 
ATOM     24  N   UNL     1      48.042   5.151  20.492  0.00  0.00    +0.000 NA
ATOM     25  C   UNL     1      47.880   6.397  20.825  0.00  0.00    +0.000 A 
ATOM     26  N   UNL     1      47.875   7.448  19.934  0.00  0.00    +0.000 N 
ATOM     27  O   UNL     1      47.705   8.725  20.469  0.00  0.00    +0.000 OA
ATOM     28  C   UNL     1      48.086   7.311  18.565  0.00  0.00    +0.000 A 
ATOM     29  O   UNL     1      48.174   8.213  17.734  0.00  0.00    +0.000 OA
ATOM     30  C   UNL     1      48.258   5.915  18.161  0.00  0.00    +0.000 A 
ENDBRANCH  17  20
ENDBRANCH   1  16
BRANCH   1  32
ATOM     31  N   UNL     1      47.009   9.204  13.308  0.00  0.00    +0.000 NA
ATOM     32  C   UNL     1      47.258   7.969  13.339  0.00  0.00    +0.000 C 
ENDBRANCH   1  32
TORSDOF 7
ENDMDL
MODEL 3
REMARK VINA RESULT:    -7.642      2.887      3.778
REMARK INTER + INTRA:         -12.030
REMARK INTER:                 -10.818
REMARK INTRA:                  -1.212
REMARK UNBOUND:                -1.261
REMARK  Name = 
REMARK  7 active torsions:
REMARK  status: ('A' for Active; 'I' for Inactive)
REMARK    1  A    between atoms: C_2  and  C_3
REMARK    2  A    between atoms: C_3  and  N_4
REMARK    3  A    between atoms: C_3  and  C_18
REMARK    4  A    between atoms: C_5  and  C_7
REMARK    5  A    between atoms: C_21  and  O_22
REMARK    6  A    between atoms: O_22  and  C_23
REMARK    7  A    between atoms: C_23  and  C_24
REMARK                            x       y       z     vdW  Elec       q    Type
REMARK                         _______ _______ _______ _____ _____    ______ ____
ROOT
ATOM      1  C   UNL     1      46.795   5.648  14.023  0.00  0.00    +0.000 C 
ENDROOT
BRANCH   1   2
ATOM      2  C   UNL     1      46.027   5.138  12.819  0.00  0.00    +0.000 A 
ATOM      3  C   UNL     1      45.920   5.901  11.647  0.00  0.00    +0.000 A 
ATOM      4  C   UNL     1      45.251   5.389  10.532  0.00  0.00    +0.000 A 
ATOM      5  C   UNL     1      44.700   4.107  10.572  0.00  0.00    +0.000 A 
ATOM      6  C   UNL     1      44.739   3.376  11.757  0.00  0.00    +0.000 A 
ATOM      7  C   UNL     1      45.406   3.883  12.865  0.00  0.00    +0.000 A 
BRANCH   5   8
ATOM      8  O   UNL     1      44.167   3.639   9.401  0.00  0.00    +0.000 OA
BRANCH   8   9
ATOM      9  C   UNL     1      44.501   2.270   9.127  0.00  0.00    +0.000 C 
BRANCH   9  10
ATOM     10  C   UNL     1      45.605   2.194   8.105  0.00  0.00    +0.000 A 
ATOM     11  C   UNL     1      45.860   3.288   7.281  0.00  0.00    +0.000 A 
ATOM     12  C   UNL     1      46.945   3.229   6.409  0.00  0.00    +0.000 A 
ATOM     13  C   UNL     1      47.743   2.091   6.390  0.00  0.00    +0.000 A 
ATOM     14  C   UNL     1      47.420   1.049   7.245  0.00  0.00    +0.000 A 
ATOM     15  N   UNL     1      46.375   1.073   8.097  0.00  0.00    +0.000 NA
ENDBRANCH   9  10
ENDBRANCH   8   9
ENDBRANCH   5   8
ENDBRANCH   1   2
BRANCH   1  16
ATOM     16  N   UNL     1      47.980   6.377  13.632  0.00  0.00    +0.000 N 
ATOM     17  C   UNL     1      48.012   7.742  13.564  0.00  0.00    +0.000 C 
ATOM     18  O   UNL     1      47.112   8.440  14.025  0.00  0.00    +0.000 OA
ATOM     19  H   UNL     1      48.639   5.866  13.046  0.00  0.00    +0.000 HD
BRANCH  17  20
ATOM     20  C   UNL     1      49.234   8.321  12.995  0.00  0.00    +0.000 A 
ATOM     21  C   UNL     1      49.192   8.980  11.776  0.00  0.00    +0.000 A 
ATOM     22  S   UNL     1      50.695   9.639  11.312  0.00  0.00    +0.000 S 
ATOM     23  C   UNL     1      51.467   9.024  12.702  0.00  0.00    +0.000 A 
ATOM     24  N   UNL     1      52.794   9.236  12.909  0.00  0.00    +0.000 NA
ATOM     25  C   UNL     1      53.254   8.683  13.992  0.00  0.00    +0.000 A 
ATOM     26  N   UNL     1      52.494   7.942  14.872  0.00  0.00    +0.000 N 
ATOM     27  O   UNL     1      53.149   7.436  15.994  0.00  0.00    +0.000 OA
ATOM     28  C   UNL     1      51.126   7.728  14.733  0.00  0.00    +0.000 A 
ATOM     29  O   UNL     1      50.382   7.149  15.521  0.00  0.00    +0.000 OA
ATOM     30  C   UNL     1      50.585   8.331  13.513  0.00  0.00    +0.000 A 
ENDBRANCH  17  20
ENDBRANCH   1  16
BRANCH   1  32
ATOM     31  N   UNL     1      47.485   3.524  15.680  0.00  0.00    +0.000 NA
ATOM     32  C   UNL     1      47.172   4.486  14.928  0.00  0.00    +0.000 C 
ENDBRANCH   1  32
TORSDOF 7
ENDMDL
MODEL 4
REMARK VINA RESULT:    -7.545      2.562      4.397
REMARK INTER + INTRA:         -11.893
REMARK INTER:                 -10.606
REMARK INTRA:                  -1.287
REMARK UNBOUND:                -1.261
REMARK  Name = 
REMARK  7 active torsions:
REMARK  status: ('A' for Active; 'I' for Inactive)
REMARK    1  A    between atoms: C_2  and  C_3
REMARK    2  A    between atoms: C_3  and  N_4
REMARK    3  A    between atoms: C_3  and  C_18
REMARK    4  A    between atoms: C_5  and  C_7
REMARK    5  A    between atoms: C_21  and  O_22
REMARK    6  A    between atoms: O_22  and  C_23
REMARK    7  A    between atoms: C_23  and  C_24
REMARK                            x       y       z     vdW  Elec       q    Type
REMARK                         _______ _______ _______ _____ _____    ______ ____
ROOT
ATOM      1  C   UNL     1      47.059   5.324  14.254  0.00  0.00    +0.000 C 
ENDROOT
BRANCH   1   2
ATOM      2  C   UNL     1      46.249   4.988  13.017  0.00  0.00    +0.000 A 
ATOM      3  C   UNL     1      46.164   5.880  11.938  0.00  0.00    +0.000 A 
ATOM      4  C   UNL     1      45.454   5.527  10.787  0.00  0.00    +0.000 A 
ATOM      5  C   UNL     1      44.838   4.277  10.698  0.00  0.00    +0.000 A 
ATOM      6  C   UNL     1      44.857   3.420  11.795  0.00  0.00    +0.000 A 
ATOM      7  C   UNL     1      45.565   3.768  12.939  0.00  0.00    +0.000 A 
BRANCH   5   8
ATOM      8  O   UNL     1      44.266   3.968   9.494  0.00  0.00    +0.000 OA
BRANCH   8   9
ATOM      9  C   UNL     1      44.368   2.578   9.151  0.00  0.00    +0.000 C 
BRANCH   9  10
ATOM     10  C   UNL     1      45.523   2.353   8.209  0.00  0.00    +0.000 A 
ATOM     11  C   UNL     1      45.975   3.402   7.410  0.00  0.00    +0.000 A 
ATOM     12  C   UNL     1      47.102   3.197   6.617  0.00  0.00    +0.000 A 
ATOM     13  C   UNL     1      47.744   1.965   6.648  0.00  0.00    +0.000 A 
ATOM     14  C   UNL     1      47.228   0.978   7.474  0.00  0.00    +0.000 A 
ATOM     15  N   UNL     1      46.138   1.142   8.250  0.00  0.00    +0.000 NA
ENDBRANCH   9  10
ENDBRANCH   8   9
ENDBRANCH   5   8
ENDBRANCH   1   2
BRANCH   1  16
ATOM     16  N   UNL     1      48.205   6.146  13.936  0.00  0.00    +0.000 N 
ATOM     17  C   UNL     1      48.755   7.016  14.835  0.00  0.00    +0.000 C 
ATOM     18  O   UNL     1      48.446   7.010  16.024  0.00  0.00    +0.000 OA
ATOM     19  H   UNL     1      48.340   6.350  12.947  0.00  0.00    +0.000 HD
BRANCH  17  20
ATOM     20  C   UNL     1      49.807   7.893  14.308  0.00  0.00    +0.000 A 
ATOM     21  C   UNL     1      51.106   7.787  14.780  0.00  0.00    +0.000 A 
ATOM     22  S   UNL     1      52.197   8.843  14.002  0.00  0.00    +0.000 S 
ATOM     23  C   UNL     1      50.960   9.515  13.039  0.00  0.00    +0.000 A 
ATOM     24  N   UNL     1      51.237  10.500  12.144  0.00  0.00    +0.000 NA
ATOM     25  C   UNL     1      50.194  10.938  11.504  0.00  0.00    +0.000 A 
ATOM     26  N   UNL     1      48.911  10.470  11.690  0.00  0.00    +0.000 N 
ATOM     27  O   UNL     1      47.913  11.044  10.903  0.00  0.00    +0.000 OA
ATOM     28  C   UNL     1      48.576   9.437  12.560  0.00  0.00    +0.000 A 
ATOM     29  O   UNL     1      47.470   8.923  12.710  0.00  0.00    +0.000 OA
ATOM     30  C   UNL     1      49.732   8.934  13.304  0.00  0.00    +0.000 A 
ENDBRANCH  17  20
ENDBRANCH   1  16
BRANCH   1  32
ATOM     31  N   UNL     1      47.881   2.987  15.516  0.00  0.00    +0.000 NA
ATOM     32  C   UNL     1      47.508   4.046  14.944  0.00  0.00    +0.000 C 
ENDBRANCH   1  32
TORSDOF 7
ENDMDL
MODEL 5
REMARK VINA RESULT:    -6.167      3.409      9.483
REMARK INTER + INTRA:          -9.951
REMARK INTER:                  -8.751
REMARK INTRA:                  -1.201
REMARK UNBOUND:                -1.261
REMARK  Name = 
REMARK  7 active torsions:
REMARK  status: ('A' for Active; 'I' for Inactive)
REMARK    1  A    between atoms: C_2  and  C_3
REMARK    2  A    between atoms: C_3  and  N_4
REMARK    3  A    between atoms: C_3  and  C_18
REMARK    4  A    between atoms: C_5  and  C_7
REMARK    5  A    between atoms: C_21  and  O_22
REMARK    6  A    between atoms: O_22  and  C_23
REMARK    7  A    between atoms: C_23  and  C_24
REMARK                            x       y       z     vdW  Elec       q    Type
REMARK                         _______ _______ _______ _____ _____    ______ ____
ROOT
ATOM      1  C   UNL     1      47.853   4.676  16.132  0.00  0.00    +0.000 C 
ENDROOT
BRANCH   1   2
ATOM      2  C   UNL     1      48.256   5.829  17.030  0.00  0.00    +0.000 A 
ATOM      3  C   UNL     1      48.989   6.916  16.534  0.00  0.00    +0.000 A 
ATOM      4  C   UNL     1      49.305   7.993  17.368  0.00  0.00    +0.000 A 
ATOM      5  C   UNL     1      48.878   7.999  18.697  0.00  0.00    +0.000 A 
ATOM      6  C   UNL     1      48.216   6.888  19.214  0.00  0.00    +0.000 A 
ATOM      7  C   UNL     1      47.898   5.819  18.385  0.00  0.00    +0.000 A 
BRANCH   5   8
ATOM      8  O   UNL     1      49.129   9.141  19.409  0.00  0.00    +0.000 OA
BRANCH   8   9
ATOM      9  C   UNL     1      49.990   8.933  20.539  0.00  0.00    +0.000 C 
BRANCH   9  10
ATOM     10  C   UNL     1      51.420   8.788  20.089  0.00  0.00    +0.000 A 
ATOM     11  C   UNL     1      52.146   7.656  20.454  0.00  0.00    +0.000 A 
ATOM     12  C   UNL     1      53.435   7.499  19.949  0.00  0.00    +0.000 A 
ATOM     13  C   UNL     1      53.956   8.464  19.095  0.00  0.00    +0.000 A 
ATOM     14  C   UNL     1      53.164   9.558  18.782  0.00  0.00    +0.000 A 
ATOM     15  N   UNL     1      51.915   9.741  19.257  0.00  0.00    +0.000 NA
ENDBRANCH   9  10
ENDBRANCH   8   9
ENDBRANCH   5   8
ENDBRANCH   1   2
BRANCH   1  16
ATOM     16  N   UNL     1      46.884   5.084  15.140  0.00  0.00    +0.000 N 
ATOM     17  C   UNL     1      47.249   5.563  13.913  0.00  0.00    +0.000 C 
ATOM     18  O   UNL     1      48.403   5.486  13.498  0.00  0.00    +0.000 OA
ATOM     19  H   UNL     1      45.977   5.374  15.503  0.00  0.00    +0.000 HD
BRANCH  17  20
ATOM     20  C   UNL     1      46.157   6.087  13.086  0.00  0.00    +0.000 A 
ATOM     21  C   UNL     1      46.083   7.442  12.801  0.00  0.00    +0.000 A 
ATOM     22  S   UNL     1      44.783   7.848  11.774  0.00  0.00    +0.000 S 
ATOM     23  C   UNL     1      44.242   6.232  11.713  0.00  0.00    +0.000 A 
ATOM     24  N   UNL     1      43.141   5.897  10.990  0.00  0.00    +0.000 NA
ATOM     25  C   UNL     1      42.827   4.638  11.060  0.00  0.00    +0.000 A 
ATOM     26  N   UNL     1      43.525   3.700  11.791  0.00  0.00    +0.000 N 
ATOM     27  O   UNL     1      43.057   2.387  11.738  0.00  0.00    +0.000 OA
ATOM     28  C   UNL     1      44.682   3.977  12.513  0.00  0.00    +0.000 A 
ATOM     29  O   UNL     1      45.391   3.173  13.115  0.00  0.00    +0.000 OA
ATOM     30  C   UNL     1      45.050   5.393  12.461  0.00  0.00    +0.000 A 
ENDBRANCH  17  20
ENDBRANCH   1  16
BRANCH   1  32
ATOM     31  N   UNL     1      46.831   2.592  17.664  0.00  0.00    +0.000 NA
ATOM     32  C   UNL     1      47.294   3.536  16.969  0.00  0.00    +0.000 C 
ENDBRANCH   1  32
TORSDOF 7
ENDMDL
MODEL 6
REMARK VINA RESULT:    -6.002      3.551      4.701
REMARK INTER + INTRA:          -9.719
REMARK INTER:                  -8.478
REMARK INTRA:                  -1.241
REMARK UNBOUND:                -1.261
REMARK  Name = 
REMARK  7 active torsions:
REMARK  status: ('A' for Active; 'I' for Inactive)
REMARK    1  A    between atoms: C_2  and  C_3
REMARK    2  A    between atoms: C_3  and  N_4
REMARK    3  A    between atoms: C_3  and  C_18
REMARK    4  A    between atoms: C_5  and  C_7
REMARK    5  A    between atoms: C_21  and  O_22
REMARK    6  A    between atoms: O_22  and  C_23
REMARK    7  A    between atoms: C_23  and  C_24
REMARK                            x       y       z     vdW  Elec       q    Type
REMARK                         _______ _______ _______ _____ _____    ______ ____
ROOT
ATOM      1  C   UNL     1      48.388   6.858  14.939  0.00  0.00    +0.000 C 
ENDROOT
BRANCH   1   2
ATOM      2  C   UNL     1      47.531   6.517  13.735  0.00  0.00    +0.000 A 
ATOM      3  C   UNL     1      47.078   5.209  13.512  0.00  0.00    +0.000 A 
ATOM      4  C   UNL     1      46.247   4.927  12.424  0.00  0.00    +0.000 A 
ATOM      5  C   UNL     1      45.848   5.950  11.562  0.00  0.00    +0.000 A 
ATOM      6  C   UNL     1      46.356   7.235  11.737  0.00  0.00    +0.000 A 
ATOM      7  C   UNL     1      47.180   7.517  12.819  0.00  0.00    +0.000 A 
BRANCH   5   8
ATOM      8  O   UNL     1      44.942   5.609  10.595  0.00  0.00    +0.000 OA
BRANCH   8   9
ATOM      9  C   UNL     1      44.622   4.210  10.578  0.00  0.00    +0.000 C 
BRANCH   9  10
ATOM     10  C   UNL     1      45.232   3.547   9.370  0.00  0.00    +0.000 A 
ATOM     11  C   UNL     1      45.746   4.331   8.339  0.00  0.00    +0.000 A 
ATOM     12  C   UNL     1      46.389   3.697   7.277  0.00  0.00    +0.000 A 
ATOM     13  C   UNL     1      46.506   2.312   7.278  0.00  0.00    +0.000 A 
ATOM     14  C   UNL     1      45.969   1.610   8.346  0.00  0.00    +0.000 A 
ATOM     15  N   UNL     1      45.337   2.192   9.387  0.00  0.00    +0.000 NA
ENDBRANCH   9  10
ENDBRANCH   8   9
ENDBRANCH   5   8
ENDBRANCH   1   2
BRANCH   1  16
ATOM     16  N   UNL     1      49.705   7.308  14.547  0.00  0.00    +0.000 N 
ATOM     17  C   UNL     1      50.012   8.631  14.396  0.00  0.00    +0.000 C 
ATOM     18  O   UNL     1      49.260   9.525  14.778  0.00  0.00    +0.000 OA
ATOM     19  H   UNL     1      50.261   6.637  14.020  0.00  0.00    +0.000 HD
BRANCH  17  20
ATOM     20  C   UNL     1      51.339   8.915  13.838  0.00  0.00    +0.000 A 
ATOM     21  C   UNL     1      52.269   9.630  14.577  0.00  0.00    +0.000 A 
ATOM     22  S   UNL     1      53.772   9.802  13.788  0.00  0.00    +0.000 S 
ATOM     23  C   UNL     1      53.215   8.969  12.408  0.00  0.00    +0.000 A 
ATOM     24  N   UNL     1      54.033   8.775  11.339  0.00  0.00    +0.000 NA
ATOM     25  C   UNL     1      53.467   8.153  10.349  0.00  0.00    +0.000 A 
ATOM     26  N   UNL     1      52.159   7.716  10.348  0.00  0.00    +0.000 N 
ATOM     27  O   UNL     1      51.721   7.049   9.203  0.00  0.00    +0.000 OA
ATOM     28  C   UNL     1      51.291   7.848  11.428  0.00  0.00    +0.000 A 
ATOM     29  O   UNL     1      50.147   7.409  11.518  0.00  0.00    +0.000 OA
ATOM     30  C   UNL     1      51.902   8.558  12.553  0.00  0.00    +0.000 A 
ENDBRANCH  17  20
ENDBRANCH   1  16
BRANCH   1  32
ATOM     31  N   UNL     1      48.593   4.650  16.616  0.00  0.00    +0.000 NA
ATOM     32  C   UNL     1      48.500   5.651  15.856  0.00  0.00    +0.000 C 
ENDBRANCH   1  32
TORSDOF 7
ENDMDL
MODEL 7
REMARK VINA RESULT:    -5.750      3.618      8.878
REMARK INTER + INTRA:          -9.364
REMARK INTER:                  -7.898
REMARK INTRA:                  -1.466
REMARK UNBOUND:                -1.261
REMARK  Name = 
REMARK  7 active torsions:
REMARK  status: ('A' for Active; 'I' for Inactive)
REMARK    1  A    between atoms: C_2  and  C_3
REMARK    2  A    between atoms: C_3  and  N_4
REMARK    3  A    between atoms: C_3  and  C_18
REMARK    4  A    between atoms: C_5  and  C_7
REMARK    5  A    between atoms: C_21  and  O_22
REMARK    6  A    between atoms: O_22  and  C_23
REMARK    7  A    between atoms: C_23  and  C_24
REMARK                            x       y       z     vdW  Elec       q    Type
REMARK                         _______ _______ _______ _____ _____    ______ ____
ROOT
ATOM      1  C   UNL     1      47.921   4.439  16.186  0.00  0.00    +0.000 C 
ENDROOT
BRANCH   1   2
ATOM      2  C   UNL     1      48.590   5.537  16.989  0.00  0.00    +0.000 A 
ATOM      3  C   UNL     1      47.986   6.072  18.136  0.00  0.00    +0.000 A 
ATOM      4  C   UNL     1      48.645   7.047  18.890  0.00  0.00    +0.000 A 
ATOM      5  C   UNL     1      49.917   7.483  18.515  0.00  0.00    +0.000 A 
ATOM      6  C   UNL     1      50.488   7.010  17.336  0.00  0.00    +0.000 A 
ATOM      7  C   UNL     1      49.836   6.038  16.587  0.00  0.00    +0.000 A 
BRANCH   5   8
ATOM      8  O   UNL     1      50.538   8.351  19.372  0.00  0.00    +0.000 OA
BRANCH   8   9
ATOM      9  C   UNL     1      49.912   9.641  19.433  0.00  0.00    +0.000 C 
BRANCH   9  10
ATOM     10  C   UNL     1      50.077  10.367  18.123  0.00  0.00    +0.000 A 
ATOM     11  C   UNL     1      51.355  10.697  17.674  0.00  0.00    +0.000 A 
ATOM     12  C   UNL     1      51.489  11.284  16.417  0.00  0.00    +0.000 A 
ATOM     13  C   UNL     1      50.355  11.516  15.647  0.00  0.00    +0.000 A 
ATOM     14  C   UNL     1      49.123  11.153  16.170  0.00  0.00    +0.000 A 
ATOM     15  N   UNL     1      48.959  10.588  17.384  0.00  0.00    +0.000 NA
ENDBRANCH   9  10
ENDBRANCH   8   9
ENDBRANCH   5   8
ENDBRANCH   1   2
BRANCH   1  16
ATOM     16  N   UNL     1      46.940   4.971  15.267  0.00  0.00    +0.000 N 
ATOM     17  C   UNL     1      46.703   4.411  14.043  0.00  0.00    +0.000 C 
ATOM     18  O   UNL     1      47.153   3.312  13.729  0.00  0.00    +0.000 OA
ATOM     19  H   UNL     1      46.724   5.961  15.377  0.00  0.00    +0.000 HD
BRANCH  17  20
ATOM     20  C   UNL     1      45.798   5.162  13.166  0.00  0.00    +0.000 A 
ATOM     21  C   UNL     1      44.723   4.527  12.564  0.00  0.00    +0.000 A 
ATOM     22  S   UNL     1      43.750   5.577  11.635  0.00  0.00    +0.000 S 
ATOM     23  C   UNL     1      44.761   6.909  11.966  0.00  0.00    +0.000 A 
ATOM     24  N   UNL     1      44.482   8.136  11.450  0.00  0.00    +0.000 NA
ATOM     25  C   UNL     1      45.354   9.048  11.759  0.00  0.00    +0.000 A 
ATOM     26  N   UNL     1      46.471   8.828  12.536  0.00  0.00    +0.000 N 
ATOM     27  O   UNL     1      47.291   9.929  12.782  0.00  0.00    +0.000 OA
ATOM     28  C   UNL     1      46.783   7.607  13.125  0.00  0.00    +0.000 A 
ATOM     29  O   UNL     1      47.715   7.369  13.891  0.00  0.00    +0.000 OA
ATOM     30  C   UNL     1      45.822   6.557  12.782  0.00  0.00    +0.000 A 
ENDBRANCH  17  20
ENDBRANCH   1  16
BRANCH   1  32
ATOM     31  N   UNL     1      46.728   2.601  17.899  0.00  0.00    +0.000 NA
ATOM     32  C   UNL     1      47.269   3.435  17.122  0.00  0.00    +0.000 C 
ENDBRANCH   1  32
TORSDOF 7
ENDMDL
MODEL 8
REMARK VINA RESULT:    -5.106     10.726     14.150
REMARK INTER + INTRA:          -8.457
REMARK INTER:                  -7.147
REMARK INTRA:                  -1.310
REMARK UNBOUND:                -1.261
REMARK  Name = 
REMARK  7 active torsions:
REMARK  status: ('A' for Active; 'I' for Inactive)
REMARK    1  A    between atoms: C_2  and  C_3
REMARK    2  A    between atoms: C_3  and  N_4
REMARK    3  A    between atoms: C_3  and  C_18
REMARK    4  A    between atoms: C_5  and  C_7
REMARK    5  A    between atoms: C_21  and  O_22
REMARK    6  A    between atoms: O_22  and  C_23
REMARK    7  A    between atoms: C_23  and  C_24
REMARK                            x       y       z     vdW  Elec       q    Type
REMARK                         _______ _______ _______ _____ _____    ______ ____
ROOT
ATOM      1  C   UNL     1      40.908  -3.114  13.816  0.00  0.00    +0.000 C 
ENDROOT
BRANCH   1   2
ATOM      2  C   UNL     1      40.171  -2.427  14.948  0.00  0.00    +0.000 A 
ATOM      3  C   UNL     1      38.856  -1.967  14.787  0.00  0.00    +0.000 A 
ATOM      4  C   UNL     1      38.177  -1.383  15.861  0.00  0.00    +0.000 A 
ATOM      5  C   UNL     1      38.799  -1.269  17.105  0.00  0.00    +0.000 A 
ATOM      6  C   UNL     1      40.129  -1.655  17.249  0.00  0.00    +0.000 A 
ATOM      7  C   UNL     1      40.804  -2.238  16.184  0.00  0.00    +0.000 A 
BRANCH   5   8
ATOM      8  O   UNL     1      38.025  -0.793  18.129  0.00  0.00    +0.000 OA
BRANCH   8   9
ATOM      9  C   UNL     1      37.075   0.200  17.714  0.00  0.00    +0.000 C 
BRANCH   9  10
ATOM     10  C   UNL     1      37.684   1.575  17.797  0.00  0.00    +0.000 A 
ATOM     11  C   UNL     1      37.414   2.510  16.799  0.00  0.00    +0.000 A 
ATOM     12  C   UNL     1      37.912   3.803  16.944  0.00  0.00    +0.000 A 
ATOM     13  C   UNL     1      38.652   4.126  18.076  0.00  0.00    +0.000 A 
ATOM     14  C   UNL     1      38.870   3.136  19.021  0.00  0.00    +0.000 A 
ATOM     15  N   UNL     1      38.406   1.874  18.908  0.00  0.00    +0.000 NA
ENDBRANCH   9  10
ENDBRANCH   8   9
ENDBRANCH   5   8
ENDBRANCH   1   2
BRANCH   1  16
ATOM     16  N   UNL     1      40.077  -3.251  12.641  0.00  0.00    +0.000 N 
ATOM     17  C   UNL     1      40.231  -2.459  11.538  0.00  0.00    +0.000 C 
ATOM     18  O   UNL     1      41.206  -1.726  11.390  0.00  0.00    +0.000 OA
ATOM     19  H   UNL     1      39.156  -3.658  12.798  0.00  0.00    +0.000 HD
BRANCH  17  20
ATOM     20  C   UNL     1      39.207  -2.613  10.499  0.00  0.00    +0.000 A 
ATOM     21  C   UNL     1      39.239  -3.702   9.642  0.00  0.00    +0.000 A 
ATOM     22  S   UNL     1      37.932  -3.741   8.547  0.00  0.00    +0.000 S 
ATOM     23  C   UNL     1      37.303  -2.274   9.146  0.00  0.00    +0.000 A 
ATOM     24  N   UNL     1      36.170  -1.739   8.618  0.00  0.00    +0.000 NA
ATOM     25  C   UNL     1      35.826  -0.604   9.151  0.00  0.00    +0.000 A 
ATOM     26  N   UNL     1      36.521   0.027  10.160  0.00  0.00    +0.000 N 
ATOM     27  O   UNL     1      35.997   1.233  10.625  0.00  0.00    +0.000 OA
ATOM     28  C   UNL     1      37.660  -0.494  10.766  0.00  0.00    +0.000 A 
ATOM     29  O   UNL     1      38.275  -0.022  11.720  0.00  0.00    +0.000 OA
ATOM     30  C   UNL     1      38.078  -1.767  10.175  0.00  0.00    +0.000 A 
ENDBRANCH  17  20
ENDBRANCH   1  16
BRANCH   1  32
ATOM     31  N   UNL     1      41.808  -5.611  14.645  0.00  0.00    +0.000 NA
ATOM     32  C   UNL     1      41.400  -4.479  14.269  0.00  0.00    +0.000 C 
ENDBRANCH   1  32
TORSDOF 7
ENDMDL
