MODEL 1
REMARK VINA RESULT:    -9.283      0.000      0.000
REMARK INTER + INTRA:         -14.605
REMARK INTER:                 -13.624
REMARK INTRA:                  -0.981
REMARK UNBOUND:                -0.981
REMARK  Name = 
REMARK  8 active torsions:
REMARK  status: ('A' for Active; 'I' for Inactive)
REMARK    1  A    between atoms: C_2  and  O_3
REMARK    2  A    between atoms: C_2  and  C_20
REMARK    3  A    between atoms: O_3  and  C_4
REMARK    4  A    between atoms: C_4  and  C_5
REMARK    5  A    between atoms: C_8  and  C_9
REMARK    6  A    between atoms: C_9  and  N_10
REMARK    7  A    between atoms: N_10  and  C_11
REMARK    8  A    between atoms: C_11  and  C_12
REMARK                            x       y       z     vdW  Elec       q    Type
REMARK                         _______ _______ _______ _____ _____    ______ ____
ROOT
ATOM      1  C   UNL     1      46.142   4.828  13.872  0.00  0.00    +0.000 C 
ATOM      2  C   UNL     1      46.049   3.530  13.053  0.00  0.00    +0.000 C 
ATOM      3  C   UNL     1      44.827   3.521  12.137  0.00  0.00    +0.000 C 
ATOM      4  C   UNL     1      44.808   4.751  11.216  0.00  0.00    +0.000 C 
ATOM      5  C   UNL     1      44.882   6.040  12.051  0.00  0.00    +0.000 C 
ATOM      6  C   UNL     1      46.107   6.058  12.959  0.00  0.00    +0.000 C 
ENDROOT
BRANCH   1   7
ATOM      7  C   UNL     1      47.396   4.832  14.753  0.00  0.00    +0.000 C 
BRANCH   7   8
ATOM      8  O   UNL     1      47.547   3.561  15.404  0.00  0.00    +0.000 OA
BRANCH   8  10
ATOM      9  O   UNL     1      46.426   3.033  17.323  0.00  0.00    +0.000 OA
ATOM     10  C   UNL     1      47.399   3.509  16.752  0.00  0.00    +0.000 C 
BRANCH  10  11
ATOM     11  C   UNL     1      48.567   4.030  17.462  0.00  0.00    +0.000 A 
ATOM     12  C   UNL     1      48.518   5.218  18.175  0.00  0.00    +0.000 A 
ATOM     13  S   UNL     1      50.005   5.627  18.910  0.00  0.00    +0.000 S 
ATOM     14  C   UNL     1      50.748   4.211  18.328  0.00  0.00    +0.000 A 
ATOM     15  N   UNL     1      52.046   3.930  18.625  0.00  0.00    +0.000 NA
ATOM     16  C   UNL     1      52.465   2.801  18.145  0.00  0.00    +0.000 A 
ATOM     17  N   UNL     1      51.709   1.948  17.391  0.00  0.00    +0.000 N 
ATOM     18  C   UNL     1      50.432   2.239  16.975  0.00  0.00    +0.000 A 
ATOM     19  O   UNL     1      49.871   1.517  16.160  0.00  0.00    +0.000 OA
ATOM     20  C   UNL     1      49.885   3.453  17.560  0.00  0.00    +0.000 A 
ATOM     21  H   UNL     1      52.105   1.102  17.008  0.00  0.00    +0.000 HD
ENDBRANCH  10  11
ENDBRANCH   8  10
ENDBRANCH   7   8
ENDBRANCH   1   7
BRANCH   4  22
ATOM     22  C   UNL     1      43.559   4.737  10.314  0.00  0.00    +0.000 C 
BRANCH  22  23
ATOM     23  N   UNL     1      43.933   4.379   8.947  0.00  0.00    +0.000 NA
ATOM     24  H   UNL     1      43.395   4.932   8.280  0.00  0.00    +0.000 HD
BRANCH  23  25
ATOM     25  C   UNL     1      45.358   4.565   8.696  0.00  0.00    +0.000 C 
BRANCH  25  26
ATOM     26  C   UNL     1      45.969   3.309   8.134  0.00  0.00    +0.000 A 
ATOM     27  C   UNL     1      46.871   3.339   7.066  0.00  0.00    +0.000 A 
ATOM     28  C   UNL     1      47.423   2.152   6.591  0.00  0.00    +0.000 A 
ATOM     29  C   UNL     1      47.049   0.966   7.201  0.00  0.00    +0.000 A 
ATOM     30  N   UNL     1      46.173   0.893   8.225  0.00  0.00    +0.000 NA
ATOM     31  C   UNL     1      45.655   2.062   8.664  0.00  0.00    +0.000 A 
ENDBRANCH  25  26
ENDBRANCH  23  25
ENDBRANCH  22  23
ENDBRANCH   4  22
TORSDOF 8
ENDMDL
MODEL 2
REMARK VINA RESULT:    -8.523      1.274      2.062
REMARK INTER + INTRA:         -13.489
REMARK INTER:                 -12.457
REMARK INTRA:                  -1.032
REMARK UNBOUND:                -0.981
REMARK  Name = 
REMARK  8 active torsions:
REMARK  status: ('A' for Active; 'I' for Inactive)
REMARK    1  A    between atoms: C_2  and  O_3
REMARK    2  A    between atoms: C_2  and  C_20
REMARK    3  A    between atoms: O_3  and  C_4
REMARK    4  A    between atoms: C_4  and  C_5
REMARK    5  A    between atoms: C_8  and  C_9
REMARK    6  A    between atoms: C_9  and  N_10
REMARK    7  A    between atoms: N_10  and  C_11
REMARK    8  A    between atoms: C_11  and  C_12
REMARK                            x       y       z     vdW  Elec       q    Type
REMARK                         _______ _______ _______ _____ _____    ______ ____
ROOT
ATOM      1  C   UNL     1      46.160   4.686  13.949  0.00  0.00    +0.000 C 
ATOM      2  C   UNL     1      46.122   3.483  12.991  0.00  0.00    +0.000 C 
ATOM      3  C   UNL     1      44.899   3.520  12.077  0.00  0.00    +0.000 C 
ATOM      4  C   UNL     1      44.821   4.842  11.298  0.00  0.00    +0.000 C 
ATOM      5  C   UNL     1      44.839   6.033  12.270  0.00  0.00    +0.000 C 
ATOM      6  C   UNL     1      46.065   6.006  13.177  0.00  0.00    +0.000 C 
ENDROOT
BRANCH   1   7
ATOM      7  C   UNL     1      47.415   4.649  14.826  0.00  0.00    +0.000 C 
BRANCH   7   8
ATOM      8  O   UNL     1      47.575   3.346  15.407  0.00  0.00    +0.000 OA
BRANCH   8  10
ATOM      9  O   UNL     1      46.598   2.944  17.432  0.00  0.00    +0.000 OA
ATOM     10  C   UNL     1      47.577   3.241  16.759  0.00  0.00    +0.000 C 
BRANCH  10  11
ATOM     11  C   UNL     1      48.904   3.460  17.333  0.00  0.00    +0.000 A 
ATOM     12  C   UNL     1      49.973   2.628  17.038  0.00  0.00    +0.000 A 
ATOM     13  S   UNL     1      51.419   3.075  17.834  0.00  0.00    +0.000 S 
ATOM     14  C   UNL     1      50.667   4.415  18.568  0.00  0.00    +0.000 A 
ATOM     15  N   UNL     1      51.369   5.253  19.377  0.00  0.00    +0.000 NA
ATOM     16  C   UNL     1      50.677   6.249  19.834  0.00  0.00    +0.000 A 
ATOM     17  N   UNL     1      49.354   6.465  19.564  0.00  0.00    +0.000 N 
ATOM     18  C   UNL     1      48.579   5.589  18.844  0.00  0.00    +0.000 A 
ATOM     19  O   UNL     1      47.366   5.749  18.783  0.00  0.00    +0.000 OA
ATOM     20  C   UNL     1      49.328   4.503  18.235  0.00  0.00    +0.000 A 
ATOM     21  H   UNL     1      48.857   7.237  19.985  0.00  0.00    +0.000 HD
ENDBRANCH  10  11
ENDBRANCH   8  10
ENDBRANCH   7   8
ENDBRANCH   1   7
BRANCH   4  22
ATOM     22  C   UNL     1      43.570   4.871  10.398  0.00  0.00    +0.000 C 
BRANCH  22  23
ATOM     23  N   UNL     1      43.877   4.282   9.096  0.00  0.00    +0.000 NA
ATOM     24  H   UNL     1      43.222   4.623   8.393  0.00  0.00    +0.000 HD
BRANCH  23  25
ATOM     25  C   UNL     1      45.243   4.565   8.668  0.00  0.00    +0.000 C 
BRANCH  25  26
ATOM     26  C   UNL     1      45.909   3.318   8.152  0.00  0.00    +0.000 A 
ATOM     27  C   UNL     1      46.892   3.361   7.157  0.00  0.00    +0.000 A 
ATOM     28  C   UNL     1      47.492   2.182   6.724  0.00  0.00    +0.000 A 
ATOM     29  C   UNL     1      47.085   0.990   7.300  0.00  0.00    +0.000 A 
ATOM     30  N   UNL     1      46.133   0.903   8.253  0.00  0.00    +0.000 NA
ATOM     31  C   UNL     1      45.569   2.066   8.653  0.00  0.00    +0.000 A 
ENDBRANCH  25  26
ENDBRANCH  23  25
ENDBRANCH  22  23
ENDBRANCH   4  22
TORSDOF 8
ENDMDL
MODEL 3
REMARK VINA RESULT:    -7.869      2.128      2.849
REMARK INTER + INTRA:         -12.530
REMARK INTER:                 -11.619
REMARK INTRA:                  -0.911
REMARK UNBOUND:                -0.981
REMARK  Name = 
REMARK  8 active torsions:
REMARK  status: ('A' for Active; 'I' for Inactive)
REMARK    1  A    between atoms: C_2  and  O_3
REMARK    2  A    between atoms: C_2  and  C_20
REMARK    3  A    between atoms: O_3  and  C_4
REMARK    4  A    between atoms: C_4  and  C_5
REMARK    5  A    between atoms: C_8  and  C_9
REMARK    6  A    between atoms: C_9  and  N_10
REMARK    7  A    between atoms: N_10  and  C_11
REMARK    8  A    between atoms: C_11  and  C_12
REMARK                            x       y       z     vdW  Elec       q    Type
REMARK                         _______ _______ _______ _____ _____    ______ ____
ROOT
ATOM      1  C   UNL     1      47.143   5.669  12.927  0.00  0.00    +0.000 C 
ATOM      2  C   UNL     1      46.052   6.314  12.055  0.00  0.00    +0.000 C 
ATOM      3  C   UNL     1      45.338   5.284  11.182  0.00  0.00    +0.000 C 
ATOM      4  C   UNL     1      44.758   4.139  12.026  0.00  0.00    +0.000 C 
ATOM      5  C   UNL     1      45.864   3.492  12.876  0.00  0.00    +0.000 C 
ATOM      6  C   UNL     1      46.572   4.515  13.758  0.00  0.00    +0.000 C 
ENDROOT
BRANCH   1   7
ATOM      7  C   UNL     1      47.817   6.712  13.824  0.00  0.00    +0.000 C 
BRANCH   7   8
ATOM      8  O   UNL     1      48.649   6.064  14.798  0.00  0.00    +0.000 OA
BRANCH   8  10
ATOM      9  O   UNL     1      50.465   7.418  15.100  0.00  0.00    +0.000 OA
ATOM     10  C   UNL     1      49.484   6.833  15.542  0.00  0.00    +0.000 C 
BRANCH  10  11
ATOM     11  C   UNL     1      49.047   6.945  16.933  0.00  0.00    +0.000 A 
ATOM     12  C   UNL     1      48.533   8.128  17.444  0.00  0.00    +0.000 A 
ATOM     13  S   UNL     1      48.101   8.021  19.094  0.00  0.00    +0.000 S 
ATOM     14  C   UNL     1      48.553   6.381  19.165  0.00  0.00    +0.000 A 
ATOM     15  N   UNL     1      48.411   5.666  20.314  0.00  0.00    +0.000 NA
ATOM     16  C   UNL     1      48.761   4.423  20.209  0.00  0.00    +0.000 A 
ATOM     17  N   UNL     1      49.248   3.846  19.069  0.00  0.00    +0.000 N 
ATOM     18  C   UNL     1      49.512   4.551  17.920  0.00  0.00    +0.000 A 
ATOM     19  O   UNL     1      50.109   4.017  16.993  0.00  0.00    +0.000 OA
ATOM     20  C   UNL     1      49.054   5.930  17.958  0.00  0.00    +0.000 A 
ATOM     21  H   UNL     1      49.545   2.880  19.061  0.00  0.00    +0.000 HD
ENDBRANCH  10  11
ENDBRANCH   8  10
ENDBRANCH   7   8
ENDBRANCH   1   7
BRANCH   4  22
ATOM     22  C   UNL     1      44.061   3.099  11.127  0.00  0.00    +0.000 C 
BRANCH  22  23
ATOM     23  N   UNL     1      45.032   2.488  10.222  0.00  0.00    +0.000 NA
ATOM     24  H   UNL     1      45.231   1.532  10.514  0.00  0.00    +0.000 HD
BRANCH  23  25
ATOM     25  C   UNL     1      44.575   2.489   8.836  0.00  0.00    +0.000 C 
BRANCH  25  26
ATOM     26  C   UNL     1      45.742   2.390   7.890  0.00  0.00    +0.000 A 
ATOM     27  C   UNL     1      46.020   3.389   6.951  0.00  0.00    +0.000 A 
ATOM     28  C   UNL     1      47.121   3.261   6.108  0.00  0.00    +0.000 A 
ATOM     29  C   UNL     1      47.910   2.129   6.230  0.00  0.00    +0.000 A 
ATOM     30  N   UNL     1      47.670   1.138   7.114  0.00  0.00    +0.000 NA
ATOM     31  C   UNL     1      46.594   1.292   7.918  0.00  0.00    +0.000 A 
ENDBRANCH  25  26
ENDBRANCH  23  25
ENDBRANCH  22  23
ENDBRANCH   4  22
TORSDOF 8
ENDMDL
MODEL 4
REMARK VINA RESULT:    -7.437      2.758      3.894
REMARK INTER + INTRA:         -11.896
REMARK INTER:                 -10.868
REMARK INTRA:                  -1.028
REMARK UNBOUND:                -0.981
REMARK  Name = 
REMARK  8 active torsions:
REMARK  status: ('A' for Active; 'I' for Inactive)
REMARK    1  A    between atoms: C_2  and  O_3
REMARK    2  A    between atoms: C_2  and  C_20
REMARK    3  A    between atoms: O_3  and  C_4
REMARK    4  A    between atoms: C_4  and  C_5
REMARK    5  A    between atoms: C_8  and  C_9
REMARK    6  A    between atoms: C_9  and  N_10
REMARK    7  A    between atoms: N_10  and  C_11
REMARK    8  A    between atoms: C_11  and  C_12
REMARK                            x       y       z     vdW  Elec       q    Type
REMARK                         _______ _______ _______ _____ _____    ______ ____
ROOT
ATOM      1  C   UNL     1      47.132   5.949  13.013  0.00  0.00    +0.000 C 
ATOM      2  C   UNL     1      46.003   6.660  12.248  0.00  0.00    +0.000 C 
ATOM      3  C   UNL     1      45.248   5.703  11.328  0.00  0.00    +0.000 C 
ATOM      4  C   UNL     1      44.706   4.492  12.102  0.00  0.00    +0.000 C 
ATOM      5  C   UNL     1      45.849   3.781  12.845  0.00  0.00    +0.000 C 
ATOM      6  C   UNL     1      46.599   4.731  13.773  0.00  0.00    +0.000 C 
ENDROOT
BRANCH   1   7
ATOM      7  C   UNL     1      47.848   6.918  13.960  0.00  0.00    +0.000 C 
BRANCH   7   8
ATOM      8  O   UNL     1      48.996   6.283  14.544  0.00  0.00    +0.000 OA
BRANCH   8  10
ATOM      9  O   UNL     1      50.458   7.851  15.331  0.00  0.00    +0.000 OA
ATOM     10  C   UNL     1      49.663   6.940  15.525  0.00  0.00    +0.000 C 
BRANCH  10  11
ATOM     11  C   UNL     1      49.281   6.484  16.861  0.00  0.00    +0.000 A 
ATOM     12  C   UNL     1      49.568   5.202  17.304  0.00  0.00    +0.000 A 
ATOM     13  S   UNL     1      49.015   4.896  18.893  0.00  0.00    +0.000 S 
ATOM     14  C   UNL     1      48.408   6.479  19.047  0.00  0.00    +0.000 A 
ATOM     15  N   UNL     1      47.817   6.891  20.201  0.00  0.00    +0.000 NA
ATOM     16  C   UNL     1      47.437   8.130  20.187  0.00  0.00    +0.000 A 
ATOM     17  N   UNL     1      47.586   8.977  19.124  0.00  0.00    +0.000 N 
ATOM     18  C   UNL     1      48.076   8.577  17.904  0.00  0.00    +0.000 A 
ATOM     19  O   UNL     1      48.023   9.333  16.942  0.00  0.00    +0.000 OA
ATOM     20  C   UNL     1      48.598   7.220  17.895  0.00  0.00    +0.000 A 
ATOM     21  H   UNL     1      47.230   9.921  19.158  0.00  0.00    +0.000 HD
ENDBRANCH  10  11
ENDBRANCH   8  10
ENDBRANCH   7   8
ENDBRANCH   1   7
BRANCH   4  22
ATOM     22  C   UNL     1      43.966   3.528  11.155  0.00  0.00    +0.000 C 
BRANCH  22  23
ATOM     23  N   UNL     1      44.908   2.565  10.586  0.00  0.00    +0.000 NA
ATOM     24  H   UNL     1      44.990   1.752  11.196  0.00  0.00    +0.000 HD
BRANCH  23  25
ATOM     25  C   UNL     1      44.518   2.133   9.248  0.00  0.00    +0.000 C 
BRANCH  25  26
ATOM     26  C   UNL     1      45.686   2.209   8.302  0.00  0.00    +0.000 A 
ATOM     27  C   UNL     1      46.068   3.408   7.692  0.00  0.00    +0.000 A 
ATOM     28  C   UNL     1      47.166   3.432   6.836  0.00  0.00    +0.000 A 
ATOM     29  C   UNL     1      47.848   2.248   6.614  0.00  0.00    +0.000 A 
ATOM     30  N   UNL     1      47.506   1.068   7.172  0.00  0.00    +0.000 NA
ATOM     31  C   UNL     1      46.435   1.077   7.999  0.00  0.00    +0.000 A 
ENDBRANCH  25  26
ENDBRANCH  23  25
ENDBRANCH  22  23
ENDBRANCH   4  22
TORSDOF 8
ENDMDL
MODEL 5
REMARK VINA RESULT:    -7.075      2.223      2.815
REMARK INTER + INTRA:         -11.365
REMARK INTER:                 -10.174
REMARK INTRA:                  -1.191
REMARK UNBOUND:                -0.981
REMARK  Name = 
REMARK  8 active torsions:
REMARK  status: ('A' for Active; 'I' for Inactive)
REMARK    1  A    between atoms: C_2  and  O_3
REMARK    2  A    between atoms: C_2  and  C_20
REMARK    3  A    between atoms: O_3  and  C_4
REMARK    4  A    between atoms: C_4  and  C_5
REMARK    5  A    between atoms: C_8  and  C_9
REMARK    6  A    between atoms: C_9  and  N_10
REMARK    7  A    between atoms: N_10  and  C_11
REMARK    8  A    between atoms: C_11  and  C_12
REMARK                            x       y       z     vdW  Elec       q    Type
REMARK                         _______ _______ _______ _____ _____    ______ ____
ROOT
ATOM      1  C   UNL     1      47.379   6.755  13.783  0.00  0.00    +0.000 C 
ATOM      2  C   UNL     1      47.172   5.322  13.266  0.00  0.00    +0.000 C 
ATOM      3  C   UNL     1      45.711   5.049  12.913  0.00  0.00    +0.000 C 
ATOM      4  C   UNL     1      45.176   6.076  11.905  0.00  0.00    +0.000 C 
ATOM      5  C   UNL     1      45.372   7.502  12.446  0.00  0.00    +0.000 C 
ATOM      6  C   UNL     1      46.831   7.783  12.788  0.00  0.00    +0.000 C 
ENDROOT
BRANCH   1   7
ATOM      7  C   UNL     1      48.856   7.020  14.090  0.00  0.00    +0.000 C 
BRANCH   7   8
ATOM      8  O   UNL     1      48.981   8.096  15.033  0.00  0.00    +0.000 OA
BRANCH   8  10
ATOM      9  O   UNL     1      48.227   8.227  17.185  0.00  0.00    +0.000 OA
ATOM     10  C   UNL     1      49.015   7.791  16.354  0.00  0.00    +0.000 C 
BRANCH  10  11
ATOM     11  C   UNL     1      50.063   6.825  16.677  0.00  0.00    +0.000 A 
ATOM     12  C   UNL     1      51.402   7.185  16.712  0.00  0.00    +0.000 A 
ATOM     13  S   UNL     1      52.442   5.886  17.102  0.00  0.00    +0.000 S 
ATOM     14  C   UNL     1      51.132   4.813  17.270  0.00  0.00    +0.000 A 
ATOM     15  N   UNL     1      51.333   3.515  17.625  0.00  0.00    +0.000 NA
ATOM     16  C   UNL     1      50.242   2.827  17.752  0.00  0.00    +0.000 A 
ATOM     17  N   UNL     1      48.983   3.319  17.542  0.00  0.00    +0.000 N 
ATOM     18  C   UNL     1      48.738   4.588  17.078  0.00  0.00    +0.000 A 
ATOM     19  O   UNL     1      47.605   4.912  16.744  0.00  0.00    +0.000 OA
ATOM     20  C   UNL     1      49.922   5.428  17.005  0.00  0.00    +0.000 A 
ATOM     21  H   UNL     1      48.173   2.721  17.614  0.00  0.00    +0.000 HD
ENDBRANCH  10  11
ENDBRANCH   8  10
ENDBRANCH   7   8
ENDBRANCH   1   7
BRANCH   4  22
ATOM     22  C   UNL     1      43.696   5.798  11.578  0.00  0.00    +0.000 C 
BRANCH  22  23
ATOM     23  N   UNL     1      43.581   5.196  10.251  0.00  0.00    +0.000 NA
ATOM     24  H   UNL     1      44.213   5.661   9.599  0.00  0.00    +0.000 HD
BRANCH  23  25
ATOM     25  C   UNL     1      43.864   3.765  10.266  0.00  0.00    +0.000 C 
BRANCH  25  26
ATOM     26  C   UNL     1      44.898   3.414   9.230  0.00  0.00    +0.000 A 
ATOM     27  C   UNL     1      45.296   2.094   8.998  0.00  0.00    +0.000 A 
ATOM     28  C   UNL     1      46.245   1.817   8.017  0.00  0.00    +0.000 A 
ATOM     29  C   UNL     1      46.771   2.878   7.298  0.00  0.00    +0.000 A 
ATOM     30  N   UNL     1      46.424   4.166   7.499  0.00  0.00    +0.000 NA
ATOM     31  C   UNL     1      45.500   4.402   8.458  0.00  0.00    +0.000 A 
ENDBRANCH  25  26
ENDBRANCH  23  25
ENDBRANCH  22  23
ENDBRANCH   4  22
TORSDOF 8
ENDMDL
MODEL 6
REMARK VINA RESULT:    -6.849      3.459      8.887
REMARK INTER + INTRA:         -11.033
REMARK INTER:                  -9.607
REMARK INTRA:                  -1.426
REMARK UNBOUND:                -0.981
REMARK  Name = 
REMARK  8 active torsions:
REMARK  status: ('A' for Active; 'I' for Inactive)
REMARK    1  A    between atoms: C_2  and  O_3
REMARK    2  A    between atoms: C_2  and  C_20
REMARK    3  A    between atoms: O_3  and  C_4
REMARK    4  A    between atoms: C_4  and  C_5
REMARK    5  A    between atoms: C_8  and  C_9
REMARK    6  A    between atoms: C_9  and  N_10
REMARK    7  A    between atoms: N_10  and  C_11
REMARK    8  A    between atoms: C_11  and  C_12
REMARK                            x       y       z     vdW  Elec       q    Type
REMARK                         _______ _______ _______ _____ _____    ______ ____
ROOT
ATOM      1  C   UNL     1      47.933   7.796  13.691  0.00  0.00    +0.000 C 
ATOM      2  C   UNL     1      47.859   9.082  14.531  0.00  0.00    +0.000 C 
ATOM      3  C   UNL     1      48.278   8.841  15.980  0.00  0.00    +0.000 C 
ATOM      4  C   UNL     1      49.678   8.215  16.062  0.00  0.00    +0.000 C 
ATOM      5  C   UNL     1      49.730   6.920  15.234  0.00  0.00    +0.000 C 
ATOM      6  C   UNL     1      49.323   7.159  13.783  0.00  0.00    +0.000 C 
ENDROOT
BRANCH   1   7
ATOM      7  C   UNL     1      47.549   8.070  12.234  0.00  0.00    +0.000 C 
BRANCH   7   8
ATOM      8  O   UNL     1      46.882   6.928  11.674  0.00  0.00    +0.000 OA
BRANCH   8  10
ATOM      9  O   UNL     1      44.888   7.999  11.371  0.00  0.00    +0.000 OA
ATOM     10  C   UNL     1      45.533   6.973  11.544  0.00  0.00    +0.000 C 
BRANCH  10  11
ATOM     11  C   UNL     1      44.926   5.642  11.567  0.00  0.00    +0.000 A 
ATOM     12  C   UNL     1      44.255   5.166  12.683  0.00  0.00    +0.000 A 
ATOM     13  S   UNL     1      43.641   3.584  12.479  0.00  0.00    +0.000 S 
ATOM     14  C   UNL     1      44.221   3.504  10.881  0.00  0.00    +0.000 A 
ATOM     15  N   UNL     1      44.005   2.401  10.113  0.00  0.00    +0.000 NA
ATOM     16  C   UNL     1      44.470   2.497   8.907  0.00  0.00    +0.000 A 
ATOM     17  N   UNL     1      45.138   3.585   8.416  0.00  0.00    +0.000 N 
ATOM     18  C   UNL     1      45.474   4.673   9.183  0.00  0.00    +0.000 A 
ATOM     19  O   UNL     1      46.221   5.535   8.736  0.00  0.00    +0.000 OA
ATOM     20  C   UNL     1      44.898   4.653  10.518  0.00  0.00    +0.000 A 
ATOM     21  H   UNL     1      45.516   3.583   7.479  0.00  0.00    +0.000 HD
ENDBRANCH  10  11
ENDBRANCH   8  10
ENDBRANCH   7   8
ENDBRANCH   1   7
BRANCH   4  22
ATOM     22  C   UNL     1      50.075   7.959  17.529  0.00  0.00    +0.000 C 
BRANCH  22  23
ATOM     23  N   UNL     1      48.904   7.544  18.299  0.00  0.00    +0.000 NA
ATOM     24  H   UNL     1      48.100   7.431  17.682  0.00  0.00    +0.000 HD
BRANCH  23  25
ATOM     25  C   UNL     1      49.134   6.302  19.031  0.00  0.00    +0.000 C 
BRANCH  25  26
ATOM     26  C   UNL     1      48.760   5.111  18.190  0.00  0.00    +0.000 A 
ATOM     27  C   UNL     1      47.439   4.862  17.804  0.00  0.00    +0.000 A 
ATOM     28  C   UNL     1      47.145   3.756  17.011  0.00  0.00    +0.000 A 
ATOM     29  C   UNL     1      48.188   2.927  16.632  0.00  0.00    +0.000 A 
ATOM     30  N   UNL     1      49.473   3.124  16.993  0.00  0.00    +0.000 NA
ATOM     31  C   UNL     1      49.727   4.207  17.762  0.00  0.00    +0.000 A 
ENDBRANCH  25  26
ENDBRANCH  23  25
ENDBRANCH  22  23
ENDBRANCH   4  22
TORSDOF 8
ENDMDL
MODEL 7
REMARK VINA RESULT:    -6.726      2.862      3.411
REMARK INTER + INTRA:         -10.853
REMARK INTER:                 -10.134
REMARK INTRA:                  -0.719
REMARK UNBOUND:                -0.981
REMARK  Name = 
REMARK  8 active torsions:
REMARK  status: ('A' for Active; 'I' for Inactive)
REMARK    1  A    between atoms: C_2  and  O_3
REMARK    2  A    between atoms: C_2  and  C_20
REMARK    3  A    between atoms: O_3  and  C_4
REMARK    4  A    between atoms: C_4  and  C_5
REMARK    5  A    between atoms: C_8  and  C_9
REMARK    6  A    between atoms: C_9  and  N_10
REMARK    7  A    between atoms: N_10  and  C_11
REMARK    8  A    between atoms: C_11  and  C_12
REMARK                            x       y       z     vdW  Elec       q    Type
REMARK                         _______ _______ _______ _____ _____    ______ ____
ROOT
ATOM      1  C   UNL     1      47.116   5.811  13.096  0.00  0.00    +0.000 C 
ATOM      2  C   UNL     1      45.821   6.384  12.495  0.00  0.00    +0.000 C 
ATOM      3  C   UNL     1      45.100   5.364  11.617  0.00  0.00    +0.000 C 
ATOM      4  C   UNL     1      44.817   4.064  12.384  0.00  0.00    +0.000 C 
ATOM      5  C   UNL     1      46.124   3.493  12.960  0.00  0.00    +0.000 C 
ATOM      6  C   UNL     1      46.842   4.504  13.847  0.00  0.00    +0.000 C 
ENDROOT
BRANCH   1   7
ATOM      7  C   UNL     1      47.800   6.836  14.005  0.00  0.00    +0.000 C 
BRANCH   7   8
ATOM      8  O   UNL     1      49.171   6.468  14.222  0.00  0.00    +0.000 OA
BRANCH   8  10
ATOM      9  O   UNL     1      50.034   8.535  14.672  0.00  0.00    +0.000 OA
ATOM     10  C   UNL     1      49.968   7.333  14.898  0.00  0.00    +0.000 C 
BRANCH  10  11
ATOM     11  C   UNL     1      50.703   6.683  15.983  0.00  0.00    +0.000 A 
ATOM     12  C   UNL     1      50.051   6.004  17.001  0.00  0.00    +0.000 A 
ATOM     13  S   UNL     1      51.116   5.337  18.160  0.00  0.00    +0.000 S 
ATOM     14  C   UNL     1      52.481   5.905  17.315  0.00  0.00    +0.000 A 
ATOM     15  N   UNL     1      53.738   5.649  17.767  0.00  0.00    +0.000 NA
ATOM     16  C   UNL     1      54.678   6.110  17.003  0.00  0.00    +0.000 A 
ATOM     17  N   UNL     1      54.467   6.810  15.847  0.00  0.00    +0.000 N 
ATOM     18  C   UNL     1      53.221   7.186  15.410  0.00  0.00    +0.000 A 
ATOM     19  O   UNL     1      53.107   7.958  14.466  0.00  0.00    +0.000 OA
ATOM     20  C   UNL     1      52.129   6.618  16.184  0.00  0.00    +0.000 A 
ATOM     21  H   UNL     1      55.242   7.182  15.316  0.00  0.00    +0.000 HD
ENDBRANCH  10  11
ENDBRANCH   8  10
ENDBRANCH   7   8
ENDBRANCH   1   7
BRANCH   4  22
ATOM     22  C   UNL     1      44.109   3.039  11.477  0.00  0.00    +0.000 C 
BRANCH  22  23
ATOM     23  N   UNL     1      45.043   2.527  10.476  0.00  0.00    +0.000 NA
ATOM     24  H   UNL     1      45.257   1.548  10.663  0.00  0.00    +0.000 HD
BRANCH  23  25
ATOM     25  C   UNL     1      44.528   2.661   9.117  0.00  0.00    +0.000 C 
BRANCH  25  26
ATOM     26  C   UNL     1      45.628   2.467   8.108  0.00  0.00    +0.000 A 
ATOM     27  C   UNL     1      45.978   3.465   7.194  0.00  0.00    +0.000 A 
ATOM     28  C   UNL     1      47.015   3.245   6.290  0.00  0.00    +0.000 A 
ATOM     29  C   UNL     1      47.669   2.025   6.329  0.00  0.00    +0.000 A 
ATOM     30  N   UNL     1      47.354   1.032   7.186  0.00  0.00    +0.000 NA
ATOM     31  C   UNL     1      46.344   1.276   8.051  0.00  0.00    +0.000 A 
ENDBRANCH  25  26
ENDBRANCH  23  25
ENDBRANCH  22  23
ENDBRANCH   4  22
TORSDOF 8
ENDMDL
MODEL 8
REMARK VINA RESULT:    -6.529      3.985      8.869
REMARK INTER + INTRA:         -10.564
REMARK INTER:                  -8.630
REMARK INTRA:                  -1.934
REMARK UNBOUND:                -0.981
REMARK  Name = 
REMARK  8 active torsions:
REMARK  status: ('A' for Active; 'I' for Inactive)
REMARK    1  A    between atoms: C_2  and  O_3
REMARK    2  A    between atoms: C_2  and  C_20
REMARK    3  A    between atoms: O_3  and  C_4
REMARK    4  A    between atoms: C_4  and  C_5
REMARK    5  A    between atoms: C_8  and  C_9
REMARK    6  A    between atoms: C_9  and  N_10
REMARK    7  A    between atoms: N_10  and  C_11
REMARK    8  A    between atoms: C_11  and  C_12
REMARK                            x       y       z     vdW  Elec       q    Type
REMARK                         _______ _______ _______ _____ _____    ______ ____
ROOT
ATOM      1  C   UNL     1      49.024   8.098  15.479  0.00  0.00    +0.000 C 
ATOM      2  C   UNL     1      48.987   8.744  16.874  0.00  0.00    +0.000 C 
ATOM      3  C   UNL     1      49.614   7.844  17.936  0.00  0.00    +0.000 C 
ATOM      4  C   UNL     1      51.048   7.444  17.557  0.00  0.00    +0.000 C 
ATOM      5  C   UNL     1      51.065   6.782  16.169  0.00  0.00    +0.000 C 
ATOM      6  C   UNL     1      50.450   7.683  15.103  0.00  0.00    +0.000 C 
ENDROOT
BRANCH   1   7
ATOM      7  C   UNL     1      48.428   9.036  14.424  0.00  0.00    +0.000 C 
BRANCH   7   8
ATOM      8  O   UNL     1      47.229   8.466  13.877  0.00  0.00    +0.000 OA
BRANCH   8  10
ATOM      9  O   UNL     1      48.041   8.059  11.781  0.00  0.00    +0.000 OA
ATOM     10  C   UNL     1      47.324   7.754  12.726  0.00  0.00    +0.000 C 
BRANCH  10  11
ATOM     11  C   UNL     1      46.521   6.533  12.758  0.00  0.00    +0.000 A 
ATOM     12  C   UNL     1      46.999   5.359  13.321  0.00  0.00    +0.000 A 
ATOM     13  S   UNL     1      45.887   4.064  13.232  0.00  0.00    +0.000 S 
ATOM     14  C   UNL     1      44.721   5.043  12.471  0.00  0.00    +0.000 A 
ATOM     15  N   UNL     1      43.500   4.544  12.136  0.00  0.00    +0.000 NA
ATOM     16  C   UNL     1      42.703   5.413  11.598  0.00  0.00    +0.000 A 
ATOM     17  N   UNL     1      43.027   6.719  11.357  0.00  0.00    +0.000 N 
ATOM     18  C   UNL     1      44.279   7.239  11.576  0.00  0.00    +0.000 A 
ATOM     19  O   UNL     1      44.556   8.364  11.179  0.00  0.00    +0.000 OA
ATOM     20  C   UNL     1      45.183   6.329  12.261  0.00  0.00    +0.000 A 
ATOM     21  H   UNL     1      42.377   7.339  10.894  0.00  0.00    +0.000 HD
ENDBRANCH  10  11
ENDBRANCH   8  10
ENDBRANCH   7   8
ENDBRANCH   1   7
BRANCH   4  22
ATOM     22  C   UNL     1      51.657   6.519  18.628  0.00  0.00    +0.000 C 
BRANCH  22  23
ATOM     23  N   UNL     1      50.640   5.595  19.128  0.00  0.00    +0.000 NA
ATOM     24  H   UNL     1      49.726   5.842  18.750  0.00  0.00    +0.000 HD
BRANCH  23  25
ATOM     25  C   UNL     1      50.944   4.206  18.801  0.00  0.00    +0.000 C 
BRANCH  25  26
ATOM     26  C   UNL     1      49.932   3.652  17.835  0.00  0.00    +0.000 A 
ATOM     27  C   UNL     1      48.704   4.282  17.606  0.00  0.00    +0.000 A 
ATOM     28  C   UNL     1      47.807   3.741  16.689  0.00  0.00    +0.000 A 
ATOM     29  C   UNL     1      48.167   2.577  16.030  0.00  0.00    +0.000 A 
ATOM     30  N   UNL     1      49.336   1.932  16.230  0.00  0.00    +0.000 NA
ATOM     31  C   UNL     1      50.186   2.483  17.126  0.00  0.00    +0.000 A 
ENDBRANCH  25  26
ENDBRANCH  23  25
ENDBRANCH  22  23
ENDBRANCH   4  22
TORSDOF 8
ENDMDL
MODEL 9
REMARK VINA RESULT:    -6.404      3.865      8.525
REMARK INTER + INTRA:         -10.380
REMARK INTER:                  -8.595
REMARK INTRA:                  -1.785
REMARK UNBOUND:                -0.981
REMARK  Name = 
REMARK  8 active torsions:
REMARK  status: ('A' for Active; 'I' for Inactive)
REMARK    1  A    between atoms: C_2  and  O_3
REMARK    2  A    between atoms: C_2  and  C_20
REMARK    3  A    between atoms: O_3  and  C_4
REMARK    4  A    between atoms: C_4  and  C_5
REMARK    5  A    between atoms: C_8  and  C_9
REMARK    6  A    between atoms: C_9  and  N_10
REMARK    7  A    between atoms: N_10  and  C_11
REMARK    8  A    between atoms: C_11  and  C_12
REMARK                            x       y       z     vdW  Elec       q    Type
REMARK                         _______ _______ _______ _____ _____    ______ ____
ROOT
ATOM      1  C   UNL     1      48.362   8.072  15.024  0.00  0.00    +0.000 C 
ATOM      2  C   UNL     1      48.275   8.968  16.271  0.00  0.00    +0.000 C 
ATOM      3  C   UNL     1      48.571   8.190  17.552  0.00  0.00    +0.000 C 
ATOM      4  C   UNL     1      49.933   7.485  17.479  0.00  0.00    +0.000 C 
ATOM      5  C   UNL     1      49.996   6.579  16.238  0.00  0.00    +0.000 C 
ATOM      6  C   UNL     1      49.713   7.354  14.955  0.00  0.00    +0.000 C 
ENDROOT
BRANCH   1   7
ATOM      7  C   UNL     1      48.103   8.881  13.749  0.00  0.00    +0.000 C 
BRANCH   7   8
ATOM      8  O   UNL     1      46.896   8.431  13.113  0.00  0.00    +0.000 OA
BRANCH   8  10
ATOM      9  O   UNL     1      48.030   7.109  11.635  0.00  0.00    +0.000 OA
ATOM     10  C   UNL     1      46.989   7.446  12.186  0.00  0.00    +0.000 C 
BRANCH  10  11
ATOM     11  C   UNL     1      45.710   6.775  11.955  0.00  0.00    +0.000 A 
ATOM     12  C   UNL     1      44.629   7.437  11.392  0.00  0.00    +0.000 A 
ATOM     13  S   UNL     1      43.242   6.453  11.230  0.00  0.00    +0.000 S 
ATOM     14  C   UNL     1      44.055   5.103  11.874  0.00  0.00    +0.000 A 
ATOM     15  N   UNL     1      43.429   3.900  11.990  0.00  0.00    +0.000 NA
ATOM     16  C   UNL     1      44.182   2.956  12.460  0.00  0.00    +0.000 A 
ATOM     17  N   UNL     1      45.488   3.116  12.833  0.00  0.00    +0.000 N 
ATOM     18  C   UNL     1      46.128   4.331  12.836  0.00  0.00    +0.000 A 
ATOM     19  O   UNL     1      47.238   4.441  13.343  0.00  0.00    +0.000 OA
ATOM     20  C   UNL     1      45.355   5.406  12.234  0.00  0.00    +0.000 A 
ATOM     21  H   UNL     1      46.012   2.351  13.234  0.00  0.00    +0.000 HD
ENDBRANCH  10  11
ENDBRANCH   8  10
ENDBRANCH   7   8
ENDBRANCH   1   7
BRANCH   4  22
ATOM     22  C   UNL     1      50.205   6.689  18.770  0.00  0.00    +0.000 C 
BRANCH  22  23
ATOM     23  N   UNL     1      48.953   6.459  19.489  0.00  0.00    +0.000 NA
ATOM     24  H   UNL     1      48.165   6.803  18.940  0.00  0.00    +0.000 HD
BRANCH  23  25
ATOM     25  C   UNL     1      48.748   5.050  19.807  0.00  0.00    +0.000 C 
BRANCH  25  26
ATOM     26  C   UNL     1      48.478   4.255  18.558  0.00  0.00    +0.000 A 
ATOM     27  C   UNL     1      49.373   3.289  18.088  0.00  0.00    +0.000 A 
ATOM     28  C   UNL     1      49.072   2.566  16.936  0.00  0.00    +0.000 A 
ATOM     29  C   UNL     1      47.879   2.838  16.287  0.00  0.00    +0.000 A 
ATOM     30  N   UNL     1      46.994   3.769  16.700  0.00  0.00    +0.000 NA
ATOM     31  C   UNL     1      47.315   4.454  17.821  0.00  0.00    +0.000 A 
ENDBRANCH  25  26
ENDBRANCH  23  25
ENDBRANCH  22  23
ENDBRANCH   4  22
TORSDOF 8
ENDMDL
