MODEL 1
REMARK VINA RESULT:    -7.233      0.000      0.000
REMARK INTER + INTRA:         -10.185
REMARK INTER:                  -9.558
REMARK INTRA:                  -0.627
REMARK UNBOUND:                -0.627
REMARK  Name = 
REMARK  6 active torsions:
REMARK  status: ('A' for Active; 'I' for Inactive)
REMARK    1  A    between atoms: N_1  and  C_2
REMARK    2  A    between atoms: C_2  and  C_3
REMARK    3  A    between atoms: C_7  and  N_8
REMARK    4  A    between atoms: N_8  and  C_9
REMARK    5  A    between atoms: C_9  and  C_10
REMARK    6  A    between atoms: C_10  and  C_11
REMARK                            x       y       z     vdW  Elec       q    Type
REMARK                         _______ _______ _______ _____ _____    ______ ____
ROOT
ATOM      1  C   UNL     1      46.492   2.182   7.699  0.00  0.00    +0.000 A 
ATOM      2  C   UNL     1      46.595   3.539   7.377  0.00  0.00    +0.000 A 
ATOM      3  C   UNL     1      45.892   4.488   8.111  0.00  0.00    +0.000 A 
ATOM      4  C   UNL     1      45.055   4.089   9.154  0.00  0.00    +0.000 A 
ATOM      5  C   UNL     1      44.879   2.734   9.468  0.00  0.00    +0.000 A 
ATOM      6  C   UNL     1      45.649   1.797   8.758  0.00  0.00    +0.000 A 
ENDROOT
BRANCH   5   7
ATOM      7  N   UNL     1      44.076   2.291  10.537  0.00  0.00    +0.000 N 
ATOM      8  H   UNL     1      43.485   1.518  10.235  0.00  0.00    +0.000 HD
BRANCH   7   9
ATOM      9  C   UNL     1      43.298   3.316  11.251  0.00  0.00    +0.000 C 
BRANCH   9  10
ATOM     10  C   UNL     1      43.693   3.365  12.729  0.00  0.00    +0.000 C 
BRANCH  10  11
ATOM     11  C   UNL     1      44.833   4.327  12.944  0.00  0.00    +0.000 A 
ATOM     12  C   UNL     1      44.753   5.642  12.489  0.00  0.00    +0.000 A 
ATOM     13  C   UNL     1      45.823   6.501  12.724  0.00  0.00    +0.000 A 
ATOM     14  C   UNL     1      46.937   6.032  13.409  0.00  0.00    +0.000 A 
ATOM     15  C   UNL     1      46.931   4.715  13.837  0.00  0.00    +0.000 A 
ATOM     16  N   UNL     1      45.908   3.859  13.625  0.00  0.00    +0.000 NA
ENDBRANCH  10  11
ENDBRANCH   9  10
ENDBRANCH   7   9
ENDBRANCH   5   7
BRANCH   1  17
ATOM     17  C   UNL     1      47.255   1.154   6.903  0.00  0.00    +0.000 C 
BRANCH  17  18
ATOM     18  N   UNL     1      48.413   1.737   6.233  0.00  0.00    +0.000 NA
ATOM     19  H   UNL     1      49.073   2.065   6.934  0.00  0.00    +0.000 HD
ATOM     20  H   UNL     1      48.108   2.558   5.713  0.00  0.00    +0.000 HD
ENDBRANCH  17  18
ENDBRANCH   1  17
TORSDOF 6
ENDMDL
MODEL 2
REMARK VINA RESULT:    -7.157      1.452      5.811
REMARK INTER + INTRA:         -10.086
REMARK INTER:                  -9.577
REMARK INTRA:                  -0.508
REMARK UNBOUND:                -0.627
REMARK  Name = 
REMARK  6 active torsions:
REMARK  status: ('A' for Active; 'I' for Inactive)
REMARK    1  A    between atoms: N_1  and  C_2
REMARK    2  A    between atoms: C_2  and  C_3
REMARK    3  A    between atoms: C_7  and  N_8
REMARK    4  A    between atoms: N_8  and  C_9
REMARK    5  A    between atoms: C_9  and  C_10
REMARK    6  A    between atoms: C_10  and  C_11
REMARK                            x       y       z     vdW  Elec       q    Type
REMARK                         _______ _______ _______ _____ _____    ______ ____
ROOT
ATOM      1  C   UNL     1      46.480   5.087  13.501  0.00  0.00    +0.000 A 
ATOM      2  C   UNL     1      47.153   6.179  12.941  0.00  0.00    +0.000 A 
ATOM      3  C   UNL     1      46.735   6.712  11.727  0.00  0.00    +0.000 A 
ATOM      4  C   UNL     1      45.660   6.141  11.043  0.00  0.00    +0.000 A 
ATOM      5  C   UNL     1      45.000   5.010  11.542  0.00  0.00    +0.000 A 
ATOM      6  C   UNL     1      45.395   4.528  12.801  0.00  0.00    +0.000 A 
ENDROOT
BRANCH   5   7
ATOM      7  N   UNL     1      43.886   4.427  10.904  0.00  0.00    +0.000 N 
ATOM      8  H   UNL     1      43.494   3.690  11.489  0.00  0.00    +0.000 HD
BRANCH   7   9
ATOM      9  C   UNL     1      44.079   3.971   9.519  0.00  0.00    +0.000 C 
BRANCH   9  10
ATOM     10  C   UNL     1      44.626   2.542   9.490  0.00  0.00    +0.000 C 
BRANCH  10  11
ATOM     11  C   UNL     1      45.626   2.376   8.375  0.00  0.00    +0.000 A 
ATOM     12  C   UNL     1      45.908   3.428   7.506  0.00  0.00    +0.000 A 
ATOM     13  C   UNL     1      46.851   3.236   6.500  0.00  0.00    +0.000 A 
ATOM     14  C   UNL     1      47.491   2.008   6.391  0.00  0.00    +0.000 A 
ATOM     15  C   UNL     1      47.162   1.019   7.302  0.00  0.00    +0.000 A 
ATOM     16  N   UNL     1      46.253   1.177   8.289  0.00  0.00    +0.000 NA
ENDBRANCH  10  11
ENDBRANCH   9  10
ENDBRANCH   7   9
ENDBRANCH   5   7
BRANCH   1  17
ATOM     17  C   UNL     1      46.935   4.511  14.817  0.00  0.00    +0.000 C 
BRANCH  17  18
ATOM     18  N   UNL     1      47.525   3.187  14.655  0.00  0.00    +0.000 NA
ATOM     19  H   UNL     1      48.441   3.174  15.098  0.00  0.00    +0.000 HD
ATOM     20  H   UNL     1      47.679   3.019  13.662  0.00  0.00    +0.000 HD
ENDBRANCH  17  18
ENDBRANCH   1  17
TORSDOF 6
ENDMDL
MODEL 3
REMARK VINA RESULT:    -6.860      1.470      2.124
REMARK INTER + INTRA:          -9.692
REMARK INTER:                  -9.015
REMARK INTRA:                  -0.677
REMARK UNBOUND:                -0.627
REMARK  Name = 
REMARK  6 active torsions:
REMARK  status: ('A' for Active; 'I' for Inactive)
REMARK    1  A    between atoms: N_1  and  C_2
REMARK    2  A    between atoms: C_2  and  C_3
REMARK    3  A    between atoms: C_7  and  N_8
REMARK    4  A    between atoms: N_8  and  C_9
REMARK    5  A    between atoms: C_9  and  C_10
REMARK    6  A    between atoms: C_10  and  C_11
REMARK                            x       y       z     vdW  Elec       q    Type
REMARK                         _______ _______ _______ _____ _____    ______ ____
ROOT
ATOM      1  C   UNL     1      46.636   2.754   7.077  0.00  0.00    +0.000 A 
ATOM      2  C   UNL     1      46.465   1.484   7.637  0.00  0.00    +0.000 A 
ATOM      3  C   UNL     1      45.593   1.301   8.705  0.00  0.00    +0.000 A 
ATOM      4  C   UNL     1      44.907   2.390   9.245  0.00  0.00    +0.000 A 
ATOM      5  C   UNL     1      45.098   3.688   8.750  0.00  0.00    +0.000 A 
ATOM      6  C   UNL     1      45.932   3.840   7.629  0.00  0.00    +0.000 A 
ENDROOT
BRANCH   5   7
ATOM      7  N   UNL     1      44.396   4.808   9.238  0.00  0.00    +0.000 N 
ATOM      8  H   UNL     1      45.035   5.590   9.375  0.00  0.00    +0.000 HD
BRANCH   7   9
ATOM      9  C   UNL     1      43.547   4.594  10.420  0.00  0.00    +0.000 C 
BRANCH   9  10
ATOM     10  C   UNL     1      43.646   5.780  11.382  0.00  0.00    +0.000 C 
BRANCH  10  11
ATOM     11  C   UNL     1      45.017   5.848  12.004  0.00  0.00    +0.000 A 
ATOM     12  C   UNL     1      45.326   5.096  13.136  0.00  0.00    +0.000 A 
ATOM     13  C   UNL     1      46.611   5.177  13.667  0.00  0.00    +0.000 A 
ATOM     14  C   UNL     1      47.552   5.996  13.055  0.00  0.00    +0.000 A 
ATOM     15  C   UNL     1      47.166   6.701  11.928  0.00  0.00    +0.000 A 
ATOM     16  N   UNL     1      45.929   6.641  11.389  0.00  0.00    +0.000 NA
ENDBRANCH  10  11
ENDBRANCH   9  10
ENDBRANCH   7   9
ENDBRANCH   5   7
BRANCH   1  17
ATOM     17  C   UNL     1      47.581   2.950   5.919  0.00  0.00    +0.000 C 
BRANCH  17  18
ATOM     18  N   UNL     1      48.475   1.810   5.749  0.00  0.00    +0.000 NA
ATOM     19  H   UNL     1      47.956   1.040   5.333  0.00  0.00    +0.000 HD
ATOM     20  H   UNL     1      48.777   1.494   6.669  0.00  0.00    +0.000 HD
ENDBRANCH  17  18
ENDBRANCH   1  17
TORSDOF 6
ENDMDL
MODEL 4
REMARK VINA RESULT:    -6.620      1.718      6.214
REMARK INTER + INTRA:          -9.375
REMARK INTER:                  -8.980
REMARK INTRA:                  -0.395
REMARK UNBOUND:                -0.627
REMARK  Name = 
REMARK  6 active torsions:
REMARK  status: ('A' for Active; 'I' for Inactive)
REMARK    1  A    between atoms: N_1  and  C_2
REMARK    2  A    between atoms: C_2  and  C_3
REMARK    3  A    between atoms: C_7  and  N_8
REMARK    4  A    between atoms: N_8  and  C_9
REMARK    5  A    between atoms: C_9  and  C_10
REMARK    6  A    between atoms: C_10  and  C_11
REMARK                            x       y       z     vdW  Elec       q    Type
REMARK                         _______ _______ _______ _____ _____    ______ ____
ROOT
ATOM      1  C   UNL     1      45.786   6.876  12.729  0.00  0.00    +0.000 A 
ATOM      2  C   UNL     1      46.657   6.094  13.495  0.00  0.00    +0.000 A 
ATOM      3  C   UNL     1      46.580   4.706  13.444  0.00  0.00    +0.000 A 
ATOM      4  C   UNL     1      45.613   4.086  12.651  0.00  0.00    +0.000 A 
ATOM      5  C   UNL     1      44.684   4.837  11.917  0.00  0.00    +0.000 A 
ATOM      6  C   UNL     1      44.821   6.235  11.931  0.00  0.00    +0.000 A 
ENDROOT
BRANCH   5   7
ATOM      7  N   UNL     1      43.717   4.252  11.075  0.00  0.00    +0.000 N 
ATOM      8  H   UNL     1      43.320   3.425  11.518  0.00  0.00    +0.000 HD
BRANCH   7   9
ATOM      9  C   UNL     1      44.127   3.976   9.689  0.00  0.00    +0.000 C 
BRANCH   9  10
ATOM     10  C   UNL     1      44.546   2.513   9.528  0.00  0.00    +0.000 C 
BRANCH  10  11
ATOM     11  C   UNL     1      45.554   2.367   8.417  0.00  0.00    +0.000 A 
ATOM     12  C   UNL     1      45.847   3.435   7.573  0.00  0.00    +0.000 A 
ATOM     13  C   UNL     1      46.797   3.261   6.570  0.00  0.00    +0.000 A 
ATOM     14  C   UNL     1      47.433   2.033   6.441  0.00  0.00    +0.000 A 
ATOM     15  C   UNL     1      47.093   1.026   7.328  0.00  0.00    +0.000 A 
ATOM     16  N   UNL     1      46.176   1.166   8.311  0.00  0.00    +0.000 NA
ENDBRANCH  10  11
ENDBRANCH   9  10
ENDBRANCH   7   9
ENDBRANCH   5   7
BRANCH   1  17
ATOM     17  C   UNL     1      45.871   8.380  12.786  0.00  0.00    +0.000 C 
BRANCH  17  18
ATOM     18  N   UNL     1      46.621   8.838  13.950  0.00  0.00    +0.000 NA
ATOM     19  H   UNL     1      46.614   8.109  14.659  0.00  0.00    +0.000 HD
ATOM     20  H   UNL     1      46.138   9.640  14.353  0.00  0.00    +0.000 HD
ENDBRANCH  17  18
ENDBRANCH   1  17
TORSDOF 6
ENDMDL
MODEL 5
REMARK VINA RESULT:    -5.829      1.844      6.159
REMARK INTER + INTRA:          -8.330
REMARK INTER:                  -8.038
REMARK INTRA:                  -0.292
REMARK UNBOUND:                -0.627
REMARK  Name = 
REMARK  6 active torsions:
REMARK  status: ('A' for Active; 'I' for Inactive)
REMARK    1  A    between atoms: N_1  and  C_2
REMARK    2  A    between atoms: C_2  and  C_3
REMARK    3  A    between atoms: C_7  and  N_8
REMARK    4  A    between atoms: N_8  and  C_9
REMARK    5  A    between atoms: C_9  and  C_10
REMARK    6  A    between atoms: C_10  and  C_11
REMARK                            x       y       z     vdW  Elec       q    Type
REMARK                         _______ _______ _______ _____ _____    ______ ____
ROOT
ATOM      1  C   UNL     1      45.511   6.899  11.874  0.00  0.00    +0.000 A 
ATOM      2  C   UNL     1      44.225   7.424  11.710  0.00  0.00    +0.000 A 
ATOM      3  C   UNL     1      43.167   6.590  11.366  0.00  0.00    +0.000 A 
ATOM      4  C   UNL     1      43.388   5.229  11.152  0.00  0.00    +0.000 A 
ATOM      5  C   UNL     1      44.672   4.677  11.247  0.00  0.00    +0.000 A 
ATOM      6  C   UNL     1      45.715   5.523  11.660  0.00  0.00    +0.000 A 
ENDROOT
BRANCH   5   7
ATOM      7  N   UNL     1      44.933   3.302  11.078  0.00  0.00    +0.000 N 
ATOM      8  H   UNL     1      45.931   3.120  11.169  0.00  0.00    +0.000 HD
BRANCH   7   9
ATOM      9  C   UNL     1      44.378   2.666   9.873  0.00  0.00    +0.000 C 
BRANCH   9  10
ATOM     10  C   UNL     1      44.638   3.528   8.635  0.00  0.00    +0.000 C 
BRANCH  10  11
ATOM     11  C   UNL     1      45.747   2.940   7.801  0.00  0.00    +0.000 A 
ATOM     12  C   UNL     1      46.270   1.682   8.091  0.00  0.00    +0.000 A 
ATOM     13  C   UNL     1      47.283   1.172   7.283  0.00  0.00    +0.000 A 
ATOM     14  C   UNL     1      47.740   1.922   6.207  0.00  0.00    +0.000 A 
ATOM     15  C   UNL     1      47.159   3.158   5.981  0.00  0.00    +0.000 A 
ATOM     16  N   UNL     1      46.174   3.678   6.746  0.00  0.00    +0.000 NA
ENDBRANCH  10  11
ENDBRANCH   9  10
ENDBRANCH   7   9
ENDBRANCH   5   7
BRANCH   1  17
ATOM     17  C   UNL     1      46.658   7.804  12.247  0.00  0.00    +0.000 C 
BRANCH  17  18
ATOM     18  N   UNL     1      46.547   8.282  13.621  0.00  0.00    +0.000 NA
ATOM     19  H   UNL     1      46.635   7.492  14.256  0.00  0.00    +0.000 HD
ATOM     20  H   UNL     1      45.612   8.663  13.758  0.00  0.00    +0.000 HD
ENDBRANCH  17  18
ENDBRANCH   1  17
TORSDOF 6
ENDMDL
MODEL 6
REMARK VINA RESULT:    -5.651      2.566      6.500
REMARK INTER + INTRA:          -8.095
REMARK INTER:                  -7.500
REMARK INTRA:                  -0.595
REMARK UNBOUND:                -0.627
REMARK  Name = 
REMARK  6 active torsions:
REMARK  status: ('A' for Active; 'I' for Inactive)
REMARK    1  A    between atoms: N_1  and  C_2
REMARK    2  A    between atoms: C_2  and  C_3
REMARK    3  A    between atoms: C_7  and  N_8
REMARK    4  A    between atoms: N_8  and  C_9
REMARK    5  A    between atoms: C_9  and  C_10
REMARK    6  A    between atoms: C_10  and  C_11
REMARK                            x       y       z     vdW  Elec       q    Type
REMARK                         _______ _______ _______ _____ _____    ______ ____
ROOT
ATOM      1  C   UNL     1      45.454   8.583  12.182  0.00  0.00    +0.000 A 
ATOM      2  C   UNL     1      46.428   8.565  13.186  0.00  0.00    +0.000 A 
ATOM      3  C   UNL     1      47.181   7.418  13.412  0.00  0.00    +0.000 A 
ATOM      4  C   UNL     1      46.947   6.267  12.658  0.00  0.00    +0.000 A 
ATOM      5  C   UNL     1      45.940   6.227  11.684  0.00  0.00    +0.000 A 
ATOM      6  C   UNL     1      45.236   7.416  11.427  0.00  0.00    +0.000 A 
ENDROOT
BRANCH   5   7
ATOM      7  N   UNL     1      45.698   5.100  10.874  0.00  0.00    +0.000 N 
ATOM      8  H   UNL     1      46.400   5.040  10.138  0.00  0.00    +0.000 HD
BRANCH   7   9
ATOM      9  C   UNL     1      44.338   4.951  10.333  0.00  0.00    +0.000 C 
BRANCH   9  10
ATOM     10  C   UNL     1      44.112   3.530   9.813  0.00  0.00    +0.000 C 
BRANCH  10  11
ATOM     11  C   UNL     1      45.178   3.152   8.816  0.00  0.00    +0.000 A 
ATOM     12  C   UNL     1      45.625   1.837   8.712  0.00  0.00    +0.000 A 
ATOM     13  C   UNL     1      46.599   1.531   7.766  0.00  0.00    +0.000 A 
ATOM     14  C   UNL     1      47.094   2.537   6.946  0.00  0.00    +0.000 A 
ATOM     15  C   UNL     1      46.588   3.815   7.106  0.00  0.00    +0.000 A 
ATOM     16  N   UNL     1      45.642   4.142   8.014  0.00  0.00    +0.000 NA
ENDBRANCH  10  11
ENDBRANCH   9  10
ENDBRANCH   7   9
ENDBRANCH   5   7
BRANCH   1  17
ATOM     17  C   UNL     1      44.640   9.828  11.938  0.00  0.00    +0.000 C 
BRANCH  17  18
ATOM     18  N   UNL     1      45.456  10.917  11.413  0.00  0.00    +0.000 NA
ATOM     19  H   UNL     1      44.851  11.600  10.963  0.00  0.00    +0.000 HD
ATOM     20  H   UNL     1      46.065  10.545  10.686  0.00  0.00    +0.000 HD
ENDBRANCH  17  18
ENDBRANCH   1  17
TORSDOF 6
ENDMDL
MODEL 7
REMARK VINA RESULT:    -5.552      3.657      6.018
REMARK INTER + INTRA:          -7.964
REMARK INTER:                  -7.667
REMARK INTRA:                  -0.297
REMARK UNBOUND:                -0.627
REMARK  Name = 
REMARK  6 active torsions:
REMARK  status: ('A' for Active; 'I' for Inactive)
REMARK    1  A    between atoms: N_1  and  C_2
REMARK    2  A    between atoms: C_2  and  C_3
REMARK    3  A    between atoms: C_7  and  N_8
REMARK    4  A    between atoms: N_8  and  C_9
REMARK    5  A    between atoms: C_9  and  C_10
REMARK    6  A    between atoms: C_10  and  C_11
REMARK                            x       y       z     vdW  Elec       q    Type
REMARK                         _______ _______ _______ _____ _____    ______ ____
ROOT
ATOM      1  C   UNL     1      44.668   5.133  11.867  0.00  0.00    +0.000 A 
ATOM      2  C   UNL     1      45.427   6.239  11.468  0.00  0.00    +0.000 A 
ATOM      3  C   UNL     1      46.654   6.500  12.067  0.00  0.00    +0.000 A 
ATOM      4  C   UNL     1      47.122   5.677  13.093  0.00  0.00    +0.000 A 
ATOM      5  C   UNL     1      46.364   4.596  13.562  0.00  0.00    +0.000 A 
ATOM      6  C   UNL     1      45.158   4.311  12.899  0.00  0.00    +0.000 A 
ENDROOT
BRANCH   5   7
ATOM      7  N   UNL     1      46.816   3.717  14.567  0.00  0.00    +0.000 N 
ATOM      8  H   UNL     1      46.110   3.009  14.757  0.00  0.00    +0.000 HD
BRANCH   7   9
ATOM      9  C   UNL     1      47.312   4.331  15.809  0.00  0.00    +0.000 C 
BRANCH   9  10
ATOM     10  C   UNL     1      47.539   3.268  16.886  0.00  0.00    +0.000 C 
BRANCH  10  11
ATOM     11  C   UNL     1      49.010   3.099  17.167  0.00  0.00    +0.000 A 
ATOM     12  C   UNL     1      49.723   4.078  17.856  0.00  0.00    +0.000 A 
ATOM     13  C   UNL     1      51.076   3.872  18.108  0.00  0.00    +0.000 A 
ATOM     14  C   UNL     1      51.680   2.699  17.675  0.00  0.00    +0.000 A 
ATOM     15  C   UNL     1      50.898   1.772  17.006  0.00  0.00    +0.000 A 
ATOM     16  N   UNL     1      49.583   1.943  16.749  0.00  0.00    +0.000 NA
ENDBRANCH  10  11
ENDBRANCH   9  10
ENDBRANCH   7   9
ENDBRANCH   5   7
BRANCH   1  17
ATOM     17  C   UNL     1      43.338   4.852  11.216  0.00  0.00    +0.000 C 
BRANCH  17  18
ATOM     18  N   UNL     1      42.940   3.458  11.376  0.00  0.00    +0.000 NA
ATOM     19  H   UNL     1      43.744   2.860  11.202  0.00  0.00    +0.000 HD
ATOM     20  H   UNL     1      42.249   3.233  10.661  0.00  0.00    +0.000 HD
ENDBRANCH  17  18
ENDBRANCH   1  17
TORSDOF 6
ENDMDL
MODEL 8
REMARK VINA RESULT:    -5.278      2.195      6.815
REMARK INTER + INTRA:          -7.602
REMARK INTER:                  -7.083
REMARK INTRA:                  -0.519
REMARK UNBOUND:                -0.627
REMARK  Name = 
REMARK  6 active torsions:
REMARK  status: ('A' for Active; 'I' for Inactive)
REMARK    1  A    between atoms: N_1  and  C_2
REMARK    2  A    between atoms: C_2  and  C_3
REMARK    3  A    between atoms: C_7  and  N_8
REMARK    4  A    between atoms: N_8  and  C_9
REMARK    5  A    between atoms: C_9  and  C_10
REMARK    6  A    between atoms: C_10  and  C_11
REMARK                            x       y       z     vdW  Elec       q    Type
REMARK                         _______ _______ _______ _____ _____    ______ ____
ROOT
ATOM      1  C   UNL     1      47.720   4.840  16.155  0.00  0.00    +0.000 A 
ATOM      2  C   UNL     1      48.631   5.897  16.264  0.00  0.00    +0.000 A 
ATOM      3  C   UNL     1      48.820   6.771  15.199  0.00  0.00    +0.000 A 
ATOM      4  C   UNL     1      48.125   6.580  14.003  0.00  0.00    +0.000 A 
ATOM      5  C   UNL     1      47.250   5.498  13.835  0.00  0.00    +0.000 A 
ATOM      6  C   UNL     1      47.024   4.666  14.945  0.00  0.00    +0.000 A 
ENDROOT
BRANCH   5   7
ATOM      7  N   UNL     1      46.500   5.292  12.660  0.00  0.00    +0.000 N 
ATOM      8  H   UNL     1      46.729   6.003  11.968  0.00  0.00    +0.000 HD
BRANCH   7   9
ATOM      9  C   UNL     1      45.044   5.146  12.820  0.00  0.00    +0.000 C 
BRANCH   9  10
ATOM     10  C   UNL     1      44.583   3.765  12.350  0.00  0.00    +0.000 C 
BRANCH  10  11
ATOM     11  C   UNL     1      44.750   3.626  10.859  0.00  0.00    +0.000 A 
ATOM     12  C   UNL     1      44.453   2.427  10.215  0.00  0.00    +0.000 A 
ATOM     13  C   UNL     1      44.606   2.349   8.834  0.00  0.00    +0.000 A 
ATOM     14  C   UNL     1      45.042   3.465   8.132  0.00  0.00    +0.000 A 
ATOM     15  C   UNL     1      45.305   4.622   8.846  0.00  0.00    +0.000 A 
ATOM     16  N   UNL     1      45.164   4.728  10.186  0.00  0.00    +0.000 NA
ENDBRANCH  10  11
ENDBRANCH   9  10
ENDBRANCH   7   9
ENDBRANCH   5   7
BRANCH   1  17
ATOM     17  C   UNL     1      47.516   3.894  17.311  0.00  0.00    +0.000 C 
BRANCH  17  18
ATOM     18  N   UNL     1      46.780   4.522  18.402  0.00  0.00    +0.000 NA
ATOM     19  H   UNL     1      47.172   5.443  18.583  0.00  0.00    +0.000 HD
ATOM     20  H   UNL     1      46.923   3.973  19.249  0.00  0.00    +0.000 HD
ENDBRANCH  17  18
ENDBRANCH   1  17
TORSDOF 6
ENDMDL
MODEL 9
REMARK VINA RESULT:    -5.184      2.897      4.887
REMARK INTER + INTRA:          -7.479
REMARK INTER:                  -6.833
REMARK INTRA:                  -0.645
REMARK UNBOUND:                -0.627
REMARK  Name = 
REMARK  6 active torsions:
REMARK  status: ('A' for Active; 'I' for Inactive)
REMARK    1  A    between atoms: N_1  and  C_2
REMARK    2  A    between atoms: C_2  and  C_3
REMARK    3  A    between atoms: C_7  and  N_8
REMARK    4  A    between atoms: N_8  and  C_9
REMARK    5  A    between atoms: C_9  and  C_10
REMARK    6  A    between atoms: C_10  and  C_11
REMARK                            x       y       z     vdW  Elec       q    Type
REMARK                         _______ _______ _______ _____ _____    ______ ____
ROOT
ATOM      1  C   UNL     1      44.581   4.163  10.283  0.00  0.00    +0.000 A 
ATOM      2  C   UNL     1      43.751   3.193  10.855  0.00  0.00    +0.000 A 
ATOM      3  C   UNL     1      43.539   3.175  12.229  0.00  0.00    +0.000 A 
ATOM      4  C   UNL     1      44.178   4.105  13.050  0.00  0.00    +0.000 A 
ATOM      5  C   UNL     1      45.064   5.054  12.521  0.00  0.00    +0.000 A 
ATOM      6  C   UNL     1      45.212   5.098  11.124  0.00  0.00    +0.000 A 
ENDROOT
BRANCH   5   7
ATOM      7  N   UNL     1      45.699   6.036  13.308  0.00  0.00    +0.000 N 
ATOM      8  H   UNL     1      45.040   6.778  13.540  0.00  0.00    +0.000 HD
BRANCH   7   9
ATOM      9  C   UNL     1      46.965   6.580  12.794  0.00  0.00    +0.000 C 
BRANCH   9  10
ATOM     10  C   UNL     1      47.297   7.912  13.471  0.00  0.00    +0.000 C 
BRANCH  10  11
ATOM     11  C   UNL     1      46.650   9.058  12.737  0.00  0.00    +0.000 A 
ATOM     12  C   UNL     1      47.422  10.058  12.149  0.00  0.00    +0.000 A 
ATOM     13  C   UNL     1      46.782  11.089  11.467  0.00  0.00    +0.000 A 
ATOM     14  C   UNL     1      45.395  11.094  11.383  0.00  0.00    +0.000 A 
ATOM     15  C   UNL     1      44.703  10.057  11.985  0.00  0.00    +0.000 A 
ATOM     16  N   UNL     1      45.296   9.042  12.652  0.00  0.00    +0.000 NA
ENDBRANCH  10  11
ENDBRANCH   9  10
ENDBRANCH   7   9
ENDBRANCH   5   7
BRANCH   1  17
ATOM     17  C   UNL     1      44.809   4.182   8.793  0.00  0.00    +0.000 C 
BRANCH  17  18
ATOM     18  N   UNL     1      45.856   5.126   8.417  0.00  0.00    +0.000 NA
ATOM     19  H   UNL     1      45.461   5.835   7.804  0.00  0.00    +0.000 HD
ATOM     20  H   UNL     1      46.560   4.629   7.872  0.00  0.00    +0.000 HD
ENDBRANCH  17  18
ENDBRANCH   1  17
TORSDOF 6
ENDMDL
