MODEL 1
REMARK VINA RESULT:    -8.260      0.000      0.000
REMARK INTER + INTRA:         -10.218
REMARK INTER:                  -9.709
REMARK INTRA:                  -0.509
REMARK UNBOUND:                -0.509
REMARK  Name = 
REMARK  3 active torsions:
REMARK  status: ('A' for Active; 'I' for Inactive)
REMARK    1  A    between atoms: C_2  and  C_4
REMARK    2  A    between atoms: N_8  and  C_9
REMARK    3  A    between atoms: C_9  and  C_10
REMARK                            x       y       z     vdW  Elec       q    Type
REMARK                         _______ _______ _______ _____ _____    ______ ____
ROOT
ATOM      1  C   UNL     1      46.596   2.691   7.377  0.00  0.00    +0.000 A 
ATOM      2  C   UNL     1      46.298   4.024   7.651  0.00  0.00    +0.000 A 
ATOM      3  C   UNL     1      45.462   4.330   8.728  0.00  0.00    +0.000 A 
ATOM      4  C   UNL     1      44.932   3.307   9.507  0.00  0.00    +0.000 A 
ATOM      5  N   UNL     1      44.005   3.524  10.526  0.00  0.00    +0.000 N 
ATOM      6  N   UNL     1      45.217   2.012   9.248  0.00  0.00    +0.000 NA
ATOM      7  C   UNL     1      46.028   1.729   8.196  0.00  0.00    +0.000 A 
ATOM      8  H   UNL     1      43.844   2.631  10.985  0.00  0.00    +0.000 HD
ENDROOT
BRANCH   1  10
ATOM      9  N   UNL     1      47.252   2.908   5.046  0.00  0.00    +0.000 N 
ATOM     10  C   UNL     1      47.437   2.268   6.240  0.00  0.00    +0.000 C 
ATOM     11  O   UNL     1      48.289   1.397   6.363  0.00  0.00    +0.000 OA
ATOM     12  H   UNL     1      47.890   2.665   4.298  0.00  0.00    +0.000 HD
ATOM     13  H   UNL     1      46.741   3.775   4.960  0.00  0.00    +0.000 HD
ENDBRANCH   1  10
BRANCH   5  14
ATOM     14  C   UNL     1      43.939   4.715  11.394  0.00  0.00    +0.000 C 
ATOM     15  C   UNL     1      42.599   4.897  12.106  0.00  0.00    +0.000 C 
ATOM     16  C   UNL     1      43.044   5.911  11.109  0.00  0.00    +0.000 C 
BRANCH  14  17
ATOM     17  C   UNL     1      45.204   4.977  12.232  0.00  0.00    +0.000 A 
ATOM     18  C   UNL     1      45.981   6.117  12.010  0.00  0.00    +0.000 A 
ATOM     19  C   UNL     1      47.062   6.394  12.844  0.00  0.00    +0.000 A 
ATOM     20  C   UNL     1      47.362   5.519  13.878  0.00  0.00    +0.000 A 
ATOM     21  C   UNL     1      46.574   4.391  14.022  0.00  0.00    +0.000 A 
ATOM     22  N   UNL     1      45.519   4.105  13.229  0.00  0.00    +0.000 NA
ENDBRANCH  14  17
ENDBRANCH   5  14
TORSDOF 3
ENDMDL
MODEL 2
REMARK VINA RESULT:    -6.260      3.307      6.134
REMARK INTER + INTRA:          -7.867
REMARK INTER:                  -7.535
REMARK INTRA:                  -0.332
REMARK UNBOUND:                -0.509
REMARK  Name = 
REMARK  3 active torsions:
REMARK  status: ('A' for Active; 'I' for Inactive)
REMARK    1  A    between atoms: C_2  and  C_4
REMARK    2  A    between atoms: N_8  and  C_9
REMARK    3  A    between atoms: C_9  and  C_10
REMARK                            x       y       z     vdW  Elec       q    Type
REMARK                         _______ _______ _______ _____ _____    ______ ____
ROOT
ATOM      1  C   UNL     1      48.480   6.969  13.544  0.00  0.00    +0.000 A 
ATOM      2  C   UNL     1      47.694   5.896  13.959  0.00  0.00    +0.000 A 
ATOM      3  C   UNL     1      46.507   5.615  13.278  0.00  0.00    +0.000 A 
ATOM      4  C   UNL     1      46.119   6.409  12.204  0.00  0.00    +0.000 A 
ATOM      5  N   UNL     1      44.898   6.262  11.545  0.00  0.00    +0.000 N 
ATOM      6  N   UNL     1      46.877   7.451  11.795  0.00  0.00    +0.000 NA
ATOM      7  C   UNL     1      48.027   7.714  12.469  0.00  0.00    +0.000 A 
ATOM      8  H   UNL     1      44.900   6.905  10.757  0.00  0.00    +0.000 HD
ENDROOT
BRANCH   1  10
ATOM      9  N   UNL     1      50.778   7.757  13.437  0.00  0.00    +0.000 N 
ATOM     10  C   UNL     1      49.730   7.365  14.224  0.00  0.00    +0.000 C 
ATOM     11  O   UNL     1      49.821   7.370  15.444  0.00  0.00    +0.000 OA
ATOM     12  H   UNL     1      51.600   8.102  13.919  0.00  0.00    +0.000 HD
ATOM     13  H   UNL     1      50.676   7.992  12.460  0.00  0.00    +0.000 HD
ENDBRANCH   1  10
BRANCH   5  14
ATOM     14  C   UNL     1      44.176   4.993  11.341  0.00  0.00    +0.000 C 
ATOM     15  C   UNL     1      42.662   5.099  11.527  0.00  0.00    +0.000 C 
ATOM     16  C   UNL     1      43.459   4.248  12.456  0.00  0.00    +0.000 C 
BRANCH  14  17
ATOM     17  C   UNL     1      44.664   4.154  10.146  0.00  0.00    +0.000 A 
ATOM     18  C   UNL     1      45.350   4.756   9.087  0.00  0.00    +0.000 A 
ATOM     19  C   UNL     1      45.877   3.971   8.065  0.00  0.00    +0.000 A 
ATOM     20  C   UNL     1      45.697   2.596   8.105  0.00  0.00    +0.000 A 
ATOM     21  C   UNL     1      44.981   2.066   9.163  0.00  0.00    +0.000 A 
ATOM     22  N   UNL     1      44.465   2.808  10.168  0.00  0.00    +0.000 NA
ENDBRANCH  14  17
ENDBRANCH   5  14
TORSDOF 3
ENDMDL
MODEL 3
REMARK VINA RESULT:    -5.738      2.891      6.185
REMARK INTER + INTRA:          -7.254
REMARK INTER:                  -7.676
REMARK INTRA:                   0.422
REMARK UNBOUND:                -0.509
REMARK  Name = 
REMARK  3 active torsions:
REMARK  status: ('A' for Active; 'I' for Inactive)
REMARK    1  A    between atoms: C_2  and  C_4
REMARK    2  A    between atoms: N_8  and  C_9
REMARK    3  A    between atoms: C_9  and  C_10
REMARK                            x       y       z     vdW  Elec       q    Type
REMARK                         _______ _______ _______ _____ _____    ______ ____
ROOT
ATOM      1  C   UNL     1      47.078   7.369  13.202  0.00  0.00    +0.000 A 
ATOM      2  C   UNL     1      46.642   7.183  11.893  0.00  0.00    +0.000 A 
ATOM      3  C   UNL     1      46.085   5.956  11.526  0.00  0.00    +0.000 A 
ATOM      4  C   UNL     1      45.981   4.934  12.464  0.00  0.00    +0.000 A 
ATOM      5  N   UNL     1      45.541   3.648  12.149  0.00  0.00    +0.000 N 
ATOM      6  N   UNL     1      46.401   5.107  13.736  0.00  0.00    +0.000 NA
ATOM      7  C   UNL     1      46.944   6.305  14.077  0.00  0.00    +0.000 A 
ATOM      8  H   UNL     1      45.482   3.126  13.019  0.00  0.00    +0.000 HD
ENDROOT
BRANCH   1  10
ATOM      9  N   UNL     1      47.496   8.984  14.972  0.00  0.00    +0.000 N 
ATOM     10  C   UNL     1      47.713   8.617  13.673  0.00  0.00    +0.000 C 
ATOM     11  O   UNL     1      48.429   9.287  12.940  0.00  0.00    +0.000 OA
ATOM     12  H   UNL     1      48.002   9.796  15.303  0.00  0.00    +0.000 HD
ATOM     13  H   UNL     1      47.118   8.354  15.666  0.00  0.00    +0.000 HD
ENDBRANCH   1  10
BRANCH   5  14
ATOM     14  C   UNL     1      44.537   3.307  11.124  0.00  0.00    +0.000 C 
ATOM     15  C   UNL     1      43.248   4.124  11.213  0.00  0.00    +0.000 C 
ATOM     16  C   UNL     1      43.202   2.652  11.443  0.00  0.00    +0.000 C 
BRANCH  14  17
ATOM     17  C   UNL     1      45.106   3.075   9.712  0.00  0.00    +0.000 A 
ATOM     18  C   UNL     1      45.323   4.150   8.846  0.00  0.00    +0.000 A 
ATOM     19  C   UNL     1      45.934   3.937   7.613  0.00  0.00    +0.000 A 
ATOM     20  C   UNL     1      46.306   2.650   7.254  0.00  0.00    +0.000 A 
ATOM     21  C   UNL     1      46.034   1.625   8.142  0.00  0.00    +0.000 A 
ATOM     22  N   UNL     1      45.446   1.809   9.345  0.00  0.00    +0.000 NA
ENDBRANCH  14  17
ENDBRANCH   5  14
TORSDOF 3
ENDMDL
MODEL 4
REMARK VINA RESULT:    -5.451      4.684      7.760
REMARK INTER + INTRA:          -6.917
REMARK INTER:                  -7.174
REMARK INTRA:                   0.258
REMARK UNBOUND:                -0.509
REMARK  Name = 
REMARK  3 active torsions:
REMARK  status: ('A' for Active; 'I' for Inactive)
REMARK    1  A    between atoms: C_2  and  C_4
REMARK    2  A    between atoms: N_8  and  C_9
REMARK    3  A    between atoms: C_9  and  C_10
REMARK                            x       y       z     vdW  Elec       q    Type
REMARK                         _______ _______ _______ _____ _____    ______ ____
ROOT
ATOM      1  C   UNL     1      48.422   4.268  17.587  0.00  0.00    +0.000 A 
ATOM      2  C   UNL     1      48.403   5.545  17.033  0.00  0.00    +0.000 A 
ATOM      3  C   UNL     1      47.967   5.713  15.716  0.00  0.00    +0.000 A 
ATOM      4  C   UNL     1      47.568   4.608  14.973  0.00  0.00    +0.000 A 
ATOM      5  N   UNL     1      47.226   4.678  13.622  0.00  0.00    +0.000 N 
ATOM      6  N   UNL     1      47.582   3.365  15.503  0.00  0.00    +0.000 NA
ATOM      7  C   UNL     1      48.012   3.217  16.783  0.00  0.00    +0.000 A 
ATOM      8  H   UNL     1      46.898   3.756  13.344  0.00  0.00    +0.000 HD
ENDROOT
BRANCH   1  10
ATOM      9  N   UNL     1      48.301   2.964  19.636  0.00  0.00    +0.000 N 
ATOM     10  C   UNL     1      48.901   3.987  18.956  0.00  0.00    +0.000 C 
ATOM     11  O   UNL     1      49.817   4.625  19.457  0.00  0.00    +0.000 OA
ATOM     12  H   UNL     1      48.693   2.731  20.541  0.00  0.00    +0.000 HD
ATOM     13  H   UNL     1      47.718   2.272  19.188  0.00  0.00    +0.000 HD
ENDBRANCH   1  10
BRANCH   5  14
ATOM     14  C   UNL     1      46.578   5.822  12.954  0.00  0.00    +0.000 C 
ATOM     15  C   UNL     1      47.520   6.651  12.080  0.00  0.00    +0.000 C 
ATOM     16  C   UNL     1      46.894   7.273  13.282  0.00  0.00    +0.000 C 
BRANCH  14  17
ATOM     17  C   UNL     1      45.184   5.527  12.373  0.00  0.00    +0.000 A 
ATOM     18  C   UNL     1      45.045   5.012  11.081  0.00  0.00    +0.000 A 
ATOM     19  C   UNL     1      43.785   4.653  10.607  0.00  0.00    +0.000 A 
ATOM     20  C   UNL     1      42.678   4.829  11.425  0.00  0.00    +0.000 A 
ATOM     21  C   UNL     1      42.879   5.375  12.680  0.00  0.00    +0.000 A 
ATOM     22  N   UNL     1      44.092   5.726  13.162  0.00  0.00    +0.000 NA
ENDBRANCH  14  17
ENDBRANCH   5  14
TORSDOF 3
ENDMDL
MODEL 5
REMARK VINA RESULT:    -5.442      3.017      5.034
REMARK INTER + INTRA:          -6.905
REMARK INTER:                  -7.124
REMARK INTRA:                   0.218
REMARK UNBOUND:                -0.509
REMARK  Name = 
REMARK  3 active torsions:
REMARK  status: ('A' for Active; 'I' for Inactive)
REMARK    1  A    between atoms: C_2  and  C_4
REMARK    2  A    between atoms: N_8  and  C_9
REMARK    3  A    between atoms: C_9  and  C_10
REMARK                            x       y       z     vdW  Elec       q    Type
REMARK                         _______ _______ _______ _____ _____    ______ ____
ROOT
ATOM      1  C   UNL     1      45.056   4.482  10.823  0.00  0.00    +0.000 A 
ATOM      2  C   UNL     1      45.771   5.645  10.544  0.00  0.00    +0.000 A 
ATOM      3  C   UNL     1      46.409   6.321  11.587  0.00  0.00    +0.000 A 
ATOM      4  C   UNL     1      46.318   5.835  12.887  0.00  0.00    +0.000 A 
ATOM      5  N   UNL     1      46.832   6.511  13.994  0.00  0.00    +0.000 N 
ATOM      6  N   UNL     1      45.628   4.707  13.165  0.00  0.00    +0.000 NA
ATOM      7  C   UNL     1      45.009   4.063  12.142  0.00  0.00    +0.000 A 
ATOM      8  H   UNL     1      46.705   5.908  14.803  0.00  0.00    +0.000 HD
ENDROOT
BRANCH   1  10
ATOM      9  N   UNL     1      44.176   4.300   8.563  0.00  0.00    +0.000 N 
ATOM     10  C   UNL     1      44.319   3.721   9.794  0.00  0.00    +0.000 C 
ATOM     11  O   UNL     1      43.875   2.603  10.021  0.00  0.00    +0.000 OA
ATOM     12  H   UNL     1      43.740   3.733   7.846  0.00  0.00    +0.000 HD
ATOM     13  H   UNL     1      44.718   5.097   8.264  0.00  0.00    +0.000 HD
ENDBRANCH   1  10
BRANCH   5  14
ATOM     14  C   UNL     1      48.040   7.357  14.004  0.00  0.00    +0.000 C 
ATOM     15  C   UNL     1      47.752   8.858  13.955  0.00  0.00    +0.000 C 
ATOM     16  C   UNL     1      48.474   8.211  12.823  0.00  0.00    +0.000 C 
BRANCH  14  17
ATOM     17  C   UNL     1      49.143   6.901  14.976  0.00  0.00    +0.000 A 
ATOM     18  C   UNL     1      50.427   7.446  14.902  0.00  0.00    +0.000 A 
ATOM     19  C   UNL     1      51.385   7.101  15.852  0.00  0.00    +0.000 A 
ATOM     20  C   UNL     1      51.051   6.202  16.855  0.00  0.00    +0.000 A 
ATOM     21  C   UNL     1      49.773   5.673  16.853  0.00  0.00    +0.000 A 
ATOM     22  N   UNL     1      48.827   5.998  15.944  0.00  0.00    +0.000 NA
ENDBRANCH  14  17
ENDBRANCH   5  14
TORSDOF 3
ENDMDL
