MODEL 1
REMARK VINA RESULT:    -7.429      0.000      0.000
REMARK INTER + INTRA:         -11.330
REMARK INTER:                 -10.252
REMARK INTRA:                  -1.079
REMARK UNBOUND:                -1.079
REMARK  Name = 
REMARK  7 active torsions:
REMARK  status: ('A' for Active; 'I' for Inactive)
REMARK    1  A    between atoms: C_2  and  C_21
REMARK    2  A    between atoms: N_3  and  C_4
REMARK    3  A    between atoms: C_4  and  C_5
REMARK    4  A    between atoms: C_8  and  C_9
REMARK    5  A    between atoms: C_9  and  N_10
REMARK    6  A    between atoms: C_11  and  C_13
REMARK    7  A    between atoms: C_16  and  O_17
REMARK                            x       y       z     vdW  Elec       q    Type
REMARK                         _______ _______ _______ _____ _____    ______ ____
ROOT
ATOM      1  C   UNL     1      48.651   3.602  17.085  0.00  0.00    +0.000 A 
ATOM      2  C   UNL     1      49.081   4.896  17.408  0.00  0.00    +0.000 A 
ATOM      3  C   UNL     1      50.411   5.137  17.772  0.00  0.00    +0.000 A 
ATOM      4  C   UNL     1      51.345   4.093  17.803  0.00  0.00    +0.000 A 
ATOM      5  C   UNL     1      50.916   2.799  17.476  0.00  0.00    +0.000 A 
ATOM      6  C   UNL     1      49.585   2.558  17.110  0.00  0.00    +0.000 A 
ENDROOT
BRANCH   1   7
ATOM      7  C   UNL     1      47.225   3.356  16.658  0.00  0.00    +0.000 C 
BRANCH   7  10
ATOM      8  O   UNL     1      47.178   3.054  13.877  0.00  0.00    +0.000 OA
ATOM      9  C   UNL     1      46.746   4.096  14.363  0.00  0.00    +0.000 C 
ATOM     10  N   UNL     1      46.796   4.354  15.709  0.00  0.00    +0.000 N 
ATOM     11  H   UNL     1      46.243   5.116  16.084  0.00  0.00    +0.000 HD
BRANCH   9  12
ATOM     12  C   UNL     1      46.189   5.164  13.525  0.00  0.00    +0.000 A 
ATOM     13  C   UNL     1      46.912   6.326  13.301  0.00  0.00    +0.000 A 
ATOM     14  S   UNL     1      46.077   7.473  12.350  0.00  0.00    +0.000 S 
ATOM     15  C   UNL     1      44.743   6.434  12.162  0.00  0.00    +0.000 A 
ATOM     16  N   UNL     1      43.659   6.805  11.428  0.00  0.00    +0.000 NA
ATOM     17  C   UNL     1      42.740   5.902  11.341  0.00  0.00    +0.000 A 
ATOM     18  N   UNL     1      42.803   4.660  11.922  0.00  0.00    +0.000 N 
ATOM     19  C   UNL     1      43.864   4.255  12.693  0.00  0.00    +0.000 A 
ATOM     20  O   UNL     1      43.871   3.155  13.234  0.00  0.00    +0.000 OA
ATOM     21  C   UNL     1      44.927   5.232  12.821  0.00  0.00    +0.000 A 
ATOM     22  H   UNL     1      42.047   4.002  11.822  0.00  0.00    +0.000 HD
ENDBRANCH   9  12
ENDBRANCH   7  10
ENDBRANCH   1   7
BRANCH   4  23
ATOM     23  C   UNL     1      52.777   4.359  18.189  0.00  0.00    +0.000 C 
BRANCH  23  24
ATOM     24  N   UNL     1      53.634   3.233  17.882  0.00  0.00    +0.000 N 
ATOM     25  C   UNL     1      54.106   2.419  18.889  0.00  0.00    +0.000 C 
ATOM     26  O   UNL     1      53.842   2.618  20.071  0.00  0.00    +0.000 OA
ATOM     27  H   UNL     1      53.644   2.902  16.928  0.00  0.00    +0.000 HD
BRANCH  25  28
ATOM     28  C   UNL     1      55.051   1.306  18.419  0.00  0.00    +0.000 C 
ATOM     29  C   UNL     1      55.356   0.266  19.521  0.00  0.00    +0.000 C 
ATOM     30  C   UNL     1      54.815  -1.076  19.019  0.00  0.00    +0.000 C 
ATOM     31  C   UNL     1      53.820  -0.704  17.933  0.00  0.00    +0.000 C 
ATOM     32  C   UNL     1      54.480   0.488  17.256  0.00  0.00    +0.000 C 
BRANCH  31  33
ATOM     33  O   UNL     1      52.566  -0.324  18.485  0.00  0.00    +0.000 OA
ATOM     34  H   UNL     1      51.933  -1.062  18.402  0.00  0.00    +0.000 HD
ENDBRANCH  31  33
ENDBRANCH  25  28
ENDBRANCH  23  24
ENDBRANCH   4  23
TORSDOF 7
ENDMDL
MODEL 2
REMARK VINA RESULT:    -7.217      3.421      4.861
REMARK INTER + INTRA:         -11.039
REMARK INTER:                  -9.601
REMARK INTRA:                  -1.438
REMARK UNBOUND:                -1.079
REMARK  Name = 
REMARK  7 active torsions:
REMARK  status: ('A' for Active; 'I' for Inactive)
REMARK    1  A    between atoms: C_2  and  C_21
REMARK    2  A    between atoms: N_3  and  C_4
REMARK    3  A    between atoms: C_4  and  C_5
REMARK    4  A    between atoms: C_8  and  C_9
REMARK    5  A    between atoms: C_9  and  N_10
REMARK    6  A    between atoms: C_11  and  C_13
REMARK    7  A    between atoms: C_16  and  O_17
REMARK                            x       y       z     vdW  Elec       q    Type
REMARK                         _______ _______ _______ _____ _____    ______ ____
ROOT
ATOM      1  C   UNL     1      48.934   7.782  13.186  0.00  0.00    +0.000 A 
ATOM      2  C   UNL     1      50.259   8.104  13.507  0.00  0.00    +0.000 A 
ATOM      3  C   UNL     1      50.767   7.847  14.786  0.00  0.00    +0.000 A 
ATOM      4  C   UNL     1      49.966   7.245  15.767  0.00  0.00    +0.000 A 
ATOM      5  C   UNL     1      48.642   6.921  15.443  0.00  0.00    +0.000 A 
ATOM      6  C   UNL     1      48.133   7.177  14.163  0.00  0.00    +0.000 A 
ENDROOT
BRANCH   1   7
ATOM      7  C   UNL     1      48.405   8.030  11.794  0.00  0.00    +0.000 C 
BRANCH   7  10
ATOM      8  O   UNL     1      45.616   7.809  11.747  0.00  0.00    +0.000 OA
ATOM      9  C   UNL     1      46.287   6.894  11.276  0.00  0.00    +0.000 C 
ATOM     10  N   UNL     1      47.658   6.890  11.322  0.00  0.00    +0.000 N 
ATOM     11  H   UNL     1      48.167   6.234  10.741  0.00  0.00    +0.000 HD
BRANCH   9  12
ATOM     12  C   UNL     1      45.662   5.711  10.673  0.00  0.00    +0.000 A 
ATOM     13  C   UNL     1      45.794   5.466   9.314  0.00  0.00    +0.000 A 
ATOM     14  S   UNL     1      44.951   4.077   8.788  0.00  0.00    +0.000 S 
ATOM     15  C   UNL     1      44.425   3.726  10.368  0.00  0.00    +0.000 A 
ATOM     16  N   UNL     1      43.658   2.633  10.629  0.00  0.00    +0.000 NA
ATOM     17  C   UNL     1      43.366   2.472  11.877  0.00  0.00    +0.000 A 
ATOM     18  N   UNL     1      43.770   3.304  12.890  0.00  0.00    +0.000 N 
ATOM     19  C   UNL     1      44.520   4.432  12.670  0.00  0.00    +0.000 A 
ATOM     20  O   UNL     1      44.829   5.180  13.591  0.00  0.00    +0.000 OA
ATOM     21  C   UNL     1      44.880   4.659  11.283  0.00  0.00    +0.000 A 
ATOM     22  H   UNL     1      43.501   3.127  13.845  0.00  0.00    +0.000 HD
ENDBRANCH   9  12
ENDBRANCH   7  10
ENDBRANCH   1   7
BRANCH   4  23
ATOM     23  C   UNL     1      50.520   6.965  17.140  0.00  0.00    +0.000 C 
BRANCH  23  24
ATOM     24  N   UNL     1      49.994   5.733  17.689  0.00  0.00    +0.000 N 
ATOM     25  C   UNL     1      50.716   4.562  17.597  0.00  0.00    +0.000 C 
ATOM     26  O   UNL     1      51.808   4.508  17.039  0.00  0.00    +0.000 OA
ATOM     27  H   UNL     1      49.247   5.805  18.365  0.00  0.00    +0.000 HD
BRANCH  25  28
ATOM     28  C   UNL     1      50.006   3.329  18.167  0.00  0.00    +0.000 C 
ATOM     29  C   UNL     1      48.618   3.652  18.766  0.00  0.00    +0.000 C 
ATOM     30  C   UNL     1      47.591   2.873  17.938  0.00  0.00    +0.000 C 
ATOM     31  C   UNL     1      48.316   2.542  16.644  0.00  0.00    +0.000 C 
ATOM     32  C   UNL     1      49.734   2.253  17.111  0.00  0.00    +0.000 C 
BRANCH  31  33
ATOM     33  O   UNL     1      48.308   3.645  15.747  0.00  0.00    +0.000 OA
ATOM     34  H   UNL     1      48.213   3.324  14.831  0.00  0.00    +0.000 HD
ENDBRANCH  31  33
ENDBRANCH  25  28
ENDBRANCH  23  24
ENDBRANCH   4  23
TORSDOF 7
ENDMDL
MODEL 3
REMARK VINA RESULT:    -7.192      4.447      9.211
REMARK INTER + INTRA:         -11.003
REMARK INTER:                  -9.328
REMARK INTRA:                  -1.675
REMARK UNBOUND:                -1.079
REMARK  Name = 
REMARK  7 active torsions:
REMARK  status: ('A' for Active; 'I' for Inactive)
REMARK    1  A    between atoms: C_2  and  C_21
REMARK    2  A    between atoms: N_3  and  C_4
REMARK    3  A    between atoms: C_4  and  C_5
REMARK    4  A    between atoms: C_8  and  C_9
REMARK    5  A    between atoms: C_9  and  N_10
REMARK    6  A    between atoms: C_11  and  C_13
REMARK    7  A    between atoms: C_16  and  O_17
REMARK                            x       y       z     vdW  Elec       q    Type
REMARK                         _______ _______ _______ _____ _____    ______ ____
ROOT
ATOM      1  C   UNL     1      48.487   7.924  13.154  0.00  0.00    +0.000 A 
ATOM      2  C   UNL     1      47.570   8.882  13.605  0.00  0.00    +0.000 A 
ATOM      3  C   UNL     1      46.283   8.952  13.058  0.00  0.00    +0.000 A 
ATOM      4  C   UNL     1      45.879   8.052  12.062  0.00  0.00    +0.000 A 
ATOM      5  C   UNL     1      46.796   7.092  11.614  0.00  0.00    +0.000 A 
ATOM      6  C   UNL     1      48.084   7.022  12.162  0.00  0.00    +0.000 A 
ENDROOT
BRANCH   1   7
ATOM      7  C   UNL     1      49.861   7.833  13.773  0.00  0.00    +0.000 C 
BRANCH   7  10
ATOM      8  O   UNL     1      49.533   8.472  16.478  0.00  0.00    +0.000 OA
ATOM      9  C   UNL     1      49.633   7.289  16.160  0.00  0.00    +0.000 C 
ATOM     10  N   UNL     1      49.866   6.894  14.868  0.00  0.00    +0.000 N 
ATOM     11  H   UNL     1      49.728   5.920  14.620  0.00  0.00    +0.000 HD
BRANCH   9  12
ATOM     12  C   UNL     1      49.560   6.215  17.157  0.00  0.00    +0.000 A 
ATOM     13  C   UNL     1      50.351   6.263  18.296  0.00  0.00    +0.000 A 
ATOM     14  S   UNL     1      50.169   4.898  19.307  0.00  0.00    +0.000 S 
ATOM     15  C   UNL     1      48.988   4.224  18.285  0.00  0.00    +0.000 A 
ATOM     16  N   UNL     1      48.392   3.038  18.583  0.00  0.00    +0.000 NA
ATOM     17  C   UNL     1      47.489   2.667  17.736  0.00  0.00    +0.000 A 
ATOM     18  N   UNL     1      47.126   3.373  16.618  0.00  0.00    +0.000 N 
ATOM     19  C   UNL     1      47.720   4.559  16.264  0.00  0.00    +0.000 A 
ATOM     20  O   UNL     1      47.404   5.145  15.234  0.00  0.00    +0.000 OA
ATOM     21  C   UNL     1      48.741   5.023  17.183  0.00  0.00    +0.000 A 
ATOM     22  H   UNL     1      46.417   3.025  15.992  0.00  0.00    +0.000 HD
ENDBRANCH   9  12
ENDBRANCH   7  10
ENDBRANCH   1   7
BRANCH   4  23
ATOM     23  C   UNL     1      44.490   8.127  11.482  0.00  0.00    +0.000 C 
BRANCH  23  24
ATOM     24  N   UNL     1      44.053   6.846  10.971  0.00  0.00    +0.000 N 
ATOM     25  C   UNL     1      43.607   5.865  11.831  0.00  0.00    +0.000 C 
ATOM     26  O   UNL     1      43.581   6.023  13.048  0.00  0.00    +0.000 OA
ATOM     27  H   UNL     1      43.819   6.790   9.989  0.00  0.00    +0.000 HD
BRANCH  25  28
ATOM     28  C   UNL     1      43.236   4.541  11.151  0.00  0.00    +0.000 C 
ATOM     29  C   UNL     1      44.141   4.206   9.944  0.00  0.00    +0.000 C 
ATOM     30  C   UNL     1      44.869   2.904  10.290  0.00  0.00    +0.000 C 
ATOM     31  C   UNL     1      44.760   2.796  11.802  0.00  0.00    +0.000 C 
ATOM     32  C   UNL     1      43.366   3.333  12.084  0.00  0.00    +0.000 C 
BRANCH  31  33
ATOM     33  O   UNL     1      45.738   3.599  12.452  0.00  0.00    +0.000 OA
ATOM     34  H   UNL     1      46.161   4.192  11.803  0.00  0.00    +0.000 HD
ENDBRANCH  31  33
ENDBRANCH  25  28
ENDBRANCH  23  24
ENDBRANCH   4  23
TORSDOF 7
ENDMDL
MODEL 4
REMARK VINA RESULT:    -7.093      3.469      5.040
REMARK INTER + INTRA:         -10.868
REMARK INTER:                  -9.459
REMARK INTRA:                  -1.409
REMARK UNBOUND:                -1.079
REMARK  Name = 
REMARK  7 active torsions:
REMARK  status: ('A' for Active; 'I' for Inactive)
REMARK    1  A    between atoms: C_2  and  C_21
REMARK    2  A    between atoms: N_3  and  C_4
REMARK    3  A    between atoms: C_4  and  C_5
REMARK    4  A    between atoms: C_8  and  C_9
REMARK    5  A    between atoms: C_9  and  N_10
REMARK    6  A    between atoms: C_11  and  C_13
REMARK    7  A    between atoms: C_16  and  O_17
REMARK                            x       y       z     vdW  Elec       q    Type
REMARK                         _______ _______ _______ _____ _____    ______ ____
ROOT
ATOM      1  C   UNL     1      48.439   7.682  13.055  0.00  0.00    +0.000 A 
ATOM      2  C   UNL     1      49.714   8.264  13.037  0.00  0.00    +0.000 A 
ATOM      3  C   UNL     1      50.540   8.209  14.165  0.00  0.00    +0.000 A 
ATOM      4  C   UNL     1      50.118   7.555  15.330  0.00  0.00    +0.000 A 
ATOM      5  C   UNL     1      48.845   6.970  15.346  0.00  0.00    +0.000 A 
ATOM      6  C   UNL     1      48.017   7.024  14.217  0.00  0.00    +0.000 A 
ENDROOT
BRANCH   1   7
ATOM      7  C   UNL     1      47.569   7.715  11.822  0.00  0.00    +0.000 C 
BRANCH   7  10
ATOM      8  O   UNL     1      44.782   7.465  11.794  0.00  0.00    +0.000 OA
ATOM      9  C   UNL     1      45.465   6.460  11.616  0.00  0.00    +0.000 C 
ATOM     10  N   UNL     1      46.835   6.482  11.684  0.00  0.00    +0.000 N 
ATOM     11  H   UNL     1      47.356   5.691  11.322  0.00  0.00    +0.000 HD
BRANCH   9  12
ATOM     12  C   UNL     1      44.855   5.148  11.366  0.00  0.00    +0.000 A 
ATOM     13  C   UNL     1      44.056   4.553  12.330  0.00  0.00    +0.000 A 
ATOM     14  S   UNL     1      43.484   3.008  11.881  0.00  0.00    +0.000 S 
ATOM     15  C   UNL     1      44.241   3.105  10.360  0.00  0.00    +0.000 A 
ATOM     16  N   UNL     1      44.135   2.096   9.455  0.00  0.00    +0.000 NA
ATOM     17  C   UNL     1      44.729   2.323   8.330  0.00  0.00    +0.000 A 
ATOM     18  N   UNL     1      45.422   3.468   8.027  0.00  0.00    +0.000 N 
ATOM     19  C   UNL     1      45.579   4.498   8.920  0.00  0.00    +0.000 A 
ATOM     20  O   UNL     1      46.241   5.490   8.635  0.00  0.00    +0.000 OA
ATOM     21  C   UNL     1      44.927   4.295  10.200  0.00  0.00    +0.000 A 
ATOM     22  H   UNL     1      45.871   3.581   7.133  0.00  0.00    +0.000 HD
ENDBRANCH   9  12
ENDBRANCH   7  10
ENDBRANCH   1   7
BRANCH   4  23
ATOM     23  C   UNL     1      51.015   7.493  16.540  0.00  0.00    +0.000 C 
BRANCH  23  24
ATOM     24  N   UNL     1      50.668   6.388  17.409  0.00  0.00    +0.000 N 
ATOM     25  C   UNL     1      51.522   5.316  17.552  0.00  0.00    +0.000 C 
ATOM     26  O   UNL     1      52.587   5.242  16.946  0.00  0.00    +0.000 OA
ATOM     27  H   UNL     1      49.948   6.547  18.100  0.00  0.00    +0.000 HD
BRANCH  25  28
ATOM     28  C   UNL     1      50.994   4.196  18.455  0.00  0.00    +0.000 C 
ATOM     29  C   UNL     1      49.690   4.577  19.193  0.00  0.00    +0.000 C 
ATOM     30  C   UNL     1      48.610   3.606  18.705  0.00  0.00    +0.000 C 
ATOM     31  C   UNL     1      49.158   3.050  17.401  0.00  0.00    +0.000 C 
ATOM     32  C   UNL     1      50.647   2.918  17.683  0.00  0.00    +0.000 C 
BRANCH  31  33
ATOM     33  O   UNL     1      48.939   3.949  16.321  0.00  0.00    +0.000 OA
ATOM     34  H   UNL     1      48.005   3.907  16.042  0.00  0.00    +0.000 HD
ENDBRANCH  31  33
ENDBRANCH  25  28
ENDBRANCH  23  24
ENDBRANCH   4  23
TORSDOF 7
ENDMDL
MODEL 5
REMARK VINA RESULT:    -6.956      2.252      3.695
REMARK INTER + INTRA:         -10.678
REMARK INTER:                  -9.444
REMARK INTRA:                  -1.233
REMARK UNBOUND:                -1.079
REMARK  Name = 
REMARK  7 active torsions:
REMARK  status: ('A' for Active; 'I' for Inactive)
REMARK    1  A    between atoms: C_2  and  C_21
REMARK    2  A    between atoms: N_3  and  C_4
REMARK    3  A    between atoms: C_4  and  C_5
REMARK    4  A    between atoms: C_8  and  C_9
REMARK    5  A    between atoms: C_9  and  N_10
REMARK    6  A    between atoms: C_11  and  C_13
REMARK    7  A    between atoms: C_16  and  O_17
REMARK                            x       y       z     vdW  Elec       q    Type
REMARK                         _______ _______ _______ _____ _____    ______ ____
ROOT
ATOM      1  C   UNL     1      48.644   3.477  17.107  0.00  0.00    +0.000 A 
ATOM      2  C   UNL     1      49.423   2.314  17.040  0.00  0.00    +0.000 A 
ATOM      3  C   UNL     1      50.788   2.351  17.350  0.00  0.00    +0.000 A 
ATOM      4  C   UNL     1      51.399   3.546  17.752  0.00  0.00    +0.000 A 
ATOM      5  C   UNL     1      50.618   4.707  17.822  0.00  0.00    +0.000 A 
ATOM      6  C   UNL     1      49.252   4.672  17.512  0.00  0.00    +0.000 A 
ENDROOT
BRANCH   1   7
ATOM      7  C   UNL     1      47.166   3.423  16.806  0.00  0.00    +0.000 C 
BRANCH   7  10
ATOM      8  O   UNL     1      47.290   3.087  14.030  0.00  0.00    +0.000 OA
ATOM      9  C   UNL     1      46.840   4.140  14.477  0.00  0.00    +0.000 C 
ATOM     10  N   UNL     1      46.809   4.413  15.821  0.00  0.00    +0.000 N 
ATOM     11  H   UNL     1      46.242   5.186  16.151  0.00  0.00    +0.000 HD
BRANCH   9  12
ATOM     12  C   UNL     1      46.348   5.204  13.593  0.00  0.00    +0.000 A 
ATOM     13  C   UNL     1      47.127   6.324  13.348  0.00  0.00    +0.000 A 
ATOM     14  S   UNL     1      46.364   7.476  12.344  0.00  0.00    +0.000 S 
ATOM     15  C   UNL     1      44.989   6.491  12.159  0.00  0.00    +0.000 A 
ATOM     16  N   UNL     1      43.938   6.885  11.391  0.00  0.00    +0.000 NA
ATOM     17  C   UNL     1      42.980   6.021  11.313  0.00  0.00    +0.000 A 
ATOM     18  N   UNL     1      42.976   4.798  11.934  0.00  0.00    +0.000 N 
ATOM     19  C   UNL     1      44.002   4.371  12.741  0.00  0.00    +0.000 A 
ATOM     20  O   UNL     1      43.949   3.290  13.317  0.00  0.00    +0.000 OA
ATOM     21  C   UNL     1      45.106   5.304  12.860  0.00  0.00    +0.000 A 
ATOM     22  H   UNL     1      42.193   4.170  11.839  0.00  0.00    +0.000 HD
ENDBRANCH   9  12
ENDBRANCH   7  10
ENDBRANCH   1   7
BRANCH   4  23
ATOM     23  C   UNL     1      52.867   3.577  18.091  0.00  0.00    +0.000 C 
BRANCH  23  24
ATOM     24  N   UNL     1      53.485   4.821  17.683  0.00  0.00    +0.000 N 
ATOM     25  C   UNL     1      54.655   4.814  16.954  0.00  0.00    +0.000 C 
ATOM     26  O   UNL     1      55.226   3.773  16.640  0.00  0.00    +0.000 OA
ATOM     27  H   UNL     1      52.912   5.653  17.696  0.00  0.00    +0.000 HD
BRANCH  25  28
ATOM     28  C   UNL     1      55.224   6.205  16.648  0.00  0.00    +0.000 C 
ATOM     29  C   UNL     1      55.502   6.427  15.144  0.00  0.00    +0.000 C 
ATOM     30  C   UNL     1      54.594   7.576  14.695  0.00  0.00    +0.000 C 
ATOM     31  C   UNL     1      53.513   7.646  15.761  0.00  0.00    +0.000 C 
ATOM     32  C   UNL     1      54.274   7.340  17.042  0.00  0.00    +0.000 C 
BRANCH  31  33
ATOM     33  O   UNL     1      52.504   6.668  15.542  0.00  0.00    +0.000 OA
ATOM     34  H   UNL     1      52.433   6.475  14.589  0.00  0.00    +0.000 HD
ENDBRANCH  31  33
ENDBRANCH  25  28
ENDBRANCH  23  24
ENDBRANCH   4  23
TORSDOF 7
ENDMDL
MODEL 6
REMARK VINA RESULT:    -6.802      1.605      2.607
REMARK INTER + INTRA:         -10.466
REMARK INTER:                  -9.078
REMARK INTRA:                  -1.388
REMARK UNBOUND:                -1.079
REMARK  Name = 
REMARK  7 active torsions:
REMARK  status: ('A' for Active; 'I' for Inactive)
REMARK    1  A    between atoms: C_2  and  C_21
REMARK    2  A    between atoms: N_3  and  C_4
REMARK    3  A    between atoms: C_4  and  C_5
REMARK    4  A    between atoms: C_8  and  C_9
REMARK    5  A    between atoms: C_9  and  N_10
REMARK    6  A    between atoms: C_11  and  C_13
REMARK    7  A    between atoms: C_16  and  O_17
REMARK                            x       y       z     vdW  Elec       q    Type
REMARK                         _______ _______ _______ _____ _____    ______ ____
ROOT
ATOM      1  C   UNL     1      48.846   3.529  17.498  0.00  0.00    +0.000 A 
ATOM      2  C   UNL     1      49.828   2.570  17.217  0.00  0.00    +0.000 A 
ATOM      3  C   UNL     1      51.150   2.756  17.638  0.00  0.00    +0.000 A 
ATOM      4  C   UNL     1      51.515   3.897  18.366  0.00  0.00    +0.000 A 
ATOM      5  C   UNL     1      50.532   4.854  18.650  0.00  0.00    +0.000 A 
ATOM      6  C   UNL     1      49.208   4.667  18.229  0.00  0.00    +0.000 A 
ENDROOT
BRANCH   1   7
ATOM      7  C   UNL     1      47.416   3.304  17.071  0.00  0.00    +0.000 C 
BRANCH   7  10
ATOM      8  O   UNL     1      47.436   2.913  14.300  0.00  0.00    +0.000 OA
ATOM      9  C   UNL     1      47.000   3.974  14.743  0.00  0.00    +0.000 C 
ATOM     10  N   UNL     1      47.020   4.274  16.081  0.00  0.00    +0.000 N 
ATOM     11  H   UNL     1      46.464   5.052  16.417  0.00  0.00    +0.000 HD
BRANCH   9  12
ATOM     12  C   UNL     1      46.473   5.019  13.857  0.00  0.00    +0.000 A 
ATOM     13  C   UNL     1      45.214   4.887  13.293  0.00  0.00    +0.000 A 
ATOM     14  S   UNL     1      44.799   6.174  12.249  0.00  0.00    +0.000 S 
ATOM     15  C   UNL     1      46.266   6.977  12.559  0.00  0.00    +0.000 A 
ATOM     16  N   UNL     1      46.550   8.175  11.980  0.00  0.00    +0.000 NA
ATOM     17  C   UNL     1      47.683   8.684  12.336  0.00  0.00    +0.000 A 
ATOM     18  N   UNL     1      48.560   8.106  13.218  0.00  0.00    +0.000 N 
ATOM     19  C   UNL     1      48.327   6.886  13.804  0.00  0.00    +0.000 A 
ATOM     20  O   UNL     1      49.151   6.375  14.555  0.00  0.00    +0.000 OA
ATOM     21  C   UNL     1      47.065   6.271  13.440  0.00  0.00    +0.000 A 
ATOM     22  H   UNL     1      49.433   8.552  13.450  0.00  0.00    +0.000 HD
ENDBRANCH   9  12
ENDBRANCH   7  10
ENDBRANCH   1   7
BRANCH   4  23
ATOM     23  C   UNL     1      52.938   4.089  18.823  0.00  0.00    +0.000 C 
BRANCH  23  24
ATOM     24  N   UNL     1      53.773   2.962  18.464  0.00  0.00    +0.000 N 
ATOM     25  C   UNL     1      54.403   2.220  19.440  0.00  0.00    +0.000 C 
ATOM     26  O   UNL     1      54.301   2.487  20.634  0.00  0.00    +0.000 OA
ATOM     27  H   UNL     1      53.659   2.572  17.539  0.00  0.00    +0.000 HD
BRANCH  25  28
ATOM     28  C   UNL     1      55.302   1.098  18.908  0.00  0.00    +0.000 C 
ATOM     29  C   UNL     1      55.368  -0.124  19.853  0.00  0.00    +0.000 C 
ATOM     30  C   UNL     1      54.785  -1.310  19.077  0.00  0.00    +0.000 C 
ATOM     31  C   UNL     1      53.978  -0.673  17.958  0.00  0.00    +0.000 C 
ATOM     32  C   UNL     1      54.822   0.530  17.568  0.00  0.00    +0.000 C 
BRANCH  31  33
ATOM     33  O   UNL     1      52.699  -0.251  18.415  0.00  0.00    +0.000 OA
ATOM     34  H   UNL     1      52.364   0.465  17.842  0.00  0.00    +0.000 HD
ENDBRANCH  31  33
ENDBRANCH  25  28
ENDBRANCH  23  24
ENDBRANCH   4  23
TORSDOF 7
ENDMDL
MODEL 7
REMARK VINA RESULT:    -6.663      4.222      6.613
REMARK INTER + INTRA:         -10.274
REMARK INTER:                  -9.244
REMARK INTRA:                  -1.031
REMARK UNBOUND:                -1.079
REMARK  Name = 
REMARK  7 active torsions:
REMARK  status: ('A' for Active; 'I' for Inactive)
REMARK    1  A    between atoms: C_2  and  C_21
REMARK    2  A    between atoms: N_3  and  C_4
REMARK    3  A    between atoms: C_4  and  C_5
REMARK    4  A    between atoms: C_8  and  C_9
REMARK    5  A    between atoms: C_9  and  N_10
REMARK    6  A    between atoms: C_11  and  C_13
REMARK    7  A    between atoms: C_16  and  O_17
REMARK                            x       y       z     vdW  Elec       q    Type
REMARK                         _______ _______ _______ _____ _____    ______ ____
ROOT
ATOM      1  C   UNL     1      45.747   6.213  11.961  0.00  0.00    +0.000 A 
ATOM      2  C   UNL     1      46.114   7.543  12.209  0.00  0.00    +0.000 A 
ATOM      3  C   UNL     1      46.978   7.861  13.263  0.00  0.00    +0.000 A 
ATOM      4  C   UNL     1      47.511   6.855  14.081  0.00  0.00    +0.000 A 
ATOM      5  C   UNL     1      47.147   5.525  13.830  0.00  0.00    +0.000 A 
ATOM      6  C   UNL     1      46.282   5.206  12.774  0.00  0.00    +0.000 A 
ENDROOT
BRANCH   1   7
ATOM      7  C   UNL     1      44.843   5.875  10.801  0.00  0.00    +0.000 C 
BRANCH   7  10
ATOM      8  O   UNL     1      43.478   3.496  10.246  0.00  0.00    +0.000 OA
ATOM      9  C   UNL     1      44.602   3.654   9.775  0.00  0.00    +0.000 C 
ATOM     10  N   UNL     1      45.367   4.758  10.055  0.00  0.00    +0.000 N 
ATOM     11  H   UNL     1      46.184   4.946   9.485  0.00  0.00    +0.000 HD
BRANCH   9  12
ATOM     12  C   UNL     1      45.227   2.641   8.916  0.00  0.00    +0.000 A 
ATOM     13  C   UNL     1      44.901   1.301   9.065  0.00  0.00    +0.000 A 
ATOM     14  S   UNL     1      45.770   0.270   8.018  0.00  0.00    +0.000 S 
ATOM     15  C   UNL     1      46.572   1.584   7.293  0.00  0.00    +0.000 A 
ATOM     16  N   UNL     1      47.466   1.395   6.286  0.00  0.00    +0.000 NA
ATOM     17  C   UNL     1      47.969   2.485   5.807  0.00  0.00    +0.000 A 
ATOM     18  N   UNL     1      47.659   3.748   6.244  0.00  0.00    +0.000 N 
ATOM     19  C   UNL     1      46.784   3.984   7.275  0.00  0.00    +0.000 A 
ATOM     20  O   UNL     1      46.561   5.123   7.671  0.00  0.00    +0.000 OA
ATOM     21  C   UNL     1      46.188   2.792   7.847  0.00  0.00    +0.000 A 
ATOM     22  H   UNL     1      48.093   4.560   5.832  0.00  0.00    +0.000 HD
ENDBRANCH   9  12
ENDBRANCH   7  10
ENDBRANCH   1   7
BRANCH   4  23
ATOM     23  C   UNL     1      48.446   7.203  15.210  0.00  0.00    +0.000 C 
BRANCH  23  24
ATOM     24  N   UNL     1      48.395   6.219  16.271  0.00  0.00    +0.000 N 
ATOM     25  C   UNL     1      49.551   5.629  16.734  0.00  0.00    +0.000 C 
ATOM     26  O   UNL     1      50.655   5.892  16.263  0.00  0.00    +0.000 OA
ATOM     27  H   UNL     1      47.559   6.187  16.837  0.00  0.00    +0.000 HD
BRANCH  25  28
ATOM     28  C   UNL     1      49.335   4.564  17.815  0.00  0.00    +0.000 C 
ATOM     29  C   UNL     1      47.846   4.362  18.177  0.00  0.00    +0.000 C 
ATOM     30  C   UNL     1      47.498   2.916  17.809  0.00  0.00    +0.000 C 
ATOM     31  C   UNL     1      48.585   2.498  16.833  0.00  0.00    +0.000 C 
ATOM     32  C   UNL     1      49.826   3.175  17.393  0.00  0.00    +0.000 C 
BRANCH  31  33
ATOM     33  O   UNL     1      48.315   2.973  15.520  0.00  0.00    +0.000 OA
ATOM     34  H   UNL     1      47.712   3.739  15.564  0.00  0.00    +0.000 HD
ENDBRANCH  31  33
ENDBRANCH  25  28
ENDBRANCH  23  24
ENDBRANCH   4  23
TORSDOF 7
ENDMDL
MODEL 8
REMARK VINA RESULT:    -6.461      7.050     10.493
REMARK INTER + INTRA:          -9.996
REMARK INTER:                  -8.719
REMARK INTRA:                  -1.276
REMARK UNBOUND:                -1.079
REMARK  Name = 
REMARK  7 active torsions:
REMARK  status: ('A' for Active; 'I' for Inactive)
REMARK    1  A    between atoms: C_2  and  C_21
REMARK    2  A    between atoms: N_3  and  C_4
REMARK    3  A    between atoms: C_4  and  C_5
REMARK    4  A    between atoms: C_8  and  C_9
REMARK    5  A    between atoms: C_9  and  N_10
REMARK    6  A    between atoms: C_11  and  C_13
REMARK    7  A    between atoms: C_16  and  O_17
REMARK                            x       y       z     vdW  Elec       q    Type
REMARK                         _______ _______ _______ _____ _____    ______ ____
ROOT
ATOM      1  C   UNL     1      50.288   8.808  11.812  0.00  0.00    +0.000 A 
ATOM      2  C   UNL     1      49.405   9.878  11.616  0.00  0.00    +0.000 A 
ATOM      3  C   UNL     1      48.050   9.756  11.942  0.00  0.00    +0.000 A 
ATOM      4  C   UNL     1      47.550   8.567  12.490  0.00  0.00    +0.000 A 
ATOM      5  C   UNL     1      48.434   7.498  12.689  0.00  0.00    +0.000 A 
ATOM      6  C   UNL     1      49.791   7.620  12.364  0.00  0.00    +0.000 A 
ENDROOT
BRANCH   1   7
ATOM      7  C   UNL     1      51.755   8.960  11.492  0.00  0.00    +0.000 C 
BRANCH   7  10
ATOM      8  O   UNL     1      53.882   9.797   9.878  0.00  0.00    +0.000 OA
ATOM      9  C   UNL     1      53.142   8.908   9.463  0.00  0.00    +0.000 C 
ATOM     10  N   UNL     1      52.037   8.488  10.159  0.00  0.00    +0.000 N 
ATOM     11  H   UNL     1      51.588   7.620   9.889  0.00  0.00    +0.000 HD
BRANCH   9  12
ATOM     12  C   UNL     1      53.365   8.265   8.162  0.00  0.00    +0.000 A 
ATOM     13  C   UNL     1      53.442   9.030   7.008  0.00  0.00    +0.000 A 
ATOM     14  S   UNL     1      53.646   8.102   5.589  0.00  0.00    +0.000 S 
ATOM     15  C   UNL     1      53.692   6.650   6.475  0.00  0.00    +0.000 A 
ATOM     16  N   UNL     1      53.865   5.452   5.855  0.00  0.00    +0.000 NA
ATOM     17  C   UNL     1      53.917   4.439   6.656  0.00  0.00    +0.000 A 
ATOM     18  N   UNL     1      53.813   4.514   8.022  0.00  0.00    +0.000 N 
ATOM     19  C   UNL     1      53.610   5.698   8.687  0.00  0.00    +0.000 A 
ATOM     20  O   UNL     1      53.478   5.727   9.905  0.00  0.00    +0.000 OA
ATOM     21  C   UNL     1      53.546   6.868   7.833  0.00  0.00    +0.000 A 
ATOM     22  H   UNL     1      53.855   3.684   8.591  0.00  0.00    +0.000 HD
ENDBRANCH   9  12
ENDBRANCH   7  10
ENDBRANCH   1   7
BRANCH   4  23
ATOM     23  C   UNL     1      46.091   8.443  12.845  0.00  0.00    +0.000 C 
BRANCH  23  24
ATOM     24  N   UNL     1      45.750   7.095  13.248  0.00  0.00    +0.000 N 
ATOM     25  C   UNL     1      44.874   6.341  12.498  0.00  0.00    +0.000 C 
ATOM     26  O   UNL     1      44.339   6.776  11.482  0.00  0.00    +0.000 OA
ATOM     27  H   UNL     1      46.363   6.636  13.908  0.00  0.00    +0.000 HD
BRANCH  25  28
ATOM     28  C   UNL     1      44.561   4.958  13.081  0.00  0.00    +0.000 C 
ATOM     29  C   UNL     1      43.161   4.436  12.683  0.00  0.00    +0.000 C 
ATOM     30  C   UNL     1      43.386   3.159  11.866  0.00  0.00    +0.000 C 
ATOM     31  C   UNL     1      44.832   3.249  11.408  0.00  0.00    +0.000 C 
ATOM     32  C   UNL     1      45.533   3.873  12.605  0.00  0.00    +0.000 C 
BRANCH  31  33
ATOM     33  O   UNL     1      44.965   4.088  10.267  0.00  0.00    +0.000 OA
ATOM     34  H   UNL     1      45.382   4.931  10.525  0.00  0.00    +0.000 HD
ENDBRANCH  31  33
ENDBRANCH  25  28
ENDBRANCH  23  24
ENDBRANCH   4  23
TORSDOF 7
ENDMDL
MODEL 9
REMARK VINA RESULT:    -6.340      3.809      5.968
REMARK INTER + INTRA:          -9.828
REMARK INTER:                  -8.347
REMARK INTRA:                  -1.481
REMARK UNBOUND:                -1.079
REMARK  Name = 
REMARK  7 active torsions:
REMARK  status: ('A' for Active; 'I' for Inactive)
REMARK    1  A    between atoms: C_2  and  C_21
REMARK    2  A    between atoms: N_3  and  C_4
REMARK    3  A    between atoms: C_4  and  C_5
REMARK    4  A    between atoms: C_8  and  C_9
REMARK    5  A    between atoms: C_9  and  N_10
REMARK    6  A    between atoms: C_11  and  C_13
REMARK    7  A    between atoms: C_16  and  O_17
REMARK                            x       y       z     vdW  Elec       q    Type
REMARK                         _______ _______ _______ _____ _____    ______ ____
ROOT
ATOM      1  C   UNL     1      48.014   3.957  16.873  0.00  0.00    +0.000 A 
ATOM      2  C   UNL     1      49.303   3.732  17.373  0.00  0.00    +0.000 A 
ATOM      3  C   UNL     1      49.694   4.265  18.607  0.00  0.00    +0.000 A 
ATOM      4  C   UNL     1      48.799   5.020  19.376  0.00  0.00    +0.000 A 
ATOM      5  C   UNL     1      47.509   5.243  18.877  0.00  0.00    +0.000 A 
ATOM      6  C   UNL     1      47.116   4.708  17.642  0.00  0.00    +0.000 A 
ENDROOT
BRANCH   1   7
ATOM      7  C   UNL     1      47.589   3.349  15.559  0.00  0.00    +0.000 C 
BRANCH   7  10
ATOM      8  O   UNL     1      48.334   5.138  13.540  0.00  0.00    +0.000 OA
ATOM      9  C   UNL     1      47.144   5.036  13.827  0.00  0.00    +0.000 C 
ATOM     10  N   UNL     1      46.701   4.236  14.849  0.00  0.00    +0.000 N 
ATOM     11  H   UNL     1      45.712   4.019  14.909  0.00  0.00    +0.000 HD
BRANCH   9  12
ATOM     12  C   UNL     1      46.113   5.807  13.122  0.00  0.00    +0.000 A 
ATOM     13  C   UNL     1      46.290   7.163  12.889  0.00  0.00    +0.000 A 
ATOM     14  S   UNL     1      44.961   7.898  12.109  0.00  0.00    +0.000 S 
ATOM     15  C   UNL     1      44.126   6.419  12.007  0.00  0.00    +0.000 A 
ATOM     16  N   UNL     1      42.901   6.340  11.421  0.00  0.00    +0.000 NA
ATOM     17  C   UNL     1      42.404   5.148  11.383  0.00  0.00    +0.000 A 
ATOM     18  N   UNL     1      43.020   4.026  11.876  0.00  0.00    +0.000 N 
ATOM     19  C   UNL     1      44.243   4.063  12.499  0.00  0.00    +0.000 A 
ATOM     20  O   UNL     1      44.747   3.049  12.969  0.00  0.00    +0.000 OA
ATOM     21  C   UNL     1      44.847   5.380  12.567  0.00  0.00    +0.000 A 
ATOM     22  H   UNL     1      42.575   3.124  11.822  0.00  0.00    +0.000 HD
ENDBRANCH   9  12
ENDBRANCH   7  10
ENDBRANCH   1   7
BRANCH   4  23
ATOM     23  C   UNL     1      49.223   5.587  20.707  0.00  0.00    +0.000 C 
BRANCH  23  24
ATOM     24  N   UNL     1      48.768   6.950  20.879  0.00  0.00    +0.000 N 
ATOM     25  C   UNL     1      49.565   8.007  20.494  0.00  0.00    +0.000 C 
ATOM     26  O   UNL     1      50.684   7.844  20.015  0.00  0.00    +0.000 OA
ATOM     27  H   UNL     1      47.778   7.097  21.016  0.00  0.00    +0.000 HD
BRANCH  25  28
ATOM     28  C   UNL     1      48.977   9.391  20.795  0.00  0.00    +0.000 C 
ATOM     29  C   UNL     1      49.271  10.427  19.685  0.00  0.00    +0.000 C 
ATOM     30  C   UNL     1      47.914  10.854  19.117  0.00  0.00    +0.000 C 
ATOM     31  C   UNL     1      46.959   9.749  19.534  0.00  0.00    +0.000 C 
ATOM     32  C   UNL     1      47.451   9.378  20.924  0.00  0.00    +0.000 C 
BRANCH  31  33
ATOM     33  O   UNL     1      47.050   8.627  18.664  0.00  0.00    +0.000 OA
ATOM     34  H   UNL     1      46.195   8.487  18.216  0.00  0.00    +0.000 HD
ENDBRANCH  31  33
ENDBRANCH  25  28
ENDBRANCH  23  24
ENDBRANCH   4  23
TORSDOF 7
ENDMDL
