MODEL 1
REMARK VINA RESULT:    -7.559      0.000      0.000
REMARK INTER + INTRA:         -11.255
REMARK INTER:                 -10.431
REMARK INTRA:                  -0.824
REMARK UNBOUND:                -0.824
REMARK  Name = 
REMARK  7 active torsions:
REMARK  status: ('A' for Active; 'I' for Inactive)
REMARK    1  A    between atoms: C_2  and  O_3
REMARK    2  A    between atoms: C_2  and  C_19
REMARK    3  A    between atoms: O_3  and  C_4
REMARK    4  A    between atoms: C_4  and  C_5
REMARK    5  A    between atoms: C_8  and  C_9
REMARK    6  A    between atoms: C_9  and  C_10
REMARK    7  A    between atoms: C_13  and  O_14
REMARK                            x       y       z     vdW  Elec       q    Type
REMARK                         _______ _______ _______ _____ _____    ______ ____
ROOT
ATOM      1  C   UNL     1      47.060   5.062  14.941  0.00  0.00    +0.000 C 
ENDROOT
BRANCH   1   2
ATOM      2  C   UNL     1      46.399   4.788  13.624  0.00  0.00    +0.000 A 
ATOM      3  C   UNL     1      46.141   5.816  12.713  0.00  0.00    +0.000 A 
ATOM      4  C   UNL     1      45.631   5.510  11.456  0.00  0.00    +0.000 A 
ATOM      5  C   UNL     1      45.377   4.179  11.142  0.00  0.00    +0.000 A 
ATOM      6  N   UNL     1      45.575   3.172  12.027  0.00  0.00    +0.000 NA
ATOM      7  C   UNL     1      46.078   3.495  13.239  0.00  0.00    +0.000 A 
BRANCH   5   8
ATOM      8  C   UNL     1      44.883   3.793   9.769  0.00  0.00    +0.000 C 
BRANCH   8   9
ATOM      9  C   UNL     1      46.003   3.240   8.874  0.00  0.00    +0.000 C 
ATOM     10  C   UNL     1      45.681   1.824   8.372  0.00  0.00    +0.000 C 
ATOM     11  C   UNL     1      46.829   1.274   7.528  0.00  0.00    +0.000 C 
ATOM     12  C   UNL     1      47.177   2.188   6.354  0.00  0.00    +0.000 C 
ATOM     13  C   UNL     1      47.388   3.640   6.789  0.00  0.00    +0.000 C 
ATOM     14  C   UNL     1      46.260   4.171   7.678  0.00  0.00    +0.000 C 
BRANCH  12  15
ATOM     15  O   UNL     1      46.152   2.119   5.363  0.00  0.00    +0.000 OA
ATOM     16  H   UNL     1      46.107   2.974   4.905  0.00  0.00    +0.000 HD
ENDBRANCH  12  15
ENDBRANCH   8   9
ENDBRANCH   5   8
ENDBRANCH   1   2
BRANCH   1  17
ATOM     17  O   UNL     1      47.570   3.835  15.474  0.00  0.00    +0.000 OA
BRANCH  17  19
ATOM     18  O   UNL     1      46.496   3.192  17.385  0.00  0.00    +0.000 OA
ATOM     19  C   UNL     1      47.470   3.672  16.816  0.00  0.00    +0.000 C 
BRANCH  19  20
ATOM     20  C   UNL     1      48.681   4.079  17.524  0.00  0.00    +0.000 A 
ATOM     21  C   UNL     1      48.714   5.252  18.263  0.00  0.00    +0.000 A 
ATOM     22  S   UNL     1      50.216   5.526  19.025  0.00  0.00    +0.000 S 
ATOM     23  C   UNL     1      50.866   4.088  18.386  0.00  0.00    +0.000 A 
ATOM     24  N   UNL     1      52.147   3.721  18.661  0.00  0.00    +0.000 NA
ATOM     25  C   UNL     1      52.509   2.600  18.127  0.00  0.00    +0.000 A 
ATOM     26  N   UNL     1      51.705   1.824  17.333  0.00  0.00    +0.000 N 
ATOM     27  C   UNL     1      50.433   2.191  16.957  0.00  0.00    +0.000 A 
ATOM     28  O   UNL     1      49.819   1.533  16.126  0.00  0.00    +0.000 OA
ATOM     29  C   UNL     1      49.959   3.412  17.590  0.00  0.00    +0.000 A 
ATOM     30  H   UNL     1      52.059   0.976  16.911  0.00  0.00    +0.000 HD
ENDBRANCH  19  20
ENDBRANCH  17  19
ENDBRANCH   1  17
TORSDOF 7
ENDMDL
MODEL 2
REMARK VINA RESULT:    -7.329      3.335      9.226
REMARK INTER + INTRA:         -10.939
REMARK INTER:                  -9.858
REMARK INTRA:                  -1.081
REMARK UNBOUND:                -0.824
REMARK  Name = 
REMARK  7 active torsions:
REMARK  status: ('A' for Active; 'I' for Inactive)
REMARK    1  A    between atoms: C_2  and  O_3
REMARK    2  A    between atoms: C_2  and  C_19
REMARK    3  A    between atoms: O_3  and  C_4
REMARK    4  A    between atoms: C_4  and  C_5
REMARK    5  A    between atoms: C_8  and  C_9
REMARK    6  A    between atoms: C_9  and  C_10
REMARK    7  A    between atoms: C_13  and  O_14
REMARK                            x       y       z     vdW  Elec       q    Type
REMARK                         _______ _______ _______ _____ _____    ______ ____
ROOT
ATOM      1  C   UNL     1      46.829   6.299  12.696  0.00  0.00    +0.000 C 
ENDROOT
BRANCH   1   2
ATOM      2  C   UNL     1      47.281   5.745  14.014  0.00  0.00    +0.000 A 
ATOM      3  C   UNL     1      46.760   4.551  14.517  0.00  0.00    +0.000 A 
ATOM      4  C   UNL     1      47.283   4.009  15.686  0.00  0.00    +0.000 A 
ATOM      5  C   UNL     1      48.312   4.684  16.334  0.00  0.00    +0.000 A 
ATOM      6  N   UNL     1      48.799   5.867  15.890  0.00  0.00    +0.000 NA
ATOM      7  C   UNL     1      48.279   6.369  14.748  0.00  0.00    +0.000 A 
BRANCH   5   8
ATOM      8  C   UNL     1      48.953   4.103  17.571  0.00  0.00    +0.000 C 
BRANCH   8   9
ATOM      9  C   UNL     1      50.404   3.655  17.326  0.00  0.00    +0.000 C 
ATOM     10  C   UNL     1      51.405   4.542  18.083  0.00  0.00    +0.000 C 
ATOM     11  C   UNL     1      52.841   4.112  17.786  0.00  0.00    +0.000 C 
ATOM     12  C   UNL     1      53.085   2.639  18.107  0.00  0.00    +0.000 C 
ATOM     13  C   UNL     1      52.037   1.722  17.473  0.00  0.00    +0.000 C 
ATOM     14  C   UNL     1      50.600   2.185  17.730  0.00  0.00    +0.000 C 
BRANCH  12  15
ATOM     15  O   UNL     1      53.110   2.447  19.521  0.00  0.00    +0.000 OA
ATOM     16  H   UNL     1      53.967   2.061  19.766  0.00  0.00    +0.000 HD
ENDBRANCH  12  15
ENDBRANCH   8   9
ENDBRANCH   5   8
ENDBRANCH   1   2
BRANCH   1  17
ATOM     17  O   UNL     1      45.495   6.799  12.830  0.00  0.00    +0.000 OA
BRANCH  17  19
ATOM     18  O   UNL     1      44.264   7.549  11.058  0.00  0.00    +0.000 OA
ATOM     19  C   UNL     1      44.679   6.634  11.760  0.00  0.00    +0.000 C 
BRANCH  19  20
ATOM     20  C   UNL     1      44.386   5.230  11.487  0.00  0.00    +0.000 A 
ATOM     21  C   UNL     1      43.648   4.469  12.383  0.00  0.00    +0.000 A 
ATOM     22  S   UNL     1      43.404   2.863  11.861  0.00  0.00    +0.000 S 
ATOM     23  C   UNL     1      44.280   3.136  10.426  0.00  0.00    +0.000 A 
ATOM     24  N   UNL     1      44.451   2.140   9.515  0.00  0.00    +0.000 NA
ATOM     25  C   UNL     1      45.120   2.486   8.464  0.00  0.00    +0.000 A 
ATOM     26  N   UNL     1      45.643   3.736   8.254  0.00  0.00    +0.000 N 
ATOM     27  C   UNL     1      45.571   4.751   9.180  0.00  0.00    +0.000 A 
ATOM     28  O   UNL     1      46.184   5.797   9.002  0.00  0.00    +0.000 OA
ATOM     29  C   UNL     1      44.767   4.428  10.349  0.00  0.00    +0.000 A 
ATOM     30  H   UNL     1      46.193   3.934   7.428  0.00  0.00    +0.000 HD
ENDBRANCH  19  20
ENDBRANCH  17  19
ENDBRANCH   1  17
TORSDOF 7
ENDMDL
MODEL 3
REMARK VINA RESULT:    -7.109      3.446      8.680
REMARK INTER + INTRA:         -10.635
REMARK INTER:                 -10.031
REMARK INTRA:                  -0.604
REMARK UNBOUND:                -0.824
REMARK  Name = 
REMARK  7 active torsions:
REMARK  status: ('A' for Active; 'I' for Inactive)
REMARK    1  A    between atoms: C_2  and  O_3
REMARK    2  A    between atoms: C_2  and  C_19
REMARK    3  A    between atoms: O_3  and  C_4
REMARK    4  A    between atoms: C_4  and  C_5
REMARK    5  A    between atoms: C_8  and  C_9
REMARK    6  A    between atoms: C_9  and  C_10
REMARK    7  A    between atoms: C_13  and  O_14
REMARK                            x       y       z     vdW  Elec       q    Type
REMARK                         _______ _______ _______ _____ _____    ______ ____
ROOT
ATOM      1  C   UNL     1      47.059   8.400  12.136  0.00  0.00    +0.000 C 
ENDROOT
BRANCH   1   2
ATOM      2  C   UNL     1      47.883   8.091  13.351  0.00  0.00    +0.000 A 
ATOM      3  C   UNL     1      47.744   8.829  14.529  0.00  0.00    +0.000 A 
ATOM      4  C   UNL     1      48.441   8.444  15.669  0.00  0.00    +0.000 A 
ATOM      5  C   UNL     1      49.272   7.331  15.601  0.00  0.00    +0.000 A 
ATOM      6  N   UNL     1      49.457   6.630  14.457  0.00  0.00    +0.000 NA
ATOM      7  C   UNL     1      48.764   7.020  13.365  0.00  0.00    +0.000 A 
BRANCH   5   8
ATOM      8  C   UNL     1      49.998   6.838  16.829  0.00  0.00    +0.000 C 
BRANCH   8   9
ATOM      9  C   UNL     1      49.438   5.504  17.349  0.00  0.00    +0.000 C 
ATOM     10  C   UNL     1      48.167   5.089  16.590  0.00  0.00    +0.000 C 
ATOM     11  C   UNL     1      47.599   3.789  17.157  0.00  0.00    +0.000 C 
ATOM     12  C   UNL     1      48.621   2.654  17.144  0.00  0.00    +0.000 C 
ATOM     13  C   UNL     1      49.952   3.060  17.781  0.00  0.00    +0.000 C 
ATOM     14  C   UNL     1      50.492   4.390  17.249  0.00  0.00    +0.000 C 
BRANCH  12  15
ATOM     15  O   UNL     1      48.837   2.209  15.805  0.00  0.00    +0.000 OA
ATOM     16  H   UNL     1      49.352   1.386  15.832  0.00  0.00    +0.000 HD
ENDBRANCH  12  15
ENDBRANCH   8   9
ENDBRANCH   5   8
ENDBRANCH   1   2
BRANCH   1  17
ATOM     17  O   UNL     1      46.534   7.179  11.604  0.00  0.00    +0.000 OA
BRANCH  17  19
ATOM     18  O   UNL     1      44.475   8.088  11.214  0.00  0.00    +0.000 OA
ATOM     19  C   UNL     1      45.188   7.120  11.447  0.00  0.00    +0.000 C 
BRANCH  19  20
ATOM     20  C   UNL     1      44.673   5.755  11.529  0.00  0.00    +0.000 A 
ATOM     21  C   UNL     1      44.008   5.311  12.662  0.00  0.00    +0.000 A 
ATOM     22  S   UNL     1      43.472   3.696  12.539  0.00  0.00    +0.000 S 
ATOM     23  C   UNL     1      44.117   3.542  10.971  0.00  0.00    +0.000 A 
ATOM     24  N   UNL     1      43.999   2.375  10.281  0.00  0.00    +0.000 NA
ATOM     25  C   UNL     1      44.516   2.398   9.096  0.00  0.00    +0.000 A 
ATOM     26  N   UNL     1      45.153   3.483   8.550  0.00  0.00    +0.000 N 
ATOM     27  C   UNL     1      45.373   4.656   9.236  0.00  0.00    +0.000 A 
ATOM     28  O   UNL     1      46.077   5.534   8.752  0.00  0.00    +0.000 OA
ATOM     29  C   UNL     1      44.746   4.699  10.548  0.00  0.00    +0.000 A 
ATOM     30  H   UNL     1      45.574   3.427   7.632  0.00  0.00    +0.000 HD
ENDBRANCH  19  20
ENDBRANCH  17  19
ENDBRANCH   1  17
TORSDOF 7
ENDMDL
MODEL 4
REMARK VINA RESULT:    -7.095      2.141      3.002
REMARK INTER + INTRA:         -10.616
REMARK INTER:                 -11.215
REMARK INTRA:                   0.600
REMARK UNBOUND:                -0.824
REMARK  Name = 
REMARK  7 active torsions:
REMARK  status: ('A' for Active; 'I' for Inactive)
REMARK    1  A    between atoms: C_2  and  O_3
REMARK    2  A    between atoms: C_2  and  C_19
REMARK    3  A    between atoms: O_3  and  C_4
REMARK    4  A    between atoms: C_4  and  C_5
REMARK    5  A    between atoms: C_8  and  C_9
REMARK    6  A    between atoms: C_9  and  C_10
REMARK    7  A    between atoms: C_13  and  O_14
REMARK                            x       y       z     vdW  Elec       q    Type
REMARK                         _______ _______ _______ _____ _____    ______ ____
ROOT
ATOM      1  C   UNL     1      46.192   6.730  12.365  0.00  0.00    +0.000 C 
ENDROOT
BRANCH   1   2
ATOM      2  C   UNL     1      45.668   5.577  11.564  0.00  0.00    +0.000 A 
ATOM      3  C   UNL     1      45.340   5.721  10.213  0.00  0.00    +0.000 A 
ATOM      4  C   UNL     1      44.966   4.605   9.473  0.00  0.00    +0.000 A 
ATOM      5  C   UNL     1      44.916   3.367  10.106  0.00  0.00    +0.000 A 
ATOM      6  N   UNL     1      45.184   3.214  11.425  0.00  0.00    +0.000 NA
ATOM      7  C   UNL     1      45.552   4.312  12.121  0.00  0.00    +0.000 A 
BRANCH   5   8
ATOM      8  C   UNL     1      44.576   2.119   9.329  0.00  0.00    +0.000 C 
BRANCH   8   9
ATOM      9  C   UNL     1      45.282   2.065   7.964  0.00  0.00    +0.000 C 
ATOM     10  C   UNL     1      45.820   3.444   7.549  0.00  0.00    +0.000 C 
ATOM     11  C   UNL     1      46.470   3.377   6.169  0.00  0.00    +0.000 C 
ATOM     12  C   UNL     1      47.581   2.330   6.100  0.00  0.00    +0.000 C 
ATOM     13  C   UNL     1      47.127   0.964   6.619  0.00  0.00    +0.000 C 
ATOM     14  C   UNL     1      46.429   1.041   7.980  0.00  0.00    +0.000 C 
BRANCH  12  15
ATOM     15  O   UNL     1      48.719   2.779   6.834  0.00  0.00    +0.000 OA
ATOM     16  H   UNL     1      49.521   2.508   6.357  0.00  0.00    +0.000 HD
ENDBRANCH  12  15
ENDBRANCH   8   9
ENDBRANCH   5   8
ENDBRANCH   1   2
BRANCH   1  17
ATOM     17  O   UNL     1      46.629   6.254  13.642  0.00  0.00    +0.000 OA
BRANCH  17  19
ATOM     18  O   UNL     1      48.813   6.402  12.990  0.00  0.00    +0.000 OA
ATOM     19  C   UNL     1      47.967   6.267  13.865  0.00  0.00    +0.000 C 
BRANCH  19  20
ATOM     20  C   UNL     1      48.301   6.161  15.283  0.00  0.00    +0.000 A 
ATOM     21  C   UNL     1      48.891   7.220  15.957  0.00  0.00    +0.000 A 
ATOM     22  S   UNL     1      49.177   6.893  17.607  0.00  0.00    +0.000 S 
ATOM     23  C   UNL     1      48.525   5.327  17.468  0.00  0.00    +0.000 A 
ATOM     24  N   UNL     1      48.470   4.498  18.545  0.00  0.00    +0.000 NA
ATOM     25  C   UNL     1      47.936   3.344  18.307  0.00  0.00    +0.000 A 
ATOM     26  N   UNL     1      47.467   2.946  17.081  0.00  0.00    +0.000 N 
ATOM     27  C   UNL     1      47.576   3.713  15.944  0.00  0.00    +0.000 A 
ATOM     28  O   UNL     1      47.277   3.247  14.851  0.00  0.00    +0.000 OA
ATOM     29  C   UNL     1      48.107   5.047  16.180  0.00  0.00    +0.000 A 
ATOM     30  H   UNL     1      47.096   2.014  16.948  0.00  0.00    +0.000 HD
ENDBRANCH  19  20
ENDBRANCH  17  19
ENDBRANCH   1  17
TORSDOF 7
ENDMDL
MODEL 5
REMARK VINA RESULT:    -7.072      1.890      2.616
REMARK INTER + INTRA:         -10.583
REMARK INTER:                  -9.758
REMARK INTRA:                  -0.825
REMARK UNBOUND:                -0.824
REMARK  Name = 
REMARK  7 active torsions:
REMARK  status: ('A' for Active; 'I' for Inactive)
REMARK    1  A    between atoms: C_2  and  O_3
REMARK    2  A    between atoms: C_2  and  C_19
REMARK    3  A    between atoms: O_3  and  C_4
REMARK    4  A    between atoms: C_4  and  C_5
REMARK    5  A    between atoms: C_8  and  C_9
REMARK    6  A    between atoms: C_9  and  C_10
REMARK    7  A    between atoms: C_13  and  O_14
REMARK                            x       y       z     vdW  Elec       q    Type
REMARK                         _______ _______ _______ _____ _____    ______ ____
ROOT
ATOM      1  C   UNL     1      49.046   6.583  15.896  0.00  0.00    +0.000 C 
ENDROOT
BRANCH   1   2
ATOM      2  C   UNL     1      48.078   6.184  14.824  0.00  0.00    +0.000 A 
ATOM      3  C   UNL     1      47.367   4.983  14.897  0.00  0.00    +0.000 A 
ATOM      4  C   UNL     1      46.395   4.698  13.944  0.00  0.00    +0.000 A 
ATOM      5  C   UNL     1      46.164   5.620  12.928  0.00  0.00    +0.000 A 
ATOM      6  N   UNL     1      46.874   6.767  12.811  0.00  0.00    +0.000 NA
ATOM      7  C   UNL     1      47.808   7.024  13.754  0.00  0.00    +0.000 A 
BRANCH   5   8
ATOM      8  C   UNL     1      45.077   5.383  11.908  0.00  0.00    +0.000 C 
BRANCH   8   9
ATOM      9  C   UNL     1      45.560   4.536  10.719  0.00  0.00    +0.000 C 
ATOM     10  C   UNL     1      44.662   3.308  10.497  0.00  0.00    +0.000 C 
ATOM     11  C   UNL     1      45.190   2.454   9.345  0.00  0.00    +0.000 C 
ATOM     12  C   UNL     1      45.333   3.251   8.049  0.00  0.00    +0.000 C 
ATOM     13  C   UNL     1      46.118   4.549   8.247  0.00  0.00    +0.000 C 
ATOM     14  C   UNL     1      45.620   5.377   9.434  0.00  0.00    +0.000 C 
BRANCH  12  15
ATOM     15  O   UNL     1      44.044   3.537   7.509  0.00  0.00    +0.000 OA
ATOM     16  H   UNL     1      43.378   3.052   8.023  0.00  0.00    +0.000 HD
ENDBRANCH  12  15
ENDBRANCH   8   9
ENDBRANCH   5   8
ENDBRANCH   1   2
BRANCH   1  17
ATOM     17  O   UNL     1      49.869   5.459  16.227  0.00  0.00    +0.000 OA
BRANCH  17  19
ATOM     18  O   UNL     1      48.736   5.016  18.160  0.00  0.00    +0.000 OA
ATOM     19  C   UNL     1      49.763   4.986  17.493  0.00  0.00    +0.000 C 
BRANCH  19  20
ATOM     20  C   UNL     1      51.001   4.375  17.969  0.00  0.00    +0.000 A 
ATOM     21  C   UNL     1      51.935   5.116  18.679  0.00  0.00    +0.000 A 
ATOM     22  S   UNL     1      53.295   4.204  19.158  0.00  0.00    +0.000 S 
ATOM     23  C   UNL     1      52.679   2.795  18.427  0.00  0.00    +0.000 A 
ATOM     24  N   UNL     1      53.374   1.627  18.473  0.00  0.00    +0.000 NA
ATOM     25  C   UNL     1      52.786   0.630  17.895  0.00  0.00    +0.000 A 
ATOM     26  N   UNL     1      51.570   0.708  17.264  0.00  0.00    +0.000 N 
ATOM     27  C   UNL     1      50.868   1.882  17.117  0.00  0.00    +0.000 A 
ATOM     28  O   UNL     1      49.864   1.920  16.416  0.00  0.00    +0.000 OA
ATOM     29  C   UNL     1      51.460   3.015  17.813  0.00  0.00    +0.000 A 
ATOM     30  H   UNL     1      51.180  -0.098  16.794  0.00  0.00    +0.000 HD
ENDBRANCH  19  20
ENDBRANCH  17  19
ENDBRANCH   1  17
TORSDOF 7
ENDMDL
MODEL 6
REMARK VINA RESULT:    -7.034      3.034      3.852
REMARK INTER + INTRA:         -10.531
REMARK INTER:                 -10.108
REMARK INTRA:                  -0.423
REMARK UNBOUND:                -0.824
REMARK  Name = 
REMARK  7 active torsions:
REMARK  status: ('A' for Active; 'I' for Inactive)
REMARK    1  A    between atoms: C_2  and  O_3
REMARK    2  A    between atoms: C_2  and  C_19
REMARK    3  A    between atoms: O_3  and  C_4
REMARK    4  A    between atoms: C_4  and  C_5
REMARK    5  A    between atoms: C_8  and  C_9
REMARK    6  A    between atoms: C_9  and  C_10
REMARK    7  A    between atoms: C_13  and  O_14
REMARK                            x       y       z     vdW  Elec       q    Type
REMARK                         _______ _______ _______ _____ _____    ______ ____
ROOT
ATOM      1  C   UNL     1      49.153   6.941  15.596  0.00  0.00    +0.000 C 
ENDROOT
BRANCH   1   2
ATOM      2  C   UNL     1      48.211   7.047  14.435  0.00  0.00    +0.000 A 
ATOM      3  C   UNL     1      47.988   5.966  13.579  0.00  0.00    +0.000 A 
ATOM      4  C   UNL     1      47.024   6.063  12.582  0.00  0.00    +0.000 A 
ATOM      5  C   UNL     1      46.311   7.251  12.455  0.00  0.00    +0.000 A 
ATOM      6  N   UNL     1      46.544   8.328  13.243  0.00  0.00    +0.000 NA
ATOM      7  C   UNL     1      47.481   8.205  14.209  0.00  0.00    +0.000 A 
BRANCH   5   8
ATOM      8  C   UNL     1      45.212   7.381  11.428  0.00  0.00    +0.000 C 
BRANCH   8   9
ATOM      9  C   UNL     1      44.234   6.195  11.459  0.00  0.00    +0.000 C 
ATOM     10  C   UNL     1      44.729   5.030  10.588  0.00  0.00    +0.000 C 
ATOM     11  C   UNL     1      43.718   3.885  10.592  0.00  0.00    +0.000 C 
ATOM     12  C   UNL     1      43.398   3.396  12.004  0.00  0.00    +0.000 C 
ATOM     13  C   UNL     1      43.017   4.541  12.944  0.00  0.00    +0.000 C 
ATOM     14  C   UNL     1      44.005   5.710  12.899  0.00  0.00    +0.000 C 
BRANCH  12  15
ATOM     15  O   UNL     1      44.512   2.679  12.534  0.00  0.00    +0.000 OA
ATOM     16  H   UNL     1      45.303   2.913  12.022  0.00  0.00    +0.000 HD
ENDBRANCH  12  15
ENDBRANCH   8   9
ENDBRANCH   5   8
ENDBRANCH   1   2
BRANCH   1  17
ATOM     17  O   UNL     1      49.413   5.559  15.864  0.00  0.00    +0.000 OA
BRANCH  17  19
ATOM     18  O   UNL     1      48.335   5.230  17.851  0.00  0.00    +0.000 OA
ATOM     19  C   UNL     1      49.347   5.173  17.162  0.00  0.00    +0.000 C 
BRANCH  19  20
ATOM     20  C   UNL     1      50.608   4.619  17.649  0.00  0.00    +0.000 A 
ATOM     21  C   UNL     1      51.534   5.421  18.298  0.00  0.00    +0.000 A 
ATOM     22  S   UNL     1      52.925   4.570  18.802  0.00  0.00    +0.000 S 
ATOM     23  C   UNL     1      52.331   3.108  18.163  0.00  0.00    +0.000 A 
ATOM     24  N   UNL     1      53.056   1.960  18.260  0.00  0.00    +0.000 NA
ATOM     25  C   UNL     1      52.482   0.920  17.750  0.00  0.00    +0.000 A 
ATOM     26  N   UNL     1      51.255   0.933  17.138  0.00  0.00    +0.000 N 
ATOM     27  C   UNL     1      50.522   2.080  16.939  0.00  0.00    +0.000 A 
ATOM     28  O   UNL     1      49.505   2.055  16.256  0.00  0.00    +0.000 OA
ATOM     29  C   UNL     1      51.097   3.264  17.559  0.00  0.00    +0.000 A 
ATOM     30  H   UNL     1      50.877   0.093  16.721  0.00  0.00    +0.000 HD
ENDBRANCH  19  20
ENDBRANCH  17  19
ENDBRANCH   1  17
TORSDOF 7
ENDMDL
MODEL 7
REMARK VINA RESULT:    -6.924      3.707      8.579
REMARK INTER + INTRA:         -10.380
REMARK INTER:                  -9.645
REMARK INTRA:                  -0.735
REMARK UNBOUND:                -0.824
REMARK  Name = 
REMARK  7 active torsions:
REMARK  status: ('A' for Active; 'I' for Inactive)
REMARK    1  A    between atoms: C_2  and  O_3
REMARK    2  A    between atoms: C_2  and  C_19
REMARK    3  A    between atoms: O_3  and  C_4
REMARK    4  A    between atoms: C_4  and  C_5
REMARK    5  A    between atoms: C_8  and  C_9
REMARK    6  A    between atoms: C_9  and  C_10
REMARK    7  A    between atoms: C_13  and  O_14
REMARK                            x       y       z     vdW  Elec       q    Type
REMARK                         _______ _______ _______ _____ _____    ______ ____
ROOT
ATOM      1  C   UNL     1      48.060   8.282  12.076  0.00  0.00    +0.000 C 
ENDROOT
BRANCH   1   2
ATOM      2  C   UNL     1      48.490   8.035  13.491  0.00  0.00    +0.000 A 
ATOM      3  C   UNL     1      47.969   8.783  14.550  0.00  0.00    +0.000 A 
ATOM      4  C   UNL     1      48.304   8.451  15.858  0.00  0.00    +0.000 A 
ATOM      5  C   UNL     1      49.165   7.382  16.078  0.00  0.00    +0.000 A 
ATOM      6  N   UNL     1      49.719   6.674  15.065  0.00  0.00    +0.000 NA
ATOM      7  C   UNL     1      49.372   7.011  13.803  0.00  0.00    +0.000 A 
BRANCH   5   8
ATOM      8  C   UNL     1      49.507   6.946  17.482  0.00  0.00    +0.000 C 
BRANCH   8   9
ATOM      9  C   UNL     1      49.080   5.497  17.769  0.00  0.00    +0.000 C 
ATOM     10  C   UNL     1      47.778   5.135  17.037  0.00  0.00    +0.000 C 
ATOM     11  C   UNL     1      47.345   3.710  17.378  0.00  0.00    +0.000 C 
ATOM     12  C   UNL     1      48.432   2.683  17.069  0.00  0.00    +0.000 C 
ATOM     13  C   UNL     1      49.783   3.064  17.677  0.00  0.00    +0.000 C 
ATOM     14  C   UNL     1      50.191   4.509  17.378  0.00  0.00    +0.000 C 
BRANCH  12  15
ATOM     15  O   UNL     1      48.560   2.518  15.658  0.00  0.00    +0.000 OA
ATOM     16  H   UNL     1      49.488   2.668  15.412  0.00  0.00    +0.000 HD
ENDBRANCH  12  15
ENDBRANCH   8   9
ENDBRANCH   5   8
ENDBRANCH   1   2
BRANCH   1  17
ATOM     17  O   UNL     1      47.469   7.089  11.550  0.00  0.00    +0.000 OA
BRANCH  17  19
ATOM     18  O   UNL     1      45.392   7.867  12.096  0.00  0.00    +0.000 OA
ATOM     19  C   UNL     1      46.116   7.021  11.583  0.00  0.00    +0.000 C 
BRANCH  19  20
ATOM     20  C   UNL     1      45.594   5.850  10.883  0.00  0.00    +0.000 A 
ATOM     21  C   UNL     1      45.865   5.647   9.538  0.00  0.00    +0.000 A 
ATOM     22  S   UNL     1      45.179   4.210   8.923  0.00  0.00    +0.000 S 
ATOM     23  C   UNL     1      44.498   3.821  10.435  0.00  0.00    +0.000 A 
ATOM     24  N   UNL     1      43.765   2.687  10.597  0.00  0.00    +0.000 NA
ATOM     25  C   UNL     1      43.321   2.503  11.798  0.00  0.00    +0.000 A 
ATOM     26  N   UNL     1      43.536   3.363  12.844  0.00  0.00    +0.000 N 
ATOM     27  C   UNL     1      44.198   4.563  12.712  0.00  0.00    +0.000 A 
ATOM     28  O   UNL     1      44.229   5.358  13.644  0.00  0.00    +0.000 OA
ATOM     29  C   UNL     1      44.775   4.778  11.394  0.00  0.00    +0.000 A 
ATOM     30  H   UNL     1      43.128   3.185  13.752  0.00  0.00    +0.000 HD
ENDBRANCH  19  20
ENDBRANCH  17  19
ENDBRANCH   1  17
TORSDOF 7
ENDMDL
MODEL 8
REMARK VINA RESULT:    -6.838      3.087      4.336
REMARK INTER + INTRA:         -10.261
REMARK INTER:                  -8.790
REMARK INTRA:                  -1.471
REMARK UNBOUND:                -0.824
REMARK  Name = 
REMARK  7 active torsions:
REMARK  status: ('A' for Active; 'I' for Inactive)
REMARK    1  A    between atoms: C_2  and  O_3
REMARK    2  A    between atoms: C_2  and  C_19
REMARK    3  A    between atoms: O_3  and  C_4
REMARK    4  A    between atoms: C_4  and  C_5
REMARK    5  A    between atoms: C_8  and  C_9
REMARK    6  A    between atoms: C_9  and  C_10
REMARK    7  A    between atoms: C_13  and  O_14
REMARK                            x       y       z     vdW  Elec       q    Type
REMARK                         _______ _______ _______ _____ _____    ______ ____
ROOT
ATOM      1  C   UNL     1      49.102   9.115  14.422  0.00  0.00    +0.000 C 
ENDROOT
BRANCH   1   2
ATOM      2  C   UNL     1      48.043   8.604  13.493  0.00  0.00    +0.000 A 
ATOM      3  C   UNL     1      48.366   7.809  12.390  0.00  0.00    +0.000 A 
ATOM      4  C   UNL     1      47.350   7.259  11.616  0.00  0.00    +0.000 A 
ATOM      5  C   UNL     1      46.029   7.527  11.958  0.00  0.00    +0.000 A 
ATOM      6  N   UNL     1      45.694   8.333  12.994  0.00  0.00    +0.000 NA
ATOM      7  C   UNL     1      46.699   8.850  13.734  0.00  0.00    +0.000 A 
BRANCH   5   8
ATOM      8  C   UNL     1      44.893   6.902  11.185  0.00  0.00    +0.000 C 
BRANCH   8   9
ATOM      9  C   UNL     1      45.055   5.381  11.028  0.00  0.00    +0.000 C 
ATOM     10  C   UNL     1      44.855   4.649  12.365  0.00  0.00    +0.000 C 
ATOM     11  C   UNL     1      45.072   3.146  12.196  0.00  0.00    +0.000 C 
ATOM     12  C   UNL     1      44.169   2.546  11.120  0.00  0.00    +0.000 C 
ATOM     13  C   UNL     1      44.241   3.318   9.801  0.00  0.00    +0.000 C 
ATOM     14  C   UNL     1      44.076   4.829   9.980  0.00  0.00    +0.000 C 
BRANCH  12  15
ATOM     15  O   UNL     1      42.821   2.500  11.586  0.00  0.00    +0.000 OA
ATOM     16  H   UNL     1      42.594   3.366  11.964  0.00  0.00    +0.000 HD
ENDBRANCH  12  15
ENDBRANCH   8   9
ENDBRANCH   5   8
ENDBRANCH   1   2
BRANCH   1  17
ATOM     17  O   UNL     1      49.110   8.316  15.610  0.00  0.00    +0.000 OA
BRANCH  17  19
ATOM     18  O   UNL     1      51.052   7.300  14.969  0.00  0.00    +0.000 OA
ATOM     19  C   UNL     1      50.055   7.346  15.678  0.00  0.00    +0.000 C 
BRANCH  19  20
ATOM     20  C   UNL     1      49.791   6.379  16.740  0.00  0.00    +0.000 A 
ATOM     21  C   UNL     1      50.515   6.404  17.923  0.00  0.00    +0.000 A 
ATOM     22  S   UNL     1      50.032   5.203  19.034  0.00  0.00    +0.000 S 
ATOM     23  C   UNL     1      48.846   4.612  17.966  0.00  0.00    +0.000 A 
ATOM     24  N   UNL     1      48.057   3.559  18.315  0.00  0.00    +0.000 NA
ATOM     25  C   UNL     1      47.187   3.222  17.420  0.00  0.00    +0.000 A 
ATOM     26  N   UNL     1      47.048   3.839  16.203  0.00  0.00    +0.000 N 
ATOM     27  C   UNL     1      47.874   4.850  15.769  0.00  0.00    +0.000 A 
ATOM     28  O   UNL     1      47.799   5.259  14.616  0.00  0.00    +0.000 OA
ATOM     29  C   UNL     1      48.824   5.308  16.771  0.00  0.00    +0.000 A 
ATOM     30  H   UNL     1      46.374   3.503  15.528  0.00  0.00    +0.000 HD
ENDBRANCH  19  20
ENDBRANCH  17  19
ENDBRANCH   1  17
TORSDOF 7
ENDMDL
MODEL 9
REMARK VINA RESULT:    -6.473      3.338      4.432
REMARK INTER + INTRA:          -9.757
REMARK INTER:                  -8.808
REMARK INTRA:                  -0.948
REMARK UNBOUND:                -0.824
REMARK  Name = 
REMARK  7 active torsions:
REMARK  status: ('A' for Active; 'I' for Inactive)
REMARK    1  A    between atoms: C_2  and  O_3
REMARK    2  A    between atoms: C_2  and  C_19
REMARK    3  A    between atoms: O_3  and  C_4
REMARK    4  A    between atoms: C_4  and  C_5
REMARK    5  A    between atoms: C_8  and  C_9
REMARK    6  A    between atoms: C_9  and  C_10
REMARK    7  A    between atoms: C_13  and  O_14
REMARK                            x       y       z     vdW  Elec       q    Type
REMARK                         _______ _______ _______ _____ _____    ______ ____
ROOT
ATOM      1  C   UNL     1      49.814   8.229  16.844  0.00  0.00    +0.000 C 
ENDROOT
BRANCH   1   2
ATOM      2  C   UNL     1      49.047   7.956  15.586  0.00  0.00    +0.000 A 
ATOM      3  C   UNL     1      48.063   8.838  15.129  0.00  0.00    +0.000 A 
ATOM      4  C   UNL     1      47.452   8.612  13.900  0.00  0.00    +0.000 A 
ATOM      5  C   UNL     1      47.832   7.498  13.159  0.00  0.00    +0.000 A 
ATOM      6  N   UNL     1      48.749   6.606  13.604  0.00  0.00    +0.000 NA
ATOM      7  C   UNL     1      49.333   6.851  14.797  0.00  0.00    +0.000 A 
BRANCH   5   8
ATOM      8  C   UNL     1      47.242   7.247  11.792  0.00  0.00    +0.000 C 
BRANCH   8   9
ATOM      9  C   UNL     1      46.154   6.161  11.812  0.00  0.00    +0.000 C 
ATOM     10  C   UNL     1      44.945   6.585  12.661  0.00  0.00    +0.000 C 
ATOM     11  C   UNL     1      43.900   5.472  12.709  0.00  0.00    +0.000 C 
ATOM     12  C   UNL     1      43.447   5.041  11.315  0.00  0.00    +0.000 C 
ATOM     13  C   UNL     1      44.624   4.724  10.391  0.00  0.00    +0.000 C 
ATOM     14  C   UNL     1      45.695   5.818  10.385  0.00  0.00    +0.000 C 
BRANCH  12  15
ATOM     15  O   UNL     1      42.629   6.055  10.734  0.00  0.00    +0.000 OA
ATOM     16  H   UNL     1      43.201   6.682  10.263  0.00  0.00    +0.000 HD
ENDBRANCH  12  15
ENDBRANCH   8   9
ENDBRANCH   5   8
ENDBRANCH   1   2
BRANCH   1  17
ATOM     17  O   UNL     1      50.549   7.056  17.208  0.00  0.00    +0.000 OA
BRANCH  17  19
ATOM     18  O   UNL     1      49.816   6.763  19.352  0.00  0.00    +0.000 OA
ATOM     19  C   UNL     1      50.047   6.323  18.232  0.00  0.00    +0.000 C 
BRANCH  19  20
ATOM     20  C   UNL     1      49.749   4.946  17.844  0.00  0.00    +0.000 A 
ATOM     21  C   UNL     1      48.469   4.577  17.459  0.00  0.00    +0.000 A 
ATOM     22  S   UNL     1      48.345   2.931  17.026  0.00  0.00    +0.000 S 
ATOM     23  C   UNL     1      49.996   2.664  17.346  0.00  0.00    +0.000 A 
ATOM     24  N   UNL     1      50.548   1.432  17.174  0.00  0.00    +0.000 NA
ATOM     25  C   UNL     1      51.813   1.371  17.435  0.00  0.00    +0.000 A 
ATOM     26  N   UNL     1      52.567   2.432  17.867  0.00  0.00    +0.000 N 
ATOM     27  C   UNL     1      52.040   3.674  18.137  0.00  0.00    +0.000 A 
ATOM     28  O   UNL     1      52.731   4.539  18.663  0.00  0.00    +0.000 OA
ATOM     29  C   UNL     1      50.634   3.807  17.791  0.00  0.00    +0.000 A 
ATOM     30  H   UNL     1      53.545   2.311  18.094  0.00  0.00    +0.000 HD
ENDBRANCH  19  20
ENDBRANCH  17  19
ENDBRANCH   1  17
TORSDOF 7
ENDMDL
