MODEL 1
REMARK VINA RESULT:    -8.837      0.000      0.000
REMARK INTER + INTRA:         -12.050
REMARK INTER:                 -11.420
REMARK INTRA:                  -0.630
REMARK UNBOUND:                -0.630
REMARK  Name = 
REMARK  5 active torsions:
REMARK  status: ('A' for Active; 'I' for Inactive)
REMARK    1  A    between atoms: C_2  and  C_4
REMARK    2  A    between atoms: C_7  and  N_8
REMARK    3  A    between atoms: N_8  and  C_9
REMARK    4  A    between atoms: C_9  and  C_10
REMARK    5  A    between atoms: C_14  and  C_15
REMARK                            x       y       z     vdW  Elec       q    Type
REMARK                         _______ _______ _______ _____ _____    ______ ____
ROOT
ATOM      1  C   UNL     1      43.838   4.725  11.429  0.00  0.00    +0.000 C 
ENDROOT
BRANCH   1   2
ATOM      2  C   UNL     1      45.114   5.255  12.022  0.00  0.00    +0.000 A 
ATOM      3  C   UNL     1      45.816   6.292  11.423  0.00  0.00    +0.000 A 
ATOM      4  N   UNL     1      46.982   6.783  11.893  0.00  0.00    +0.000 NA
ATOM      5  C   UNL     1      47.478   6.207  13.019  0.00  0.00    +0.000 A 
ATOM      6  C   UNL     1      46.864   5.174  13.729  0.00  0.00    +0.000 A 
ATOM      7  C   UNL     1      45.649   4.712  13.200  0.00  0.00    +0.000 A 
BRANCH   6   8
ATOM      8  C   UNL     1      47.479   4.599  14.937  0.00  0.00    +0.000 A 
ATOM      9  C   UNL     1      47.970   5.384  15.987  0.00  0.00    +0.000 A 
ATOM     10  C   UNL     1      48.509   4.766  17.115  0.00  0.00    +0.000 A 
ATOM     11  C   UNL     1      48.547   3.384  17.168  0.00  0.00    +0.000 A 
ATOM     12  F   UNL     1      49.054   2.761  18.237  0.00  0.00    +0.000 F 
ATOM     13  C   UNL     1      48.054   2.666  16.096  0.00  0.00    +0.000 A 
ATOM     14  N   UNL     1      47.528   3.241  14.986  0.00  0.00    +0.000 NA
ENDBRANCH   6   8
ENDBRANCH   1   2
BRANCH   1  15
ATOM     15  N   UNL     1      43.860   4.860   9.976  0.00  0.00    +0.000 N 
ATOM     16  H   UNL     1      43.998   5.823   9.676  0.00  0.00    +0.000 HD
BRANCH  15  20
ATOM     17  C   UNL     1      46.199   2.045   7.978  0.00  0.00    +0.000 A 
ATOM     18  C   UNL     1      46.377   3.379   7.654  0.00  0.00    +0.000 A 
ATOM     19  C   UNL     1      45.578   4.335   8.290  0.00  0.00    +0.000 A 
ATOM     20  C   UNL     1      44.612   3.949   9.222  0.00  0.00    +0.000 A 
ATOM     21  C   UNL     1      44.541   2.574   9.487  0.00  0.00    +0.000 A 
ATOM     22  N   UNL     1      45.283   1.608   8.883  0.00  0.00    +0.000 NA
BRANCH  17  24
ATOM     23  N   UNL     1      46.784  -0.291   7.655  0.00  0.00    +0.000 N 
ATOM     24  C   UNL     1      47.064   1.007   7.329  0.00  0.00    +0.000 C 
ATOM     25  O   UNL     1      47.966   1.295   6.551  0.00  0.00    +0.000 OA
ATOM     26  H   UNL     1      47.320  -1.034   7.233  0.00  0.00    +0.000 HD
ATOM     27  H   UNL     1      46.009  -0.500   8.274  0.00  0.00    +0.000 HD
ENDBRANCH  17  24
ENDBRANCH  15  20
ENDBRANCH   1  15
TORSDOF 5
ENDMDL
MODEL 2
REMARK VINA RESULT:    -8.621      2.681      3.709
REMARK INTER + INTRA:         -11.771
REMARK INTER:                 -10.982
REMARK INTRA:                  -0.790
REMARK UNBOUND:                -0.630
REMARK  Name = 
REMARK  5 active torsions:
REMARK  status: ('A' for Active; 'I' for Inactive)
REMARK    1  A    between atoms: C_2  and  C_4
REMARK    2  A    between atoms: C_7  and  N_8
REMARK    3  A    between atoms: N_8  and  C_9
REMARK    4  A    between atoms: C_9  and  C_10
REMARK    5  A    between atoms: C_14  and  C_15
REMARK                            x       y       z     vdW  Elec       q    Type
REMARK                         _______ _______ _______ _____ _____    ______ ____
ROOT
ATOM      1  C   UNL     1      43.847   5.247  10.988  0.00  0.00    +0.000 C 
ENDROOT
BRANCH   1   2
ATOM      2  C   UNL     1      44.972   5.173  11.984  0.00  0.00    +0.000 A 
ATOM      3  C   UNL     1      44.936   4.287  13.053  0.00  0.00    +0.000 A 
ATOM      4  N   UNL     1      45.900   4.203  13.994  0.00  0.00    +0.000 NA
ATOM      5  C   UNL     1      46.955   5.050  13.866  0.00  0.00    +0.000 A 
ATOM      6  C   UNL     1      47.124   5.971  12.831  0.00  0.00    +0.000 A 
ATOM      7  C   UNL     1      46.095   6.006  11.876  0.00  0.00    +0.000 A 
BRANCH   6   8
ATOM      8  C   UNL     1      48.295   6.860  12.776  0.00  0.00    +0.000 A 
ATOM      9  C   UNL     1      48.570   7.685  11.679  0.00  0.00    +0.000 A 
ATOM     10  C   UNL     1      49.682   8.527  11.712  0.00  0.00    +0.000 A 
ATOM     11  C   UNL     1      50.491   8.525  12.835  0.00  0.00    +0.000 A 
ATOM     12  F   UNL     1      51.561   9.323  12.900  0.00  0.00    +0.000 F 
ATOM     13  C   UNL     1      50.170   7.682  13.881  0.00  0.00    +0.000 A 
ATOM     14  N   UNL     1      49.098   6.851  13.873  0.00  0.00    +0.000 NA
ENDBRANCH   6   8
ENDBRANCH   1   2
BRANCH   1  15
ATOM     15  N   UNL     1      43.681   3.963  10.315  0.00  0.00    +0.000 N 
ATOM     16  H   UNL     1      42.745   3.840   9.935  0.00  0.00    +0.000 HD
BRANCH  15  20
ATOM     17  C   UNL     1      46.499   2.758   7.488  0.00  0.00    +0.000 A 
ATOM     18  C   UNL     1      45.988   1.794   8.342  0.00  0.00    +0.000 A 
ATOM     19  C   UNL     1      45.066   2.187   9.318  0.00  0.00    +0.000 A 
ATOM     20  C   UNL     1      44.681   3.524   9.437  0.00  0.00    +0.000 A 
ATOM     21  C   UNL     1      45.246   4.403   8.502  0.00  0.00    +0.000 A 
ATOM     22  N   UNL     1      46.156   4.072   7.548  0.00  0.00    +0.000 NA
BRANCH  17  24
ATOM     23  N   UNL     1      47.413   3.084   5.261  0.00  0.00    +0.000 N 
ATOM     24  C   UNL     1      47.465   2.354   6.416  0.00  0.00    +0.000 C 
ATOM     25  O   UNL     1      48.260   1.432   6.559  0.00  0.00    +0.000 OA
ATOM     26  H   UNL     1      48.055   2.871   4.511  0.00  0.00    +0.000 HD
ATOM     27  H   UNL     1      46.771   3.864   5.185  0.00  0.00    +0.000 HD
ENDBRANCH  17  24
ENDBRANCH  15  20
ENDBRANCH   1  15
TORSDOF 5
ENDMDL
MODEL 3
REMARK VINA RESULT:    -8.552      3.856      7.272
REMARK INTER + INTRA:         -11.682
REMARK INTER:                 -10.752
REMARK INTRA:                  -0.930
REMARK UNBOUND:                -0.630
REMARK  Name = 
REMARK  5 active torsions:
REMARK  status: ('A' for Active; 'I' for Inactive)
REMARK    1  A    between atoms: C_2  and  C_4
REMARK    2  A    between atoms: C_7  and  N_8
REMARK    3  A    between atoms: N_8  and  C_9
REMARK    4  A    between atoms: C_9  and  C_10
REMARK    5  A    between atoms: C_14  and  C_15
REMARK                            x       y       z     vdW  Elec       q    Type
REMARK                         _______ _______ _______ _____ _____    ______ ____
ROOT
ATOM      1  C   UNL     1      43.239   6.145  11.406  0.00  0.00    +0.000 C 
ENDROOT
BRANCH   1   2
ATOM      2  C   UNL     1      43.545   4.732  10.992  0.00  0.00    +0.000 A 
ATOM      3  C   UNL     1      43.026   3.645  11.683  0.00  0.00    +0.000 A 
ATOM      4  N   UNL     1      43.295   2.359  11.375  0.00  0.00    +0.000 NA
ATOM      5  C   UNL     1      44.130   2.143  10.325  0.00  0.00    +0.000 A 
ATOM      6  C   UNL     1      44.701   3.142   9.536  0.00  0.00    +0.000 A 
ATOM      7  C   UNL     1      44.377   4.460   9.895  0.00  0.00    +0.000 A 
BRANCH   6   8
ATOM      8  C   UNL     1      45.606   2.818   8.421  0.00  0.00    +0.000 A 
ATOM      9  C   UNL     1      45.940   3.741   7.422  0.00  0.00    +0.000 A 
ATOM     10  C   UNL     1      46.832   3.373   6.414  0.00  0.00    +0.000 A 
ATOM     11  C   UNL     1      47.366   2.097   6.427  0.00  0.00    +0.000 A 
ATOM     12  F   UNL     1      48.226   1.714   5.477  0.00  0.00    +0.000 F 
ATOM     13  C   UNL     1      46.991   1.231   7.434  0.00  0.00    +0.000 A 
ATOM     14  N   UNL     1      46.123   1.561   8.424  0.00  0.00    +0.000 NA
ENDBRANCH   6   8
ENDBRANCH   1   2
BRANCH   1  15
ATOM     15  N   UNL     1      43.843   6.434  12.703  0.00  0.00    +0.000 N 
ATOM     16  H   UNL     1      43.502   5.817  13.437  0.00  0.00    +0.000 HD
BRANCH  15  20
ATOM     17  C   UNL     1      47.960   7.092  12.635  0.00  0.00    +0.000 A 
ATOM     18  C   UNL     1      47.503   5.913  13.200  0.00  0.00    +0.000 A 
ATOM     19  C   UNL     1      46.124   5.690  13.261  0.00  0.00    +0.000 A 
ATOM     20  C   UNL     1      45.227   6.643  12.775  0.00  0.00    +0.000 A 
ATOM     21  C   UNL     1      45.806   7.785  12.204  0.00  0.00    +0.000 A 
ATOM     22  N   UNL     1      47.137   8.053  12.136  0.00  0.00    +0.000 NA
BRANCH  17  24
ATOM     23  N   UNL     1      50.124   7.326  13.715  0.00  0.00    +0.000 N 
ATOM     24  C   UNL     1      49.435   7.337  12.533  0.00  0.00    +0.000 C 
ATOM     25  O   UNL     1      49.998   7.532  11.462  0.00  0.00    +0.000 OA
ATOM     26  H   UNL     1      51.123   7.466  13.705  0.00  0.00    +0.000 HD
ATOM     27  H   UNL     1      49.637   7.128  14.580  0.00  0.00    +0.000 HD
ENDBRANCH  17  24
ENDBRANCH  15  20
ENDBRANCH   1  15
TORSDOF 5
ENDMDL
MODEL 4
REMARK VINA RESULT:    -8.089      4.352      7.588
REMARK INTER + INTRA:         -11.083
REMARK INTER:                 -10.291
REMARK INTRA:                  -0.792
REMARK UNBOUND:                -0.630
REMARK  Name = 
REMARK  5 active torsions:
REMARK  status: ('A' for Active; 'I' for Inactive)
REMARK    1  A    between atoms: C_2  and  C_4
REMARK    2  A    between atoms: C_7  and  N_8
REMARK    3  A    between atoms: N_8  and  C_9
REMARK    4  A    between atoms: C_9  and  C_10
REMARK    5  A    between atoms: C_14  and  C_15
REMARK                            x       y       z     vdW  Elec       q    Type
REMARK                         _______ _______ _______ _____ _____    ______ ____
ROOT
ATOM      1  C   UNL     1      43.481   6.296  11.456  0.00  0.00    +0.000 C 
ENDROOT
BRANCH   1   2
ATOM      2  C   UNL     1      43.690   4.873  11.016  0.00  0.00    +0.000 A 
ATOM      3  C   UNL     1      43.090   3.812  11.682  0.00  0.00    +0.000 A 
ATOM      4  N   UNL     1      43.270   2.517  11.350  0.00  0.00    +0.000 NA
ATOM      5  C   UNL     1      44.098   2.262  10.303  0.00  0.00    +0.000 A 
ATOM      6  C   UNL     1      44.746   3.233   9.539  0.00  0.00    +0.000 A 
ATOM      7  C   UNL     1      44.512   4.563   9.922  0.00  0.00    +0.000 A 
BRANCH   6   8
ATOM      8  C   UNL     1      45.638   2.869   8.426  0.00  0.00    +0.000 A 
ATOM      9  C   UNL     1      46.018   3.776   7.430  0.00  0.00    +0.000 A 
ATOM     10  C   UNL     1      46.894   3.367   6.424  0.00  0.00    +0.000 A 
ATOM     11  C   UNL     1      47.365   2.066   6.435  0.00  0.00    +0.000 A 
ATOM     12  F   UNL     1      48.208   1.644   5.487  0.00  0.00    +0.000 F 
ATOM     13  C   UNL     1      46.946   1.217   7.440  0.00  0.00    +0.000 A 
ATOM     14  N   UNL     1      46.093   1.588   8.428  0.00  0.00    +0.000 NA
ENDBRANCH   6   8
ENDBRANCH   1   2
BRANCH   1  15
ATOM     15  N   UNL     1      44.261   6.574  12.657  0.00  0.00    +0.000 N 
ATOM     16  H   UNL     1      44.295   5.780  13.293  0.00  0.00    +0.000 HD
BRANCH  15  20
ATOM     17  C   UNL     1      47.835   8.640  12.071  0.00  0.00    +0.000 A 
ATOM     18  C   UNL     1      47.849   7.266  11.903  0.00  0.00    +0.000 A 
ATOM     19  C   UNL     1      46.667   6.553  12.128  0.00  0.00    +0.000 A 
ATOM     20  C   UNL     1      45.502   7.212  12.526  0.00  0.00    +0.000 A 
ATOM     21  C   UNL     1      45.604   8.606  12.640  0.00  0.00    +0.000 A 
ATOM     22  N   UNL     1      46.732   9.340  12.448  0.00  0.00    +0.000 NA
BRANCH  17  24
ATOM     23  N   UNL     1      48.926  10.784  11.725  0.00  0.00    +0.000 N 
ATOM     24  C   UNL     1      49.083   9.427  11.808  0.00  0.00    +0.000 C 
ATOM     25  O   UNL     1      50.181   8.898  11.678  0.00  0.00    +0.000 OA
ATOM     26  H   UNL     1      49.736  11.367  11.569  0.00  0.00    +0.000 HD
ATOM     27  H   UNL     1      48.013  11.196  11.872  0.00  0.00    +0.000 HD
ENDBRANCH  17  24
ENDBRANCH  15  20
ENDBRANCH   1  15
TORSDOF 5
ENDMDL
MODEL 5
REMARK VINA RESULT:    -8.048      3.990      7.453
REMARK INTER + INTRA:         -11.030
REMARK INTER:                 -10.274
REMARK INTRA:                  -0.756
REMARK UNBOUND:                -0.630
REMARK  Name = 
REMARK  5 active torsions:
REMARK  status: ('A' for Active; 'I' for Inactive)
REMARK    1  A    between atoms: C_2  and  C_4
REMARK    2  A    between atoms: C_7  and  N_8
REMARK    3  A    between atoms: N_8  and  C_9
REMARK    4  A    between atoms: C_9  and  C_10
REMARK    5  A    between atoms: C_14  and  C_15
REMARK                            x       y       z     vdW  Elec       q    Type
REMARK                         _______ _______ _______ _____ _____    ______ ____
ROOT
ATOM      1  C   UNL     1      44.560   6.139  12.564  0.00  0.00    +0.000 C 
ENDROOT
BRANCH   1   2
ATOM      2  C   UNL     1      44.314   4.866  11.803  0.00  0.00    +0.000 A 
ATOM      3  C   UNL     1      43.377   3.935  12.230  0.00  0.00    +0.000 A 
ATOM      4  N   UNL     1      43.141   2.762  11.604  0.00  0.00    +0.000 NA
ATOM      5  C   UNL     1      43.883   2.500  10.496  0.00  0.00    +0.000 A 
ATOM      6  C   UNL     1      44.841   3.356   9.952  0.00  0.00    +0.000 A 
ATOM      7  C   UNL     1      45.035   4.565  10.637  0.00  0.00    +0.000 A 
BRANCH   6   8
ATOM      8  C   UNL     1      45.610   2.986   8.752  0.00  0.00    +0.000 A 
ATOM      9  C   UNL     1      45.953   3.909   7.756  0.00  0.00    +0.000 A 
ATOM     10  C   UNL     1      46.713   3.492   6.663  0.00  0.00    +0.000 A 
ATOM     11  C   UNL     1      47.109   2.169   6.589  0.00  0.00    +0.000 A 
ATOM     12  F   UNL     1      47.841   1.738   5.556  0.00  0.00    +0.000 F 
ATOM     13  C   UNL     1      46.731   1.306   7.599  0.00  0.00    +0.000 A 
ATOM     14  N   UNL     1      45.990   1.684   8.670  0.00  0.00    +0.000 NA
ENDBRANCH   6   8
ENDBRANCH   1   2
BRANCH   1  15
ATOM     15  N   UNL     1      45.668   5.966  13.497  0.00  0.00    +0.000 N 
ATOM     16  H   UNL     1      45.704   5.027  13.889  0.00  0.00    +0.000 HD
BRANCH  15  20
ATOM     17  C   UNL     1      49.434   7.559  12.684  0.00  0.00    +0.000 A 
ATOM     18  C   UNL     1      48.440   7.736  11.736  0.00  0.00    +0.000 A 
ATOM     19  C   UNL     1      47.180   7.180  11.978  0.00  0.00    +0.000 A 
ATOM     20  C   UNL     1      46.934   6.450  13.143  0.00  0.00    +0.000 A 
ATOM     21  C   UNL     1      48.010   6.359  14.038  0.00  0.00    +0.000 A 
ATOM     22  N   UNL     1      49.255   6.867  13.841  0.00  0.00    +0.000 NA
BRANCH  17  24
ATOM     23  N   UNL     1      51.514   7.642  11.430  0.00  0.00    +0.000 N 
ATOM     24  C   UNL     1      50.784   8.171  12.459  0.00  0.00    +0.000 C 
ATOM     25  O   UNL     1      51.213   9.091  13.145  0.00  0.00    +0.000 OA
ATOM     26  H   UNL     1      52.422   8.028  11.218  0.00  0.00    +0.000 HD
ATOM     27  H   UNL     1      51.119   6.906  10.857  0.00  0.00    +0.000 HD
ENDBRANCH  17  24
ENDBRANCH  15  20
ENDBRANCH   1  15
TORSDOF 5
ENDMDL
MODEL 6
REMARK VINA RESULT:    -8.000      3.746      7.646
REMARK INTER + INTRA:         -10.968
REMARK INTER:                 -10.547
REMARK INTRA:                  -0.421
REMARK UNBOUND:                -0.630
REMARK  Name = 
REMARK  5 active torsions:
REMARK  status: ('A' for Active; 'I' for Inactive)
REMARK    1  A    between atoms: C_2  and  C_4
REMARK    2  A    between atoms: C_7  and  N_8
REMARK    3  A    between atoms: N_8  and  C_9
REMARK    4  A    between atoms: C_9  and  C_10
REMARK    5  A    between atoms: C_14  and  C_15
REMARK                            x       y       z     vdW  Elec       q    Type
REMARK                         _______ _______ _______ _____ _____    ______ ____
ROOT
ATOM      1  C   UNL     1      45.747   7.265  12.279  0.00  0.00    +0.000 C 
ENDROOT
BRANCH   1   2
ATOM      2  C   UNL     1      45.007   6.282  11.414  0.00  0.00    +0.000 A 
ATOM      3  C   UNL     1      43.635   6.101  11.531  0.00  0.00    +0.000 A 
ATOM      4  N   UNL     1      42.929   5.209  10.805  0.00  0.00    +0.000 NA
ATOM      5  C   UNL     1      43.626   4.453   9.918  0.00  0.00    +0.000 A 
ATOM      6  C   UNL     1      44.999   4.548   9.688  0.00  0.00    +0.000 A 
ATOM      7  C   UNL     1      45.680   5.500  10.463  0.00  0.00    +0.000 A 
BRANCH   6   8
ATOM      8  C   UNL     1      45.679   3.678   8.713  0.00  0.00    +0.000 A 
ATOM      9  C   UNL     1      45.736   2.286   8.849  0.00  0.00    +0.000 A 
ATOM     10  C   UNL     1      46.370   1.524   7.866  0.00  0.00    +0.000 A 
ATOM     11  C   UNL     1      46.929   2.168   6.777  0.00  0.00    +0.000 A 
ATOM     12  F   UNL     1      47.540   1.467   5.817  0.00  0.00    +0.000 F 
ATOM     13  C   UNL     1      46.846   3.545   6.706  0.00  0.00    +0.000 A 
ATOM     14  N   UNL     1      46.240   4.310   7.648  0.00  0.00    +0.000 NA
ENDBRANCH   6   8
ENDBRANCH   1   2
BRANCH   1  15
ATOM     15  N   UNL     1      47.098   6.785  12.548  0.00  0.00    +0.000 N 
ATOM     16  H   UNL     1      47.800   7.513  12.432  0.00  0.00    +0.000 HD
BRANCH  15  20
ATOM     17  C   UNL     1      47.488   4.453  15.982  0.00  0.00    +0.000 A 
ATOM     18  C   UNL     1      48.257   5.601  15.891  0.00  0.00    +0.000 A 
ATOM     19  C   UNL     1      48.163   6.378  14.732  0.00  0.00    +0.000 A 
ATOM     20  C   UNL     1      47.323   5.996  13.684  0.00  0.00    +0.000 A 
ATOM     21  C   UNL     1      46.577   4.829  13.901  0.00  0.00    +0.000 A 
ATOM     22  N   UNL     1      46.646   4.034  15.001  0.00  0.00    +0.000 NA
BRANCH  17  24
ATOM     23  N   UNL     1      48.669   3.788  18.000  0.00  0.00    +0.000 N 
ATOM     24  C   UNL     1      47.552   3.621  17.228  0.00  0.00    +0.000 C 
ATOM     25  O   UNL     1      46.661   2.842  17.545  0.00  0.00    +0.000 OA
ATOM     26  H   UNL     1      48.757   3.269  18.861  0.00  0.00    +0.000 HD
ATOM     27  H   UNL     1      49.372   4.466  17.730  0.00  0.00    +0.000 HD
ENDBRANCH  17  24
ENDBRANCH  15  20
ENDBRANCH   1  15
TORSDOF 5
ENDMDL
MODEL 7
REMARK VINA RESULT:    -7.627      2.293      2.897
REMARK INTER + INTRA:         -10.486
REMARK INTER:                 -10.057
REMARK INTRA:                  -0.429
REMARK UNBOUND:                -0.630
REMARK  Name = 
REMARK  5 active torsions:
REMARK  status: ('A' for Active; 'I' for Inactive)
REMARK    1  A    between atoms: C_2  and  C_4
REMARK    2  A    between atoms: C_7  and  N_8
REMARK    3  A    between atoms: N_8  and  C_9
REMARK    4  A    between atoms: C_9  and  C_10
REMARK    5  A    between atoms: C_14  and  C_15
REMARK                            x       y       z     vdW  Elec       q    Type
REMARK                         _______ _______ _______ _____ _____    ______ ____
ROOT
ATOM      1  C   UNL     1      44.596   5.662  11.129  0.00  0.00    +0.000 C 
ENDROOT
BRANCH   1   2
ATOM      2  C   UNL     1      45.526   5.098  12.166  0.00  0.00    +0.000 A 
ATOM      3  C   UNL     1      45.452   3.768  12.560  0.00  0.00    +0.000 A 
ATOM      4  N   UNL     1      46.239   3.219  13.510  0.00  0.00    +0.000 NA
ATOM      5  C   UNL     1      47.144   4.040  14.104  0.00  0.00    +0.000 A 
ATOM      6  C   UNL     1      47.335   5.385  13.789  0.00  0.00    +0.000 A 
ATOM      7  C   UNL     1      46.497   5.899  12.786  0.00  0.00    +0.000 A 
BRANCH   6   8
ATOM      8  C   UNL     1      48.334   6.207  14.492  0.00  0.00    +0.000 A 
ATOM      9  C   UNL     1      48.988   7.287  13.889  0.00  0.00    +0.000 A 
ATOM     10  C   UNL     1      49.899   8.041  14.629  0.00  0.00    +0.000 A 
ATOM     11  C   UNL     1      50.135   7.699  15.949  0.00  0.00    +0.000 A 
ATOM     12  F   UNL     1      50.999   8.403  16.687  0.00  0.00    +0.000 F 
ATOM     13  C   UNL     1      49.463   6.617  16.484  0.00  0.00    +0.000 A 
ATOM     14  N   UNL     1      48.576   5.865  15.786  0.00  0.00    +0.000 NA
ENDBRANCH   6   8
ENDBRANCH   1   2
BRANCH   1  15
ATOM     15  N   UNL     1      44.129   4.605  10.238  0.00  0.00    +0.000 N 
ATOM     16  H   UNL     1      43.244   4.834   9.790  0.00  0.00    +0.000 HD
BRANCH  15  20
ATOM     17  C   UNL     1      46.723   2.986   7.403  0.00  0.00    +0.000 A 
ATOM     18  C   UNL     1      45.971   2.108   8.166  0.00  0.00    +0.000 A 
ATOM     19  C   UNL     1      45.120   2.632   9.144  0.00  0.00    +0.000 A 
ATOM     20  C   UNL     1      45.041   4.010   9.356  0.00  0.00    +0.000 A 
ATOM     21  C   UNL     1      45.831   4.800   8.507  0.00  0.00    +0.000 A 
ATOM     22  N   UNL     1      46.683   4.337   7.555  0.00  0.00    +0.000 NA
BRANCH  17  24
ATOM     23  N   UNL     1      47.677   3.182   5.177  0.00  0.00    +0.000 N 
ATOM     24  C   UNL     1      47.619   2.447   6.329  0.00  0.00    +0.000 C 
ATOM     25  O   UNL     1      48.267   1.416   6.468  0.00  0.00    +0.000 OA
ATOM     26  H   UNL     1      48.281   2.878   4.427  0.00  0.00    +0.000 HD
ATOM     27  H   UNL     1      47.159   4.049   5.105  0.00  0.00    +0.000 HD
ENDBRANCH  17  24
ENDBRANCH  15  20
ENDBRANCH   1  15
TORSDOF 5
ENDMDL
MODEL 8
REMARK VINA RESULT:    -7.499      2.927      3.308
REMARK INTER + INTRA:         -10.321
REMARK INTER:                  -9.572
REMARK INTRA:                  -0.749
REMARK UNBOUND:                -0.630
REMARK  Name = 
REMARK  5 active torsions:
REMARK  status: ('A' for Active; 'I' for Inactive)
REMARK    1  A    between atoms: C_2  and  C_4
REMARK    2  A    between atoms: C_7  and  N_8
REMARK    3  A    between atoms: N_8  and  C_9
REMARK    4  A    between atoms: C_9  and  C_10
REMARK    5  A    between atoms: C_14  and  C_15
REMARK                            x       y       z     vdW  Elec       q    Type
REMARK                         _______ _______ _______ _____ _____    ______ ____
ROOT
ATOM      1  C   UNL     1      44.318   4.301  11.830  0.00  0.00    +0.000 C 
ENDROOT
BRANCH   1   2
ATOM      2  C   UNL     1      44.854   5.704  11.908  0.00  0.00    +0.000 A 
ATOM      3  C   UNL     1      44.095   6.794  11.502  0.00  0.00    +0.000 A 
ATOM      4  N   UNL     1      44.539   8.068  11.519  0.00  0.00    +0.000 NA
ATOM      5  C   UNL     1      45.809   8.269  11.960  0.00  0.00    +0.000 A 
ATOM      6  C   UNL     1      46.667   7.267  12.414  0.00  0.00    +0.000 A 
ATOM      7  C   UNL     1      46.148   5.963  12.384  0.00  0.00    +0.000 A 
BRANCH   6   8
ATOM      8  C   UNL     1      48.035   7.571  12.864  0.00  0.00    +0.000 A 
ATOM      9  C   UNL     1      48.378   7.704  14.214  0.00  0.00    +0.000 A 
ATOM     10  C   UNL     1      49.703   7.960  14.567  0.00  0.00    +0.000 A 
ATOM     11  C   UNL     1      50.651   8.078  13.566  0.00  0.00    +0.000 A 
ATOM     12  F   UNL     1      51.931   8.320  13.870  0.00  0.00    +0.000 F 
ATOM     13  C   UNL     1      50.248   7.944  12.252  0.00  0.00    +0.000 A 
ATOM     14  N   UNL     1      48.967   7.699  11.882  0.00  0.00    +0.000 NA
ENDBRANCH   6   8
ENDBRANCH   1   2
BRANCH   1  15
ATOM     15  N   UNL     1      43.765   4.044  10.504  0.00  0.00    +0.000 N 
ATOM     16  H   UNL     1      43.182   4.808  10.170  0.00  0.00    +0.000 HD
BRANCH  15  20
ATOM     17  C   UNL     1      46.431   2.413   7.744  0.00  0.00    +0.000 A 
ATOM     18  C   UNL     1      46.184   3.774   7.676  0.00  0.00    +0.000 A 
ATOM     19  C   UNL     1      45.267   4.333   8.573  0.00  0.00    +0.000 A 
ATOM     20  C   UNL     1      44.606   3.532   9.507  0.00  0.00    +0.000 A 
ATOM     21  C   UNL     1      44.956   2.174   9.496  0.00  0.00    +0.000 A 
ATOM     22  N   UNL     1      45.827   1.584   8.636  0.00  0.00    +0.000 NA
BRANCH  17  24
ATOM     23  N   UNL     1      48.491   2.594   6.467  0.00  0.00    +0.000 N 
ATOM     24  C   UNL     1      47.431   1.800   6.811  0.00  0.00    +0.000 C 
ATOM     25  O   UNL     1      47.318   0.657   6.383  0.00  0.00    +0.000 OA
ATOM     26  H   UNL     1      49.206   2.226   5.857  0.00  0.00    +0.000 HD
ATOM     27  H   UNL     1      48.576   3.521   6.864  0.00  0.00    +0.000 HD
ENDBRANCH  17  24
ENDBRANCH  15  20
ENDBRANCH   1  15
TORSDOF 5
ENDMDL
MODEL 9
REMARK VINA RESULT:    -6.782      4.126      8.317
REMARK INTER + INTRA:          -9.395
REMARK INTER:                  -8.906
REMARK INTRA:                  -0.489
REMARK UNBOUND:                -0.630
REMARK  Name = 
REMARK  5 active torsions:
REMARK  status: ('A' for Active; 'I' for Inactive)
REMARK    1  A    between atoms: C_2  and  C_4
REMARK    2  A    between atoms: C_7  and  N_8
REMARK    3  A    between atoms: N_8  and  C_9
REMARK    4  A    between atoms: C_9  and  C_10
REMARK    5  A    between atoms: C_14  and  C_15
REMARK                            x       y       z     vdW  Elec       q    Type
REMARK                         _______ _______ _______ _____ _____    ______ ____
ROOT
ATOM      1  C   UNL     1      45.768   5.753  13.660  0.00  0.00    +0.000 C 
ENDROOT
BRANCH   1   2
ATOM      2  C   UNL     1      44.978   5.307  12.460  0.00  0.00    +0.000 A 
ATOM      3  C   UNL     1      43.604   5.490  12.387  0.00  0.00    +0.000 A 
ATOM      4  N   UNL     1      42.843   5.080  11.351  0.00  0.00    +0.000 NA
ATOM      5  C   UNL     1      43.485   4.447  10.334  0.00  0.00    +0.000 A 
ATOM      6  C   UNL     1      44.859   4.217  10.273  0.00  0.00    +0.000 A 
ATOM      7  C   UNL     1      45.601   4.677  11.372  0.00  0.00    +0.000 A 
BRANCH   6   8
ATOM      8  C   UNL     1      45.472   3.512   9.135  0.00  0.00    +0.000 A 
ATOM      9  C   UNL     1      46.025   4.181   8.036  0.00  0.00    +0.000 A 
ATOM     10  C   UNL     1      46.619   3.445   7.010  0.00  0.00    +0.000 A 
ATOM     11  C   UNL     1      46.646   2.065   7.105  0.00  0.00    +0.000 A 
ATOM     12  F   UNL     1      47.211   1.331   6.140  0.00  0.00    +0.000 F 
ATOM     13  C   UNL     1      46.077   1.465   8.210  0.00  0.00    +0.000 A 
ATOM     14  N   UNL     1      45.489   2.155   9.220  0.00  0.00    +0.000 NA
ENDBRANCH   6   8
ENDBRANCH   1   2
BRANCH   1  15
ATOM     15  N   UNL     1      46.866   4.827  13.915  0.00  0.00    +0.000 N 
ATOM     16  H   UNL     1      47.606   4.898  13.220  0.00  0.00    +0.000 HD
BRANCH  15  20
ATOM     17  C   UNL     1      48.607   4.512  17.691  0.00  0.00    +0.000 A 
ATOM     18  C   UNL     1      47.802   3.470  17.262  0.00  0.00    +0.000 A 
ATOM     19  C   UNL     1      47.183   3.573  16.012  0.00  0.00    +0.000 A 
ATOM     20  C   UNL     1      47.363   4.709  15.220  0.00  0.00    +0.000 A 
ATOM     21  C   UNL     1      48.218   5.687  15.749  0.00  0.00    +0.000 A 
ATOM     22  N   UNL     1      48.828   5.639  16.963  0.00  0.00    +0.000 NA
BRANCH  17  24
ATOM     23  N   UNL     1      50.608   4.004  18.972  0.00  0.00    +0.000 N 
ATOM     24  C   UNL     1      49.302   4.409  19.015  0.00  0.00    +0.000 C 
ATOM     25  O   UNL     1      48.745   4.673  20.074  0.00  0.00    +0.000 OA
ATOM     26  H   UNL     1      51.133   3.936  19.832  0.00  0.00    +0.000 HD
ATOM     27  H   UNL     1      51.052   3.827  18.079  0.00  0.00    +0.000 HD
ENDBRANCH  17  24
ENDBRANCH  15  20
ENDBRANCH   1  15
TORSDOF 5
ENDMDL
