MODEL 1
REMARK VINA RESULT:    -7.822      0.000      0.000
REMARK INTER + INTRA:         -13.585
REMARK INTER:                 -12.167
REMARK INTRA:                  -1.419
REMARK UNBOUND:                -1.419
REMARK  Name = 
REMARK  11 active torsions:
REMARK  status: ('A' for Active; 'I' for Inactive)
REMARK    1  A    between atoms: C_1  and  C_2
REMARK    2  A    between atoms: C_2  and  N_3
REMARK    3  A    between atoms: C_2  and  C_14
REMARK    4  A    between atoms: N_3  and  C_4
REMARK    5  A    between atoms: C_4  and  C_5
REMARK    6  A    between atoms: N_8  and  C_9
REMARK    7  A    between atoms: C_9  and  C_10
REMARK    8  A    between atoms: C_10  and  N_11
REMARK    9  A    between atoms: C_17  and  C_18
REMARK   10  A    between atoms: C_18  and  N_19
REMARK   11  A    between atoms: C_20  and  C_22
REMARK                            x       y       z     vdW  Elec       q    Type
REMARK                         _______ _______ _______ _____ _____    ______ ____
ROOT
ATOM      1  C   UNL     1      47.150   5.132  13.907  0.00  0.00    +0.000 A 
ATOM      2  C   UNL     1      47.933   6.214  14.318  0.00  0.00    +0.000 A 
ATOM      3  C   UNL     1      48.350   6.296  15.649  0.00  0.00    +0.000 A 
ATOM      4  C   UNL     1      47.971   5.308  16.557  0.00  0.00    +0.000 A 
ATOM      5  C   UNL     1      47.200   4.264  16.066  0.00  0.00    +0.000 A 
ATOM      6  N   UNL     1      46.788   4.157  14.780  0.00  0.00    +0.000 NA
ENDROOT
BRANCH   1   8
ATOM      7  C   UNL     1      46.595   6.442  11.778  0.00  0.00    +0.000 C 
ATOM      8  C   UNL     1      46.544   5.085  12.498  0.00  0.00    +0.000 C 
BRANCH   8   9
ATOM      9  N   UNL     1      45.194   4.469  12.397  0.00  0.00    +0.000 NA
ATOM     10  H   UNL     1      44.864   4.270  13.342  0.00  0.00    +0.000 HD
BRANCH   9  11
ATOM     11  C   UNL     1      45.180   3.226  11.626  0.00  0.00    +0.000 C 
BRANCH  11  12
ATOM     12  C   UNL     1      44.169   3.273  10.460  0.00  0.00    +0.000 C 
ATOM     13  C   UNL     1      44.336   2.020   9.587  0.00  0.00    +0.000 C 
ATOM     14  C   UNL     1      45.614   2.062   8.749  0.00  0.00    +0.000 C 
ATOM     15  N   UNL     1      45.679   3.274   7.920  0.00  0.00    +0.000 NA
ATOM     16  C   UNL     1      45.606   4.488   8.753  0.00  0.00    +0.000 C 
ATOM     17  C   UNL     1      44.310   4.512   9.563  0.00  0.00    +0.000 C 
BRANCH  15  18
ATOM     18  C   UNL     1      46.901   3.300   7.089  0.00  0.00    +0.000 C 
BRANCH  18  19
ATOM     19  C   UNL     1      47.555   1.910   6.953  0.00  0.00    +0.000 C 
BRANCH  19  20
ATOM     20  N   UNL     1      48.474   1.828   5.814  0.00  0.00    +0.000 NA
ATOM     21  H   UNL     1      49.004   0.959   5.876  0.00  0.00    +0.000 HD
ATOM     22  H   UNL     1      49.154   2.581   5.896  0.00  0.00    +0.000 HD
ENDBRANCH  19  20
ENDBRANCH  18  19
ENDBRANCH  15  18
ENDBRANCH  11  12
ENDBRANCH   9  11
ENDBRANCH   8   9
ENDBRANCH   1   8
BRANCH   4  23
ATOM     23  C   UNL     1      48.344   5.372  18.006  0.00  0.00    +0.000 C 
BRANCH  23  24
ATOM     24  N   UNL     1      49.467   4.521  18.327  0.00  0.00    +0.000 N 
ATOM     25  C   UNL     1      50.742   5.039  18.319  0.00  0.00    +0.000 C 
ATOM     26  O   UNL     1      50.950   6.231  18.100  0.00  0.00    +0.000 OA
ATOM     27  H   UNL     1      49.339   3.513  18.297  0.00  0.00    +0.000 HD
BRANCH  25  28
ATOM     28  C   UNL     1      51.844   4.124  18.639  0.00  0.00    +0.000 A 
ATOM     29  C   UNL     1      52.882   4.565  19.449  0.00  0.00    +0.000 A 
ATOM     30  S   UNL     1      54.074   3.382  19.740  0.00  0.00    +0.000 S 
ATOM     31  C   UNL     1      53.293   2.268  18.712  0.00  0.00    +0.000 A 
ATOM     32  N   UNL     1      53.847   1.055  18.450  0.00  0.00    +0.000 NA
ATOM     33  C   UNL     1      53.192   0.350  17.586  0.00  0.00    +0.000 A 
ATOM     34  N   UNL     1      52.015   0.733  17.001  0.00  0.00    +0.000 N 
ATOM     35  C   UNL     1      51.370   1.912  17.310  0.00  0.00    +0.000 A 
ATOM     36  O   UNL     1      50.257   2.172  16.872  0.00  0.00    +0.000 OA
ATOM     37  C   UNL     1      52.107   2.774  18.212  0.00  0.00    +0.000 A 
ATOM     38  H   UNL     1      51.542   0.122  16.352  0.00  0.00    +0.000 HD
ENDBRANCH  25  28
ENDBRANCH  23  24
ENDBRANCH   4  23
TORSDOF 10
ENDMDL
MODEL 2
REMARK VINA RESULT:    -7.171      2.962      3.425
REMARK INTER + INTRA:         -12.571
REMARK INTER:                 -11.409
REMARK INTRA:                  -1.163
REMARK UNBOUND:                -1.419
REMARK  Name = 
REMARK  11 active torsions:
REMARK  status: ('A' for Active; 'I' for Inactive)
REMARK    1  A    between atoms: C_1  and  C_2
REMARK    2  A    between atoms: C_2  and  N_3
REMARK    3  A    between atoms: C_2  and  C_14
REMARK    4  A    between atoms: N_3  and  C_4
REMARK    5  A    between atoms: C_4  and  C_5
REMARK    6  A    between atoms: N_8  and  C_9
REMARK    7  A    between atoms: C_9  and  C_10
REMARK    8  A    between atoms: C_10  and  N_11
REMARK    9  A    between atoms: C_17  and  C_18
REMARK   10  A    between atoms: C_18  and  N_19
REMARK   11  A    between atoms: C_20  and  C_22
REMARK                            x       y       z     vdW  Elec       q    Type
REMARK                         _______ _______ _______ _____ _____    ______ ____
ROOT
ATOM      1  C   UNL     1      45.484   5.681  12.801  0.00  0.00    +0.000 A 
ATOM      2  C   UNL     1      45.486   7.063  12.601  0.00  0.00    +0.000 A 
ATOM      3  C   UNL     1      46.553   7.827  13.080  0.00  0.00    +0.000 A 
ATOM      4  C   UNL     1      47.598   7.207  13.764  0.00  0.00    +0.000 A 
ATOM      5  C   UNL     1      47.523   5.830  13.914  0.00  0.00    +0.000 A 
ATOM      6  N   UNL     1      46.504   5.065  13.454  0.00  0.00    +0.000 NA
ENDROOT
BRANCH   1   8
ATOM      7  C   UNL     1      43.004   5.208  13.229  0.00  0.00    +0.000 C 
ATOM      8  C   UNL     1      44.262   4.829  12.431  0.00  0.00    +0.000 C 
BRANCH   8   9
ATOM      9  N   UNL     1      44.478   3.358  12.427  0.00  0.00    +0.000 NA
ATOM     10  H   UNL     1      45.039   3.117  13.244  0.00  0.00    +0.000 HD
BRANCH   9  11
ATOM     11  C   UNL     1      45.165   2.876  11.229  0.00  0.00    +0.000 C 
BRANCH  11  12
ATOM     12  C   UNL     1      44.243   2.867   9.990  0.00  0.00    +0.000 C 
ATOM     13  C   UNL     1      44.648   1.711   9.061  0.00  0.00    +0.000 C 
ATOM     14  C   UNL     1      45.963   1.985   8.333  0.00  0.00    +0.000 C 
ATOM     15  N   UNL     1      45.917   3.249   7.585  0.00  0.00    +0.000 NA
ATOM     16  C   UNL     1      45.614   4.381   8.480  0.00  0.00    +0.000 C 
ATOM     17  C   UNL     1      44.273   4.172   9.183  0.00  0.00    +0.000 C 
BRANCH  15  18
ATOM     18  C   UNL     1      47.179   3.499   6.858  0.00  0.00    +0.000 C 
BRANCH  18  19
ATOM     19  C   UNL     1      48.097   2.260   6.822  0.00  0.00    +0.000 C 
BRANCH  19  20
ATOM     20  N   UNL     1      48.395   1.820   5.456  0.00  0.00    +0.000 NA
ATOM     21  H   UNL     1      49.399   1.905   5.290  0.00  0.00    +0.000 HD
ATOM     22  H   UNL     1      47.945   2.460   4.806  0.00  0.00    +0.000 HD
ENDBRANCH  19  20
ENDBRANCH  18  19
ENDBRANCH  15  18
ENDBRANCH  11  12
ENDBRANCH   9  11
ENDBRANCH   8   9
ENDBRANCH   1   8
BRANCH   4  23
ATOM     23  C   UNL     1      48.741   7.982  14.345  0.00  0.00    +0.000 C 
BRANCH  23  24
ATOM     24  N   UNL     1      48.885   7.772  15.768  0.00  0.00    +0.000 N 
ATOM     25  C   UNL     1      50.060   7.259  16.267  0.00  0.00    +0.000 C 
ATOM     26  O   UNL     1      51.022   7.025  15.536  0.00  0.00    +0.000 OA
ATOM     27  H   UNL     1      48.049   7.755  16.346  0.00  0.00    +0.000 HD
BRANCH  25  28
ATOM     28  C   UNL     1      50.145   7.054  17.719  0.00  0.00    +0.000 A 
ATOM     29  C   UNL     1      51.050   7.801  18.461  0.00  0.00    +0.000 A 
ATOM     30  S   UNL     1      51.014   7.459  20.130  0.00  0.00    +0.000 S 
ATOM     31  C   UNL     1      49.855   6.229  19.906  0.00  0.00    +0.000 A 
ATOM     32  N   UNL     1      49.440   5.464  20.949  0.00  0.00    +0.000 NA
ATOM     33  C   UNL     1      48.627   4.514  20.619  0.00  0.00    +0.000 A 
ATOM     34  N   UNL     1      48.163   4.294  19.350  0.00  0.00    +0.000 N 
ATOM     35  C   UNL     1      48.483   5.103  18.281  0.00  0.00    +0.000 A 
ATOM     36  O   UNL     1      47.955   4.964  17.186  0.00  0.00    +0.000 OA
ATOM     37  C   UNL     1      49.456   6.132  18.586  0.00  0.00    +0.000 A 
ATOM     38  H   UNL     1      47.509   3.547  19.166  0.00  0.00    +0.000 HD
ENDBRANCH  25  28
ENDBRANCH  23  24
ENDBRANCH   4  23
TORSDOF 10
ENDMDL
MODEL 3
REMARK VINA RESULT:    -7.052      4.147      9.186
REMARK INTER + INTRA:         -12.386
REMARK INTER:                 -10.618
REMARK INTRA:                  -1.768
REMARK UNBOUND:                -1.419
REMARK  Name = 
REMARK  11 active torsions:
REMARK  status: ('A' for Active; 'I' for Inactive)
REMARK    1  A    between atoms: C_1  and  C_2
REMARK    2  A    between atoms: C_2  and  N_3
REMARK    3  A    between atoms: C_2  and  C_14
REMARK    4  A    between atoms: N_3  and  C_4
REMARK    5  A    between atoms: C_4  and  C_5
REMARK    6  A    between atoms: N_8  and  C_9
REMARK    7  A    between atoms: C_9  and  C_10
REMARK    8  A    between atoms: C_10  and  N_11
REMARK    9  A    between atoms: C_17  and  C_18
REMARK   10  A    between atoms: C_18  and  N_19
REMARK   11  A    between atoms: C_20  and  C_22
REMARK                            x       y       z     vdW  Elec       q    Type
REMARK                         _______ _______ _______ _____ _____    ______ ____
ROOT
ATOM      1  C   UNL     1      49.422   7.884  15.968  0.00  0.00    +0.000 A 
ATOM      2  C   UNL     1      48.435   8.809  15.621  0.00  0.00    +0.000 A 
ATOM      3  C   UNL     1      47.846   8.747  14.357  0.00  0.00    +0.000 A 
ATOM      4  C   UNL     1      48.257   7.773  13.447  0.00  0.00    +0.000 A 
ATOM      5  C   UNL     1      49.237   6.888  13.873  0.00  0.00    +0.000 A 
ATOM      6  N   UNL     1      49.819   6.922  15.095  0.00  0.00    +0.000 NA
ENDROOT
BRANCH   1   8
ATOM      7  C   UNL     1      51.472   7.148  17.314  0.00  0.00    +0.000 C 
ATOM      8  C   UNL     1      50.202   8.014  17.284  0.00  0.00    +0.000 C 
BRANCH   8   9
ATOM      9  N   UNL     1      49.403   7.847  18.526  0.00  0.00    +0.000 NA
ATOM     10  H   UNL     1      49.537   8.677  19.104  0.00  0.00    +0.000 HD
BRANCH   9  11
ATOM     11  C   UNL     1      49.780   6.668  19.305  0.00  0.00    +0.000 C 
BRANCH  11  12
ATOM     12  C   UNL     1      48.552   5.922  19.868  0.00  0.00    +0.000 C 
ATOM     13  C   UNL     1      48.891   4.432  20.033  0.00  0.00    +0.000 C 
ATOM     14  C   UNL     1      48.973   3.703  18.693  0.00  0.00    +0.000 C 
ATOM     15  N   UNL     1      47.738   3.862  17.911  0.00  0.00    +0.000 NA
ATOM     16  C   UNL     1      47.447   5.287  17.670  0.00  0.00    +0.000 C 
ATOM     17  C   UNL     1      47.296   6.040  18.993  0.00  0.00    +0.000 C 
BRANCH  15  18
ATOM     18  C   UNL     1      47.809   3.133  16.627  0.00  0.00    +0.000 C 
BRANCH  18  19
ATOM     19  C   UNL     1      47.350   3.993  15.432  0.00  0.00    +0.000 C 
BRANCH  19  20
ATOM     20  N   UNL     1      47.275   3.228  14.184  0.00  0.00    +0.000 NA
ATOM     21  H   UNL     1      47.261   2.232  14.404  0.00  0.00    +0.000 HD
ATOM     22  H   UNL     1      48.130   3.390  13.656  0.00  0.00    +0.000 HD
ENDBRANCH  19  20
ENDBRANCH  18  19
ENDBRANCH  15  18
ENDBRANCH  11  12
ENDBRANCH   9  11
ENDBRANCH   8   9
ENDBRANCH   1   8
BRANCH   4  23
ATOM     23  C   UNL     1      47.698   7.692  12.059  0.00  0.00    +0.000 C 
BRANCH  23  24
ATOM     24  N   UNL     1      46.997   6.451  11.816  0.00  0.00    +0.000 N 
ATOM     25  C   UNL     1      45.621   6.431  11.824  0.00  0.00    +0.000 C 
ATOM     26  O   UNL     1      44.963   7.459  11.976  0.00  0.00    +0.000 OA
ATOM     27  H   UNL     1      47.509   5.577  11.903  0.00  0.00    +0.000 HD
BRANCH  25  28
ATOM     28  C   UNL     1      44.964   5.140  11.585  0.00  0.00    +0.000 A 
ATOM     29  C   UNL     1      44.297   4.512  12.628  0.00  0.00    +0.000 A 
ATOM     30  S   UNL     1      43.574   3.033  12.187  0.00  0.00    +0.000 S 
ATOM     31  C   UNL     1      44.210   3.133  10.609  0.00  0.00    +0.000 A 
ATOM     32  N   UNL     1      44.028   2.123   9.719  0.00  0.00    +0.000 NA
ATOM     33  C   UNL     1      44.639   2.294   8.592  0.00  0.00    +0.000 A 
ATOM     34  N   UNL     1      45.373   3.402   8.266  0.00  0.00    +0.000 N 
ATOM     35  C   UNL     1      45.504   4.491   9.102  0.00  0.00    +0.000 A 
ATOM     36  O   UNL     1      46.056   5.520   8.737  0.00  0.00    +0.000 OA
ATOM     37  C   UNL     1      44.906   4.311  10.408  0.00  0.00    +0.000 A 
ATOM     38  H   UNL     1      45.805   3.482   7.356  0.00  0.00    +0.000 HD
ENDBRANCH  25  28
ENDBRANCH  23  24
ENDBRANCH   4  23
TORSDOF 10
ENDMDL
MODEL 4
REMARK VINA RESULT:    -6.852      5.200      6.572
REMARK INTER + INTRA:         -12.075
REMARK INTER:                 -10.676
REMARK INTRA:                  -1.400
REMARK UNBOUND:                -1.419
REMARK  Name = 
REMARK  11 active torsions:
REMARK  status: ('A' for Active; 'I' for Inactive)
REMARK    1  A    between atoms: C_1  and  C_2
REMARK    2  A    between atoms: C_2  and  N_3
REMARK    3  A    between atoms: C_2  and  C_14
REMARK    4  A    between atoms: N_3  and  C_4
REMARK    5  A    between atoms: C_4  and  C_5
REMARK    6  A    between atoms: N_8  and  C_9
REMARK    7  A    between atoms: C_9  and  C_10
REMARK    8  A    between atoms: C_10  and  N_11
REMARK    9  A    between atoms: C_17  and  C_18
REMARK   10  A    between atoms: C_18  and  N_19
REMARK   11  A    between atoms: C_20  and  C_22
REMARK                            x       y       z     vdW  Elec       q    Type
REMARK                         _______ _______ _______ _____ _____    ______ ____
ROOT
ATOM      1  C   UNL     1      46.143   5.996  12.977  0.00  0.00    +0.000 A 
ATOM      2  C   UNL     1      45.244   6.942  12.479  0.00  0.00    +0.000 A 
ATOM      3  C   UNL     1      45.701   8.221  12.150  0.00  0.00    +0.000 A 
ATOM      4  C   UNL     1      47.045   8.546  12.334  0.00  0.00    +0.000 A 
ATOM      5  C   UNL     1      47.872   7.546  12.827  0.00  0.00    +0.000 A 
ATOM      6  N   UNL     1      47.456   6.298  13.146  0.00  0.00    +0.000 NA
ENDROOT
BRANCH   1   8
ATOM      7  C   UNL     1      46.805   3.665  13.803  0.00  0.00    +0.000 C 
ATOM      8  C   UNL     1      45.654   4.636  13.495  0.00  0.00    +0.000 C 
BRANCH   8   9
ATOM      9  N   UNL     1      44.594   3.981  12.685  0.00  0.00    +0.000 NA
ATOM     10  H   UNL     1      44.062   3.362  13.298  0.00  0.00    +0.000 HD
BRANCH   9  11
ATOM     11  C   UNL     1      45.119   3.196  11.568  0.00  0.00    +0.000 C 
BRANCH  11  12
ATOM     12  C   UNL     1      44.164   3.192  10.356  0.00  0.00    +0.000 C 
ATOM     13  C   UNL     1      44.433   1.946   9.497  0.00  0.00    +0.000 C 
ATOM     14  C   UNL     1      45.745   2.048   8.720  0.00  0.00    +0.000 C 
ATOM     15  N   UNL     1      45.791   3.260   7.890  0.00  0.00    +0.000 NA
ATOM     16  C   UNL     1      45.621   4.471   8.714  0.00  0.00    +0.000 C 
ATOM     17  C   UNL     1      44.288   4.433   9.461  0.00  0.00    +0.000 C 
BRANCH  15  18
ATOM     18  C   UNL     1      47.049   3.343   7.118  0.00  0.00    +0.000 C 
BRANCH  18  19
ATOM     19  C   UNL     1      47.718   1.968   6.925  0.00  0.00    +0.000 C 
BRANCH  19  20
ATOM     20  N   UNL     1      48.378   1.840   5.622  0.00  0.00    +0.000 NA
ATOM     21  H   UNL     1      49.175   1.209   5.714  0.00  0.00    +0.000 HD
ATOM     22  H   UNL     1      48.762   2.747   5.367  0.00  0.00    +0.000 HD
ENDBRANCH  19  20
ENDBRANCH  18  19
ENDBRANCH  15  18
ENDBRANCH  11  12
ENDBRANCH   9  11
ENDBRANCH   8   9
ENDBRANCH   1   8
BRANCH   4  23
ATOM     23  C   UNL     1      47.580   9.915  12.049  0.00  0.00    +0.000 C 
BRANCH  23  24
ATOM     24  N   UNL     1      48.898   9.883  11.458  0.00  0.00    +0.000 N 
ATOM     25  C   UNL     1      49.970  10.402  12.148  0.00  0.00    +0.000 C 
ATOM     26  O   UNL     1      49.847  10.844  13.290  0.00  0.00    +0.000 OA
ATOM     27  H   UNL     1      48.980   9.725  10.457  0.00  0.00    +0.000 HD
BRANCH  25  28
ATOM     28  C   UNL     1      51.282  10.355  11.492  0.00  0.00    +0.000 A 
ATOM     29  C   UNL     1      52.038  11.516  11.397  0.00  0.00    +0.000 A 
ATOM     30  S   UNL     1      53.541  11.293  10.625  0.00  0.00    +0.000 S 
ATOM     31  C   UNL     1      53.192   9.656  10.304  0.00  0.00    +0.000 A 
ATOM     32  N   UNL     1      54.050   8.889   9.582  0.00  0.00    +0.000 NA
ATOM     33  C   UNL     1      53.618   7.694   9.340  0.00  0.00    +0.000 A 
ATOM     34  N   UNL     1      52.428   7.192   9.794  0.00  0.00    +0.000 N 
ATOM     35  C   UNL     1      51.572   7.902  10.608  0.00  0.00    +0.000 A 
ATOM     36  O   UNL     1      50.580   7.387  11.106  0.00  0.00    +0.000 OA
ATOM     37  C   UNL     1      51.975   9.274  10.839  0.00  0.00    +0.000 A 
ATOM     38  H   UNL     1      52.162   6.239   9.588  0.00  0.00    +0.000 HD
ENDBRANCH  25  28
ENDBRANCH  23  24
ENDBRANCH   4  23
TORSDOF 10
ENDMDL
MODEL 5
REMARK VINA RESULT:    -6.778      1.549      2.137
REMARK INTER + INTRA:         -11.960
REMARK INTER:                 -10.618
REMARK INTRA:                  -1.342
REMARK UNBOUND:                -1.419
REMARK  Name = 
REMARK  11 active torsions:
REMARK  status: ('A' for Active; 'I' for Inactive)
REMARK    1  A    between atoms: C_1  and  C_2
REMARK    2  A    between atoms: C_2  and  N_3
REMARK    3  A    between atoms: C_2  and  C_14
REMARK    4  A    between atoms: N_3  and  C_4
REMARK    5  A    between atoms: C_4  and  C_5
REMARK    6  A    between atoms: N_8  and  C_9
REMARK    7  A    between atoms: C_9  and  C_10
REMARK    8  A    between atoms: C_10  and  N_11
REMARK    9  A    between atoms: C_17  and  C_18
REMARK   10  A    between atoms: C_18  and  N_19
REMARK   11  A    between atoms: C_20  and  C_22
REMARK                            x       y       z     vdW  Elec       q    Type
REMARK                         _______ _______ _______ _____ _____    ______ ____
ROOT
ATOM      1  C   UNL     1      48.072   6.028  14.424  0.00  0.00    +0.000 A 
ATOM      2  C   UNL     1      49.015   7.056  14.354  0.00  0.00    +0.000 A 
ATOM      3  C   UNL     1      49.850   7.301  15.447  0.00  0.00    +0.000 A 
ATOM      4  C   UNL     1      49.726   6.528  16.602  0.00  0.00    +0.000 A 
ATOM      5  C   UNL     1      48.770   5.523  16.586  0.00  0.00    +0.000 A 
ATOM      6  N   UNL     1      47.954   5.260  15.538  0.00  0.00    +0.000 NA
ENDROOT
BRANCH   1   8
ATOM      7  C   UNL     1      47.260   6.761  12.109  0.00  0.00    +0.000 C 
ATOM      8  C   UNL     1      47.035   5.828  13.310  0.00  0.00    +0.000 C 
BRANCH   8   9
ATOM      9  N   UNL     1      45.614   5.836  13.744  0.00  0.00    +0.000 NA
ATOM     10  H   UNL     1      45.391   4.915  14.123  0.00  0.00    +0.000 HD
BRANCH   9  11
ATOM     11  C   UNL     1      44.678   6.134  12.660  0.00  0.00    +0.000 C 
BRANCH  11  12
ATOM     12  C   UNL     1      43.531   5.104  12.577  0.00  0.00    +0.000 C 
ATOM     13  C   UNL     1      44.093   3.694  12.815  0.00  0.00    +0.000 C 
ATOM     14  C   UNL     1      44.909   3.185  11.626  0.00  0.00    +0.000 C 
ATOM     15  N   UNL     1      44.132   3.222  10.379  0.00  0.00    +0.000 NA
ATOM     16  C   UNL     1      43.658   4.588  10.092  0.00  0.00    +0.000 C 
ATOM     17  C   UNL     1      42.786   5.109  11.235  0.00  0.00    +0.000 C 
BRANCH  15  18
ATOM     18  C   UNL     1      44.913   2.704   9.236  0.00  0.00    +0.000 C 
BRANCH  18  19
ATOM     19  C   UNL     1      44.867   3.642   8.013  0.00  0.00    +0.000 C 
BRANCH  19  20
ATOM     20  N   UNL     1      46.193   4.138   7.634  0.00  0.00    +0.000 NA
ATOM     21  H   UNL     1      46.678   4.465   8.470  0.00  0.00    +0.000 HD
ATOM     22  H   UNL     1      46.072   4.955   7.039  0.00  0.00    +0.000 HD
ENDBRANCH  19  20
ENDBRANCH  18  19
ENDBRANCH  15  18
ENDBRANCH  11  12
ENDBRANCH   9  11
ENDBRANCH   8   9
ENDBRANCH   1   8
BRANCH   4  23
ATOM     23  C   UNL     1      50.557   6.780  17.822  0.00  0.00    +0.000 C 
BRANCH  23  24
ATOM     24  N   UNL     1      51.290   5.608  18.245  0.00  0.00    +0.000 N 
ATOM     25  C   UNL     1      52.522   5.338  17.697  0.00  0.00    +0.000 C 
ATOM     26  O   UNL     1      53.050   6.104  16.891  0.00  0.00    +0.000 OA
ATOM     27  H   UNL     1      50.789   4.870  18.733  0.00  0.00    +0.000 HD
BRANCH  25  28
ATOM     28  C   UNL     1      53.214   4.126  18.153  0.00  0.00    +0.000 A 
ATOM     29  C   UNL     1      54.462   4.238  18.750  0.00  0.00    +0.000 A 
ATOM     30  S   UNL     1      55.124   2.746  19.239  0.00  0.00    +0.000 S 
ATOM     31  C   UNL     1      53.806   1.887  18.582  0.00  0.00    +0.000 A 
ATOM     32  N   UNL     1      53.785   0.529  18.592  0.00  0.00    +0.000 NA
ATOM     33  C   UNL     1      52.769   0.010  17.982  0.00  0.00    +0.000 A 
ATOM     34  N   UNL     1      51.757   0.731  17.407  0.00  0.00    +0.000 N 
ATOM     35  C   UNL     1      51.690   2.108  17.458  0.00  0.00    +0.000 A 
ATOM     36  O   UNL     1      50.712   2.720  17.052  0.00  0.00    +0.000 OA
ATOM     37  C   UNL     1      52.848   2.736  18.060  0.00  0.00    +0.000 A 
ATOM     38  H   UNL     1      50.978   0.261  16.968  0.00  0.00    +0.000 HD
ENDBRANCH  25  28
ENDBRANCH  23  24
ENDBRANCH   4  23
TORSDOF 10
ENDMDL
MODEL 6
REMARK VINA RESULT:    -6.539      4.637      5.519
REMARK INTER + INTRA:         -11.589
REMARK INTER:                 -10.503
REMARK INTRA:                  -1.085
REMARK UNBOUND:                -1.419
REMARK  Name = 
REMARK  11 active torsions:
REMARK  status: ('A' for Active; 'I' for Inactive)
REMARK    1  A    between atoms: C_1  and  C_2
REMARK    2  A    between atoms: C_2  and  N_3
REMARK    3  A    between atoms: C_2  and  C_14
REMARK    4  A    between atoms: N_3  and  C_4
REMARK    5  A    between atoms: C_4  and  C_5
REMARK    6  A    between atoms: N_8  and  C_9
REMARK    7  A    between atoms: C_9  and  C_10
REMARK    8  A    between atoms: C_10  and  N_11
REMARK    9  A    between atoms: C_17  and  C_18
REMARK   10  A    between atoms: C_18  and  N_19
REMARK   11  A    between atoms: C_20  and  C_22
REMARK                            x       y       z     vdW  Elec       q    Type
REMARK                         _______ _______ _______ _____ _____    ______ ____
ROOT
ATOM      1  C   UNL     1      45.324   5.922  12.955  0.00  0.00    +0.000 A 
ATOM      2  C   UNL     1      46.552   5.557  13.511  0.00  0.00    +0.000 A 
ATOM      3  C   UNL     1      47.518   6.537  13.754  0.00  0.00    +0.000 A 
ATOM      4  C   UNL     1      47.253   7.867  13.427  0.00  0.00    +0.000 A 
ATOM      5  C   UNL     1      46.006   8.146  12.887  0.00  0.00    +0.000 A 
ATOM      6  N   UNL     1      45.051   7.217  12.648  0.00  0.00    +0.000 NA
ENDROOT
BRANCH   1   8
ATOM      7  C   UNL     1      42.955   5.000  13.262  0.00  0.00    +0.000 C 
ATOM      8  C   UNL     1      44.300   4.861  12.530  0.00  0.00    +0.000 C 
BRANCH   8   9
ATOM      9  N   UNL     1      44.784   3.455  12.547  0.00  0.00    +0.000 NA
ATOM     10  H   UNL     1      45.520   3.381  13.249  0.00  0.00    +0.000 HD
BRANCH   9  11
ATOM     11  C   UNL     1      45.316   3.009  11.260  0.00  0.00    +0.000 C 
BRANCH  11  12
ATOM     12  C   UNL     1      44.255   3.059  10.140  0.00  0.00    +0.000 C 
ATOM     13  C   UNL     1      44.438   1.850   9.208  0.00  0.00    +0.000 C 
ATOM     14  C   UNL     1      45.677   1.983   8.322  0.00  0.00    +0.000 C 
ATOM     15  N   UNL     1      45.656   3.229   7.542  0.00  0.00    +0.000 NA
ATOM     16  C   UNL     1      45.567   4.404   8.429  0.00  0.00    +0.000 C 
ATOM     17  C   UNL     1      44.306   4.337   9.291  0.00  0.00    +0.000 C 
BRANCH  15  18
ATOM     18  C   UNL     1      46.839   3.342   6.665  0.00  0.00    +0.000 C 
BRANCH  18  19
ATOM     19  C   UNL     1      47.871   2.224   6.915  0.00  0.00    +0.000 C 
BRANCH  19  20
ATOM     20  N   UNL     1      48.559   1.808   5.689  0.00  0.00    +0.000 NA
ATOM     21  H   UNL     1      49.184   2.557   5.388  0.00  0.00    +0.000 HD
ATOM     22  H   UNL     1      47.866   1.704   4.951  0.00  0.00    +0.000 HD
ENDBRANCH  19  20
ENDBRANCH  18  19
ENDBRANCH  15  18
ENDBRANCH  11  12
ENDBRANCH   9  11
ENDBRANCH   8   9
ENDBRANCH   1   8
BRANCH   4  23
ATOM     23  C   UNL     1      48.270   8.951  13.616  0.00  0.00    +0.000 C 
BRANCH  23  24
ATOM     24  N   UNL     1      49.615   8.504  13.336  0.00  0.00    +0.000 N 
ATOM     25  C   UNL     1      50.673   9.042  14.032  0.00  0.00    +0.000 C 
ATOM     26  O   UNL     1      50.500   9.859  14.935  0.00  0.00    +0.000 OA
ATOM     27  H   UNL     1      49.792   8.004  12.469  0.00  0.00    +0.000 HD
BRANCH  25  28
ATOM     28  C   UNL     1      52.018   8.560  13.696  0.00  0.00    +0.000 A 
ATOM     29  C   UNL     1      52.830   8.050  14.700  0.00  0.00    +0.000 A 
ATOM     30  S   UNL     1      54.351   7.517  14.147  0.00  0.00    +0.000 S 
ATOM     31  C   UNL     1      54.014   8.039  12.559  0.00  0.00    +0.000 A 
ATOM     32  N   UNL     1      54.954   7.950  11.582  0.00  0.00    +0.000 NA
ATOM     33  C   UNL     1      54.593   8.463  10.451  0.00  0.00    +0.000 A 
ATOM     34  N   UNL     1      53.364   9.015  10.205  0.00  0.00    +0.000 N 
ATOM     35  C   UNL     1      52.350   9.040  11.139  0.00  0.00    +0.000 A 
ATOM     36  O   UNL     1      51.222   9.419  10.854  0.00  0.00    +0.000 OA
ATOM     37  C   UNL     1      52.734   8.549  12.446  0.00  0.00    +0.000 A 
ATOM     38  H   UNL     1      53.139   9.377   9.290  0.00  0.00    +0.000 HD
ENDBRANCH  25  28
ENDBRANCH  23  24
ENDBRANCH   4  23
TORSDOF 10
ENDMDL
MODEL 7
REMARK VINA RESULT:    -6.437      1.859      3.000
REMARK INTER + INTRA:         -11.431
REMARK INTER:                 -10.931
REMARK INTRA:                  -0.499
REMARK UNBOUND:                -1.419
REMARK  Name = 
REMARK  11 active torsions:
REMARK  status: ('A' for Active; 'I' for Inactive)
REMARK    1  A    between atoms: C_1  and  C_2
REMARK    2  A    between atoms: C_2  and  N_3
REMARK    3  A    between atoms: C_2  and  C_14
REMARK    4  A    between atoms: N_3  and  C_4
REMARK    5  A    between atoms: C_4  and  C_5
REMARK    6  A    between atoms: N_8  and  C_9
REMARK    7  A    between atoms: C_9  and  C_10
REMARK    8  A    between atoms: C_10  and  N_11
REMARK    9  A    between atoms: C_17  and  C_18
REMARK   10  A    between atoms: C_18  and  N_19
REMARK   11  A    between atoms: C_20  and  C_22
REMARK                            x       y       z     vdW  Elec       q    Type
REMARK                         _______ _______ _______ _____ _____    ______ ____
ROOT
ATOM      1  C   UNL     1      47.690   5.620  14.659  0.00  0.00    +0.000 A 
ATOM      2  C   UNL     1      47.033   4.412  14.906  0.00  0.00    +0.000 A 
ATOM      3  C   UNL     1      47.324   3.694  16.068  0.00  0.00    +0.000 A 
ATOM      4  C   UNL     1      48.276   4.179  16.963  0.00  0.00    +0.000 A 
ATOM      5  C   UNL     1      48.878   5.389  16.648  0.00  0.00    +0.000 A 
ATOM      6  N   UNL     1      48.609   6.109  15.532  0.00  0.00    +0.000 NA
ENDROOT
BRANCH   1   8
ATOM      7  C   UNL     1      47.299   7.870  13.503  0.00  0.00    +0.000 C 
ATOM      8  C   UNL     1      47.515   6.359  13.325  0.00  0.00    +0.000 C 
BRANCH   8   9
ATOM      9  N   UNL     1      46.518   5.775  12.391  0.00  0.00    +0.000 NA
ATOM     10  H   UNL     1      46.915   5.790  11.451  0.00  0.00    +0.000 HD
BRANCH   9  11
ATOM     11  C   UNL     1      45.246   6.497  12.374  0.00  0.00    +0.000 C 
BRANCH  11  12
ATOM     12  C   UNL     1      44.038   5.559  12.583  0.00  0.00    +0.000 C 
ATOM     13  C   UNL     1      44.539   4.134  12.862  0.00  0.00    +0.000 C 
ATOM     14  C   UNL     1      45.104   3.461  11.611  0.00  0.00    +0.000 C 
ATOM     15  N   UNL     1      44.128   3.452  10.512  0.00  0.00    +0.000 NA
ATOM     16  C   UNL     1      43.702   4.822  10.175  0.00  0.00    +0.000 C 
ATOM     17  C   UNL     1      43.075   5.509  11.388  0.00  0.00    +0.000 C 
BRANCH  15  18
ATOM     18  C   UNL     1      44.665   2.776   9.313  0.00  0.00    +0.000 C 
BRANCH  18  19
ATOM     19  C   UNL     1      44.731   3.709   8.087  0.00  0.00    +0.000 C 
BRANCH  19  20
ATOM     20  N   UNL     1      46.107   4.000   7.673  0.00  0.00    +0.000 NA
ATOM     21  H   UNL     1      46.318   3.472   6.826  0.00  0.00    +0.000 HD
ATOM     22  H   UNL     1      46.738   3.649   8.390  0.00  0.00    +0.000 HD
ENDBRANCH  19  20
ENDBRANCH  18  19
ENDBRANCH  15  18
ENDBRANCH  11  12
ENDBRANCH   9  11
ENDBRANCH   8   9
ENDBRANCH   1   8
BRANCH   4  23
ATOM     23  C   UNL     1      48.667   3.426  18.198  0.00  0.00    +0.000 C 
BRANCH  23  24
ATOM     24  N   UNL     1      50.094   3.215  18.290  0.00  0.00    +0.000 N 
ATOM     25  C   UNL     1      50.708   2.316  17.447  0.00  0.00    +0.000 C 
ATOM     26  O   UNL     1      50.080   1.724  16.570  0.00  0.00    +0.000 OA
ATOM     27  H   UNL     1      50.579   3.523  19.128  0.00  0.00    +0.000 HD
BRANCH  25  28
ATOM     28  C   UNL     1      52.157   2.133  17.596  0.00  0.00    +0.000 A 
ATOM     29  C   UNL     1      52.673   0.848  17.700  0.00  0.00    +0.000 A 
ATOM     30  S   UNL     1      54.370   0.802  17.850  0.00  0.00    +0.000 S 
ATOM     31  C   UNL     1      54.465   2.504  17.880  0.00  0.00    +0.000 A 
ATOM     32  N   UNL     1      55.654   3.132  18.073  0.00  0.00    +0.000 NA
ATOM     33  C   UNL     1      55.565   4.420  18.161  0.00  0.00    +0.000 A 
ATOM     34  N   UNL     1      54.402   5.129  18.028  0.00  0.00    +0.000 N 
ATOM     35  C   UNL     1      53.190   4.539  17.736  0.00  0.00    +0.000 A 
ATOM     36  O   UNL     1      52.192   5.204  17.494  0.00  0.00    +0.000 OA
ATOM     37  C   UNL     1      53.225   3.092  17.709  0.00  0.00    +0.000 A 
ATOM     38  H   UNL     1      54.407   6.137  18.083  0.00  0.00    +0.000 HD
ENDBRANCH  25  28
ENDBRANCH  23  24
ENDBRANCH   4  23
TORSDOF 10
ENDMDL
MODEL 8
REMARK VINA RESULT:    -6.428      4.037      9.420
REMARK INTER + INTRA:         -11.417
REMARK INTER:                  -9.522
REMARK INTRA:                  -1.895
REMARK UNBOUND:                -1.419
REMARK  Name = 
REMARK  11 active torsions:
REMARK  status: ('A' for Active; 'I' for Inactive)
REMARK    1  A    between atoms: C_1  and  C_2
REMARK    2  A    between atoms: C_2  and  N_3
REMARK    3  A    between atoms: C_2  and  C_14
REMARK    4  A    between atoms: N_3  and  C_4
REMARK    5  A    between atoms: C_4  and  C_5
REMARK    6  A    between atoms: N_8  and  C_9
REMARK    7  A    between atoms: C_9  and  C_10
REMARK    8  A    between atoms: C_10  and  N_11
REMARK    9  A    between atoms: C_17  and  C_18
REMARK   10  A    between atoms: C_18  and  N_19
REMARK   11  A    between atoms: C_20  and  C_22
REMARK                            x       y       z     vdW  Elec       q    Type
REMARK                         _______ _______ _______ _____ _____    ______ ____
ROOT
ATOM      1  C   UNL     1      50.972   4.206  18.777  0.00  0.00    +0.000 A 
ATOM      2  C   UNL     1      50.900   3.250  17.762  0.00  0.00    +0.000 A 
ATOM      3  C   UNL     1      49.673   2.988  17.148  0.00  0.00    +0.000 A 
ATOM      4  C   UNL     1      48.530   3.671  17.562  0.00  0.00    +0.000 A 
ATOM      5  C   UNL     1      48.690   4.611  18.571  0.00  0.00    +0.000 A 
ATOM      6  N   UNL     1      49.869   4.888  19.177  0.00  0.00    +0.000 NA
ENDROOT
BRANCH   1   8
ATOM      7  C   UNL     1      52.006   4.914  21.010  0.00  0.00    +0.000 C 
ATOM      8  C   UNL     1      52.264   4.412  19.580  0.00  0.00    +0.000 C 
BRANCH   8   9
ATOM      9  N   UNL     1      53.321   5.211  18.908  0.00  0.00    +0.000 NA
ATOM     10  H   UNL     1      54.128   5.259  19.530  0.00  0.00    +0.000 HD
BRANCH   9  11
ATOM     11  C   UNL     1      52.900   6.573  18.582  0.00  0.00    +0.000 C 
BRANCH  11  12
ATOM     12  C   UNL     1      53.043   6.886  17.077  0.00  0.00    +0.000 C 
ATOM     13  C   UNL     1      53.339   8.382  16.891  0.00  0.00    +0.000 C 
ATOM     14  C   UNL     1      52.115   9.256  17.164  0.00  0.00    +0.000 C 
ATOM     15  N   UNL     1      50.968   8.856  16.336  0.00  0.00    +0.000 NA
ATOM     16  C   UNL     1      50.616   7.443  16.568  0.00  0.00    +0.000 C 
ATOM     17  C   UNL     1      51.801   6.531  16.247  0.00  0.00    +0.000 C 
BRANCH  15  18
ATOM     18  C   UNL     1      49.793   9.719  16.580  0.00  0.00    +0.000 C 
BRANCH  18  19
ATOM     19  C   UNL     1      48.487   8.914  16.727  0.00  0.00    +0.000 C 
BRANCH  19  20
ATOM     20  N   UNL     1      47.491   9.265  15.711  0.00  0.00    +0.000 NA
ATOM     21  H   UNL     1      47.746   8.823  14.827  0.00  0.00    +0.000 HD
ATOM     22  H   UNL     1      47.538  10.269  15.548  0.00  0.00    +0.000 HD
ENDBRANCH  19  20
ENDBRANCH  18  19
ENDBRANCH  15  18
ENDBRANCH  11  12
ENDBRANCH   9  11
ENDBRANCH   8   9
ENDBRANCH   1   8
BRANCH   4  23
ATOM     23  C   UNL     1      47.179   3.394  16.978  0.00  0.00    +0.000 C 
BRANCH  23  24
ATOM     24  N   UNL     1      46.775   4.395  16.017  0.00  0.00    +0.000 N 
ATOM     25  C   UNL     1      46.965   4.169  14.673  0.00  0.00    +0.000 C 
ATOM     26  O   UNL     1      47.420   3.104  14.258  0.00  0.00    +0.000 OA
ATOM     27  H   UNL     1      46.604   5.343  16.343  0.00  0.00    +0.000 HD
BRANCH  25  28
ATOM     28  C   UNL     1      46.548   5.227  13.745  0.00  0.00    +0.000 A 
ATOM     29  C   UNL     1      47.350   6.350  13.588  0.00  0.00    +0.000 A 
ATOM     30  S   UNL     1      46.739   7.476  12.465  0.00  0.00    +0.000 S 
ATOM     31  C   UNL     1      45.331   6.547  12.220  0.00  0.00    +0.000 A 
ATOM     32  N   UNL     1      44.331   6.995  11.417  0.00  0.00    +0.000 NA
ATOM     33  C   UNL     1      43.288   6.231  11.393  0.00  0.00    +0.000 A 
ATOM     34  N   UNL     1      43.180   5.043  12.065  0.00  0.00    +0.000 N 
ATOM     35  C   UNL     1      44.205   4.505  12.814  0.00  0.00    +0.000 A 
ATOM     36  O   UNL     1      44.131   3.383  13.296  0.00  0.00    +0.000 OA
ATOM     37  C   UNL     1      45.365   5.365  12.936  0.00  0.00    +0.000 A 
ATOM     38  H   UNL     1      42.344   4.482  11.983  0.00  0.00    +0.000 HD
ENDBRANCH  25  28
ENDBRANCH  23  24
ENDBRANCH   4  23
TORSDOF 10
ENDMDL
MODEL 9
REMARK VINA RESULT:    -6.098      2.584      3.837
REMARK INTER + INTRA:         -10.904
REMARK INTER:                 -10.005
REMARK INTRA:                  -0.898
REMARK UNBOUND:                -1.419
REMARK  Name = 
REMARK  11 active torsions:
REMARK  status: ('A' for Active; 'I' for Inactive)
REMARK    1  A    between atoms: C_1  and  C_2
REMARK    2  A    between atoms: C_2  and  N_3
REMARK    3  A    between atoms: C_2  and  C_14
REMARK    4  A    between atoms: N_3  and  C_4
REMARK    5  A    between atoms: C_4  and  C_5
REMARK    6  A    between atoms: N_8  and  C_9
REMARK    7  A    between atoms: C_9  and  C_10
REMARK    8  A    between atoms: C_10  and  N_11
REMARK    9  A    between atoms: C_17  and  C_18
REMARK   10  A    between atoms: C_18  and  N_19
REMARK   11  A    between atoms: C_20  and  C_22
REMARK                            x       y       z     vdW  Elec       q    Type
REMARK                         _______ _______ _______ _____ _____    ______ ____
ROOT
ATOM      1  C   UNL     1      48.093   6.322  14.947  0.00  0.00    +0.000 A 
ATOM      2  C   UNL     1      47.370   5.149  14.722  0.00  0.00    +0.000 A 
ATOM      3  C   UNL     1      47.439   4.107  15.650  0.00  0.00    +0.000 A 
ATOM      4  C   UNL     1      48.239   4.242  16.785  0.00  0.00    +0.000 A 
ATOM      5  C   UNL     1      48.919   5.442  16.937  0.00  0.00    +0.000 A 
ATOM      6  N   UNL     1      48.863   6.469  16.056  0.00  0.00    +0.000 NA
ENDROOT
BRANCH   1   8
ATOM      7  C   UNL     1      48.486   8.807  14.470  0.00  0.00    +0.000 C 
ATOM      8  C   UNL     1      48.168   7.423  13.881  0.00  0.00    +0.000 C 
BRANCH   8   9
ATOM      9  N   UNL     1      47.020   7.487  12.938  0.00  0.00    +0.000 NA
ATOM     10  H   UNL     1      46.166   7.299  13.464  0.00  0.00    +0.000 HD
BRANCH   9  11
ATOM     11  C   UNL     1      47.115   6.525  11.841  0.00  0.00    +0.000 C 
BRANCH  11  12
ATOM     12  C   UNL     1      46.077   6.798  10.731  0.00  0.00    +0.000 C 
ATOM     13  C   UNL     1      44.795   7.367  11.359  0.00  0.00    +0.000 C 
ATOM     14  C   UNL     1      44.002   6.307  12.123  0.00  0.00    +0.000 C 
ATOM     15  N   UNL     1      43.684   5.150  11.273  0.00  0.00    +0.000 NA
ATOM     16  C   UNL     1      44.912   4.540  10.731  0.00  0.00    +0.000 C 
ATOM     17  C   UNL     1      45.704   5.557   9.909  0.00  0.00    +0.000 C 
BRANCH  15  18
ATOM     18  C   UNL     1      42.893   4.139  12.004  0.00  0.00    +0.000 C 
BRANCH  18  19
ATOM     19  C   UNL     1      43.643   2.801  12.163  0.00  0.00    +0.000 C 
BRANCH  19  20
ATOM     20  N   UNL     1      42.893   1.666  11.619  0.00  0.00    +0.000 NA
ATOM     21  H   UNL     1      43.246   1.449  10.686  0.00  0.00    +0.000 HD
ATOM     22  H   UNL     1      41.924   1.951  11.495  0.00  0.00    +0.000 HD
ENDBRANCH  19  20
ENDBRANCH  18  19
ENDBRANCH  15  18
ENDBRANCH  11  12
ENDBRANCH   9  11
ENDBRANCH   8   9
ENDBRANCH   1   8
BRANCH   4  23
ATOM     23  C   UNL     1      48.393   3.139  17.787  0.00  0.00    +0.000 C 
BRANCH  23  24
ATOM     24  N   UNL     1      49.778   2.844  18.077  0.00  0.00    +0.000 N 
ATOM     25  C   UNL     1      50.506   2.060  17.212  0.00  0.00    +0.000 C 
ATOM     26  O   UNL     1      50.024   1.647  16.158  0.00  0.00    +0.000 OA
ATOM     27  H   UNL     1      50.119   2.990  19.023  0.00  0.00    +0.000 HD
BRANCH  25  28
ATOM     28  C   UNL     1      51.904   1.782  17.566  0.00  0.00    +0.000 A 
ATOM     29  C   UNL     1      52.320   0.465  17.713  0.00  0.00    +0.000 A 
ATOM     30  S   UNL     1      53.970   0.309  18.107  0.00  0.00    +0.000 S 
ATOM     31  C   UNL     1      54.164   2.001  18.191  0.00  0.00    +0.000 A 
ATOM     32  N   UNL     1      55.348   2.548  18.570  0.00  0.00    +0.000 NA
ATOM     33  C   UNL     1      55.325   3.837  18.676  0.00  0.00    +0.000 A 
ATOM     34  N   UNL     1      54.240   4.621  18.391  0.00  0.00    +0.000 N 
ATOM     35  C   UNL     1      53.050   4.115  17.912  0.00  0.00    +0.000 A 
ATOM     36  O   UNL     1      52.141   4.846  17.543  0.00  0.00    +0.000 OA
ATOM     37  C   UNL     1      53.001   2.669  17.856  0.00  0.00    +0.000 A 
ATOM     38  H   UNL     1      54.298   5.626  18.471  0.00  0.00    +0.000 HD
ENDBRANCH  25  28
ENDBRANCH  23  24
ENDBRANCH   4  23
TORSDOF 10
ENDMDL
