MODEL 1
REMARK VINA RESULT:    -8.606      0.000      0.000
REMARK INTER + INTRA:         -11.074
REMARK INTER:                 -10.618
REMARK INTRA:                  -0.456
REMARK UNBOUND:                -0.456
REMARK  Name = 
REMARK  4 active torsions:
REMARK  status: ('A' for Active; 'I' for Inactive)
REMARK    1  A    between atoms: C_2  and  C_4
REMARK    2  A    between atoms: N_8  and  C_9
REMARK    3  A    between atoms: C_9  and  C_10
REMARK    4  A    between atoms: C_14  and  C_15
REMARK                            x       y       z     vdW  Elec       q    Type
REMARK                         _______ _______ _______ _____ _____    ______ ____
ROOT
ATOM      1  C   UNL     1      43.933   4.672  11.277  0.00  0.00    +0.000 C 
ENDROOT
BRANCH   1   6
ATOM      2  C   UNL     1      46.615   2.679   7.382  0.00  0.00    +0.000 A 
ATOM      3  C   UNL     1      46.302   4.008   7.642  0.00  0.00    +0.000 A 
ATOM      4  C   UNL     1      45.421   4.311   8.678  0.00  0.00    +0.000 A 
ATOM      5  C   UNL     1      44.876   3.289   9.447  0.00  0.00    +0.000 A 
ATOM      6  N   UNL     1      43.929   3.489  10.427  0.00  0.00    +0.000 N 
ATOM      7  N   UNL     1      45.168   1.995   9.200  0.00  0.00    +0.000 NA
ATOM      8  C   UNL     1      46.017   1.714   8.174  0.00  0.00    +0.000 A 
ATOM      9  H   UNL     1      43.784   2.602  10.901  0.00  0.00    +0.000 HD
BRANCH   2  11
ATOM     10  N   UNL     1      47.474   3.012   5.134  0.00  0.00    +0.000 N 
ATOM     11  C   UNL     1      47.512   2.268   6.282  0.00  0.00    +0.000 C 
ATOM     12  O   UNL     1      48.276   1.319   6.396  0.00  0.00    +0.000 OA
ATOM     13  H   UNL     1      48.153   2.777   4.420  0.00  0.00    +0.000 HD
ATOM     14  H   UNL     1      47.046   3.926   5.092  0.00  0.00    +0.000 HD
ENDBRANCH   2  11
ENDBRANCH   1   6
BRANCH   1  15
ATOM     15  C   UNL     1      45.139   4.779  12.189  0.00  0.00    +0.000 A 
ATOM     16  C   UNL     1      45.621   3.655  12.852  0.00  0.00    +0.000 A 
ATOM     17  C   UNL     1      46.675   3.803  13.742  0.00  0.00    +0.000 A 
ATOM     18  C   UNL     1      47.224   5.066  13.944  0.00  0.00    +0.000 A 
ATOM     19  C   UNL     1      46.712   6.158  13.243  0.00  0.00    +0.000 A 
ATOM     20  N   UNL     1      45.659   6.019  12.395  0.00  0.00    +0.000 NA
BRANCH  19  21
ATOM     21  C   UNL     1      47.281   7.557  13.483  0.00  0.00    +0.000 C 
ATOM     22  C   UNL     1      47.550   8.364  12.198  0.00  0.00    +0.000 C 
ATOM     23  C   UNL     1      48.789   7.860  11.457  0.00  0.00    +0.000 C 
ATOM     24  C   UNL     1      50.005   7.718  12.374  0.00  0.00    +0.000 C 
ATOM     25  N   UNL     1      49.722   6.992  13.611  0.00  0.00    +0.000 NA
ATOM     26  C   UNL     1      48.576   7.561  14.324  0.00  0.00    +0.000 C 
ATOM     27  H   UNL     1      50.545   7.010  14.211  0.00  0.00    +0.000 HD
ENDBRANCH  19  21
ENDBRANCH   1  15
TORSDOF 4
ENDMDL
MODEL 2
REMARK VINA RESULT:    -7.586      3.364      5.740
REMARK INTER + INTRA:          -9.816
REMARK INTER:                  -9.261
REMARK INTRA:                  -0.555
REMARK UNBOUND:                -0.456
REMARK  Name = 
REMARK  4 active torsions:
REMARK  status: ('A' for Active; 'I' for Inactive)
REMARK    1  A    between atoms: C_2  and  C_4
REMARK    2  A    between atoms: N_8  and  C_9
REMARK    3  A    between atoms: C_9  and  C_10
REMARK    4  A    between atoms: C_14  and  C_15
REMARK                            x       y       z     vdW  Elec       q    Type
REMARK                         _______ _______ _______ _____ _____    ______ ____
ROOT
ATOM      1  C   UNL     1      48.256   6.893  14.286  0.00  0.00    +0.000 C 
ENDROOT
BRANCH   1   6
ATOM      2  C   UNL     1      45.003   4.365  11.225  0.00  0.00    +0.000 A 
ATOM      3  C   UNL     1      45.567   5.624  11.057  0.00  0.00    +0.000 A 
ATOM      4  C   UNL     1      46.305   6.187  12.097  0.00  0.00    +0.000 A 
ATOM      5  C   UNL     1      46.480   5.482  13.283  0.00  0.00    +0.000 A 
ATOM      6  N   UNL     1      47.113   5.997  14.393  0.00  0.00    +0.000 N 
ATOM      7  N   UNL     1      45.932   4.262  13.460  0.00  0.00    +0.000 NA
ATOM      8  C   UNL     1      45.201   3.733  12.441  0.00  0.00    +0.000 A 
ATOM      9  H   UNL     1      47.198   5.247  15.074  0.00  0.00    +0.000 HD
BRANCH   2  11
ATOM     10  N   UNL     1      44.011   4.385   9.007  0.00  0.00    +0.000 N 
ATOM     11  C   UNL     1      44.179   3.712  10.187  0.00  0.00    +0.000 C 
ATOM     12  O   UNL     1      43.685   2.606  10.361  0.00  0.00    +0.000 OA
ATOM     13  H   UNL     1      43.519   3.892   8.272  0.00  0.00    +0.000 HD
ATOM     14  H   UNL     1      44.589   5.169   8.742  0.00  0.00    +0.000 HD
ENDBRANCH   2  11
ENDBRANCH   1   6
BRANCH   1  15
ATOM     15  C   UNL     1      49.345   6.637  15.308  0.00  0.00    +0.000 A 
ATOM     16  C   UNL     1      50.538   7.351  15.259  0.00  0.00    +0.000 A 
ATOM     17  C   UNL     1      51.545   7.034  16.159  0.00  0.00    +0.000 A 
ATOM     18  C   UNL     1      51.336   6.017  17.087  0.00  0.00    +0.000 A 
ATOM     19  C   UNL     1      50.115   5.342  17.102  0.00  0.00    +0.000 A 
ATOM     20  N   UNL     1      49.140   5.630  16.201  0.00  0.00    +0.000 NA
BRANCH  19  21
ATOM     21  C   UNL     1      49.885   4.198  18.091  0.00  0.00    +0.000 C 
ATOM     22  C   UNL     1      49.822   2.801  17.446  0.00  0.00    +0.000 C 
ATOM     23  C   UNL     1      48.505   2.577  16.701  0.00  0.00    +0.000 C 
ATOM     24  C   UNL     1      47.283   2.931  17.549  0.00  0.00    +0.000 C 
ATOM     25  N   UNL     1      47.380   4.240  18.194  0.00  0.00    +0.000 NA
ATOM     26  C   UNL     1      48.621   4.377  18.959  0.00  0.00    +0.000 C 
ATOM     27  H   UNL     1      46.578   4.375  18.809  0.00  0.00    +0.000 HD
ENDBRANCH  19  21
ENDBRANCH   1  15
TORSDOF 4
ENDMDL
MODEL 3
REMARK VINA RESULT:    -7.156      3.718      7.449
REMARK INTER + INTRA:          -9.285
REMARK INTER:                  -8.306
REMARK INTRA:                  -0.979
REMARK UNBOUND:                -0.456
REMARK  Name = 
REMARK  4 active torsions:
REMARK  status: ('A' for Active; 'I' for Inactive)
REMARK    1  A    between atoms: C_2  and  C_4
REMARK    2  A    between atoms: N_8  and  C_9
REMARK    3  A    between atoms: C_9  and  C_10
REMARK    4  A    between atoms: C_14  and  C_15
REMARK                            x       y       z     vdW  Elec       q    Type
REMARK                         _______ _______ _______ _____ _____    ______ ____
ROOT
ATOM      1  C   UNL     1      48.526   7.199  12.577  0.00  0.00    +0.000 C 
ENDROOT
BRANCH   1   6
ATOM      2  C   UNL     1      47.855   4.224  16.704  0.00  0.00    +0.000 A 
ATOM      3  C   UNL     1      47.064   4.338  15.568  0.00  0.00    +0.000 A 
ATOM      4  C   UNL     1      47.351   5.332  14.633  0.00  0.00    +0.000 A 
ATOM      5  C   UNL     1      48.427   6.187  14.840  0.00  0.00    +0.000 A 
ATOM      6  N   UNL     1      48.726   7.253  14.019  0.00  0.00    +0.000 N 
ATOM      7  N   UNL     1      49.197   6.090  15.942  0.00  0.00    +0.000 NA
ATOM      8  C   UNL     1      48.895   5.125  16.853  0.00  0.00    +0.000 A 
ATOM      9  H   UNL     1      49.610   7.643  14.331  0.00  0.00    +0.000 HD
BRANCH   2  11
ATOM     10  N   UNL     1      48.484   3.173  18.803  0.00  0.00    +0.000 N 
ATOM     11  C   UNL     1      47.600   3.221  17.760  0.00  0.00    +0.000 C 
ATOM     12  O   UNL     1      46.628   2.480  17.720  0.00  0.00    +0.000 OA
ATOM     13  H   UNL     1      48.254   2.545  19.563  0.00  0.00    +0.000 HD
ATOM     14  H   UNL     1      49.145   3.914  18.991  0.00  0.00    +0.000 HD
ENDBRANCH   2  11
ENDBRANCH   1   6
BRANCH   1  15
ATOM     15  C   UNL     1      47.125   7.568  12.129  0.00  0.00    +0.000 A 
ATOM     16  C   UNL     1      46.658   8.869  12.282  0.00  0.00    +0.000 A 
ATOM     17  C   UNL     1      45.345   9.153  11.937  0.00  0.00    +0.000 A 
ATOM     18  C   UNL     1      44.533   8.135  11.445  0.00  0.00    +0.000 A 
ATOM     19  C   UNL     1      45.057   6.850  11.298  0.00  0.00    +0.000 A 
ATOM     20  N   UNL     1      46.333   6.564  11.665  0.00  0.00    +0.000 NA
BRANCH  19  21
ATOM     21  C   UNL     1      44.166   5.714  10.794  0.00  0.00    +0.000 C 
ATOM     22  C   UNL     1      42.802   5.611  11.503  0.00  0.00    +0.000 C 
ATOM     23  C   UNL     1      42.936   5.037  12.914  0.00  0.00    +0.000 C 
ATOM     24  C   UNL     1      43.758   3.747  12.948  0.00  0.00    +0.000 C 
ATOM     25  N   UNL     1      45.028   3.846  12.230  0.00  0.00    +0.000 NA
ATOM     26  C   UNL     1      44.839   4.325  10.858  0.00  0.00    +0.000 C 
ATOM     27  H   UNL     1      45.482   2.934  12.216  0.00  0.00    +0.000 HD
ENDBRANCH  19  21
ENDBRANCH   1  15
TORSDOF 4
ENDMDL
MODEL 4
REMARK VINA RESULT:    -7.101      4.471      8.099
REMARK INTER + INTRA:          -9.218
REMARK INTER:                  -8.695
REMARK INTRA:                  -0.522
REMARK UNBOUND:                -0.456
REMARK  Name = 
REMARK  4 active torsions:
REMARK  status: ('A' for Active; 'I' for Inactive)
REMARK    1  A    between atoms: C_2  and  C_4
REMARK    2  A    between atoms: N_8  and  C_9
REMARK    3  A    between atoms: C_9  and  C_10
REMARK    4  A    between atoms: C_14  and  C_15
REMARK                            x       y       z     vdW  Elec       q    Type
REMARK                         _______ _______ _______ _____ _____    ______ ____
ROOT
ATOM      1  C   UNL     1      46.905   4.406  15.217  0.00  0.00    +0.000 C 
ENDROOT
BRANCH   1   6
ATOM      2  C   UNL     1      51.197   2.930  17.612  0.00  0.00    +0.000 A 
ATOM      3  C   UNL     1      50.119   2.161  17.191  0.00  0.00    +0.000 A 
ATOM      4  C   UNL     1      48.979   2.795  16.700  0.00  0.00    +0.000 A 
ATOM      5  C   UNL     1      48.935   4.182  16.625  0.00  0.00    +0.000 A 
ATOM      6  N   UNL     1      47.818   4.893  16.242  0.00  0.00    +0.000 N 
ATOM      7  N   UNL     1      49.972   4.939  17.036  0.00  0.00    +0.000 NA
ATOM      8  C   UNL     1      51.072   4.306  17.529  0.00  0.00    +0.000 A 
ATOM      9  H   UNL     1      48.086   5.870  16.171  0.00  0.00    +0.000 HD
BRANCH   2  11
ATOM     10  N   UNL     1      52.488   0.976  18.259  0.00  0.00    +0.000 N 
ATOM     11  C   UNL     1      52.429   2.340  18.177  0.00  0.00    +0.000 C 
ATOM     12  O   UNL     1      53.369   3.037  18.535  0.00  0.00    +0.000 OA
ATOM     13  H   UNL     1      53.367   0.579  18.565  0.00  0.00    +0.000 HD
ATOM     14  H   UNL     1      51.849   0.373  17.761  0.00  0.00    +0.000 HD
ENDBRANCH   2  11
ENDBRANCH   1   6
BRANCH   1  15
ATOM     15  C   UNL     1      46.929   5.207  13.930  0.00  0.00    +0.000 A 
ATOM     16  C   UNL     1      47.787   6.293  13.794  0.00  0.00    +0.000 A 
ATOM     17  C   UNL     1      47.725   7.054  12.635  0.00  0.00    +0.000 A 
ATOM     18  C   UNL     1      46.813   6.709  11.641  0.00  0.00    +0.000 A 
ATOM     19  C   UNL     1      45.985   5.601  11.823  0.00  0.00    +0.000 A 
ATOM     20  N   UNL     1      46.023   4.874  12.971  0.00  0.00    +0.000 NA
BRANCH  19  21
ATOM     21  C   UNL     1      44.954   5.233  10.755  0.00  0.00    +0.000 C 
ATOM     22  C   UNL     1      43.492   5.482  11.169  0.00  0.00    +0.000 C 
ATOM     23  C   UNL     1      42.998   4.439  12.173  0.00  0.00    +0.000 C 
ATOM     24  C   UNL     1      43.284   3.007  11.720  0.00  0.00    +0.000 C 
ATOM     25  N   UNL     1      44.664   2.798  11.284  0.00  0.00    +0.000 NA
ATOM     26  C   UNL     1      45.065   3.772  10.267  0.00  0.00    +0.000 C 
ATOM     27  H   UNL     1      44.764   1.853  10.916  0.00  0.00    +0.000 HD
ENDBRANCH  19  21
ENDBRANCH   1  15
TORSDOF 4
ENDMDL
MODEL 5
REMARK VINA RESULT:    -6.769      3.958      6.249
REMARK INTER + INTRA:          -8.808
REMARK INTER:                  -7.813
REMARK INTRA:                  -0.995
REMARK UNBOUND:                -0.456
REMARK  Name = 
REMARK  4 active torsions:
REMARK  status: ('A' for Active; 'I' for Inactive)
REMARK    1  A    between atoms: C_2  and  C_4
REMARK    2  A    between atoms: N_8  and  C_9
REMARK    3  A    between atoms: C_9  and  C_10
REMARK    4  A    between atoms: C_14  and  C_15
REMARK                            x       y       z     vdW  Elec       q    Type
REMARK                         _______ _______ _______ _____ _____    ______ ____
ROOT
ATOM      1  C   UNL     1      49.077   6.944  13.897  0.00  0.00    +0.000 C 
ENDROOT
BRANCH   1   6
ATOM      2  C   UNL     1      44.457   5.712  12.031  0.00  0.00    +0.000 A 
ATOM      3  C   UNL     1      45.580   4.909  12.194  0.00  0.00    +0.000 A 
ATOM      4  C   UNL     1      46.787   5.493  12.575  0.00  0.00    +0.000 A 
ATOM      5  C   UNL     1      46.855   6.863  12.798  0.00  0.00    +0.000 A 
ATOM      6  N   UNL     1      48.023   7.536  13.085  0.00  0.00    +0.000 N 
ATOM      7  N   UNL     1      45.774   7.653  12.637  0.00  0.00    +0.000 NA
ATOM      8  C   UNL     1      44.606   7.071  12.249  0.00  0.00    +0.000 A 
ATOM      9  H   UNL     1      47.778   8.496  13.305  0.00  0.00    +0.000 HD
BRANCH   2  11
ATOM     10  N   UNL     1      42.060   5.994  11.754  0.00  0.00    +0.000 N 
ATOM     11  C   UNL     1      43.149   5.180  11.597  0.00  0.00    +0.000 C 
ATOM     12  O   UNL     1      43.041   4.068  11.097  0.00  0.00    +0.000 OA
ATOM     13  H   UNL     1      41.185   5.656  11.374  0.00  0.00    +0.000 HD
ATOM     14  H   UNL     1      42.143   6.985  11.932  0.00  0.00    +0.000 HD
ENDBRANCH   2  11
ENDBRANCH   1   6
BRANCH   1  15
ATOM     15  C   UNL     1      48.794   6.954  15.387  0.00  0.00    +0.000 A 
ATOM     16  C   UNL     1      48.951   8.122  16.124  0.00  0.00    +0.000 A 
ATOM     17  C   UNL     1      48.763   8.077  17.498  0.00  0.00    +0.000 A 
ATOM     18  C   UNL     1      48.419   6.870  18.100  0.00  0.00    +0.000 A 
ATOM     19  C   UNL     1      48.261   5.729  17.311  0.00  0.00    +0.000 A 
ATOM     20  N   UNL     1      48.475   5.766  15.970  0.00  0.00    +0.000 NA
BRANCH  19  21
ATOM     21  C   UNL     1      47.920   4.389  17.964  0.00  0.00    +0.000 C 
ATOM     22  C   UNL     1      49.090   3.732  18.719  0.00  0.00    +0.000 C 
ATOM     23  C   UNL     1      50.123   3.137  17.762  0.00  0.00    +0.000 C 
ATOM     24  C   UNL     1      49.489   2.245  16.694  0.00  0.00    +0.000 C 
ATOM     25  N   UNL     1      48.349   2.864  16.019  0.00  0.00    +0.000 NA
ATOM     26  C   UNL     1      47.350   3.348  16.975  0.00  0.00    +0.000 C 
ATOM     27  H   UNL     1      47.921   2.188  15.387  0.00  0.00    +0.000 HD
ENDBRANCH  19  21
ENDBRANCH   1  15
TORSDOF 4
ENDMDL
MODEL 6
REMARK VINA RESULT:    -6.550      2.764      6.926
REMARK INTER + INTRA:          -8.538
REMARK INTER:                  -7.705
REMARK INTRA:                  -0.833
REMARK UNBOUND:                -0.456
REMARK  Name = 
REMARK  4 active torsions:
REMARK  status: ('A' for Active; 'I' for Inactive)
REMARK    1  A    between atoms: C_2  and  C_4
REMARK    2  A    between atoms: N_8  and  C_9
REMARK    3  A    between atoms: C_9  and  C_10
REMARK    4  A    between atoms: C_14  and  C_15
REMARK                            x       y       z     vdW  Elec       q    Type
REMARK                         _______ _______ _______ _____ _____    ______ ____
ROOT
ATOM      1  C   UNL     1      45.846   7.307  12.527  0.00  0.00    +0.000 C 
ENDROOT
BRANCH   1   6
ATOM      2  C   UNL     1      50.826   8.542  12.406  0.00  0.00    +0.000 A 
ATOM      3  C   UNL     1      50.136   7.602  11.649  0.00  0.00    +0.000 A 
ATOM      4  C   UNL     1      48.808   7.317  11.960  0.00  0.00    +0.000 A 
ATOM      5  C   UNL     1      48.184   7.979  13.010  0.00  0.00    +0.000 A 
ATOM      6  N   UNL     1      46.908   7.694  13.446  0.00  0.00    +0.000 N 
ATOM      7  N   UNL     1      48.845   8.888  13.756  0.00  0.00    +0.000 NA
ATOM      8  C   UNL     1      50.146   9.144  13.450  0.00  0.00    +0.000 A 
ATOM      9  H   UNL     1      46.660   8.387  14.146  0.00  0.00    +0.000 HD
BRANCH   2  11
ATOM     10  N   UNL     1      53.185   8.105  12.790  0.00  0.00    +0.000 N 
ATOM     11  C   UNL     1      52.244   8.878  12.165  0.00  0.00    +0.000 C 
ATOM     12  O   UNL     1      52.570   9.793  11.421  0.00  0.00    +0.000 OA
ATOM     13  H   UNL     1      54.151   8.287  12.551  0.00  0.00    +0.000 HD
ATOM     14  H   UNL     1      52.964   7.211  13.206  0.00  0.00    +0.000 HD
ENDBRANCH   2  11
ENDBRANCH   1   6
BRANCH   1  15
ATOM     15  C   UNL     1      45.621   5.811  12.431  0.00  0.00    +0.000 A 
ATOM     16  C   UNL     1      46.147   4.958  13.395  0.00  0.00    +0.000 A 
ATOM     17  C   UNL     1      45.992   3.588  13.232  0.00  0.00    +0.000 A 
ATOM     18  C   UNL     1      45.315   3.106  12.116  0.00  0.00    +0.000 A 
ATOM     19  C   UNL     1      44.795   4.007  11.186  0.00  0.00    +0.000 A 
ATOM     20  N   UNL     1      44.973   5.347  11.328  0.00  0.00    +0.000 NA
BRANCH  19  21
ATOM     21  C   UNL     1      44.081   3.490   9.936  0.00  0.00    +0.000 C 
ATOM     22  C   UNL     1      44.591   2.128   9.429  0.00  0.00    +0.000 C 
ATOM     23  C   UNL     1      45.953   2.250   8.743  0.00  0.00    +0.000 C 
ATOM     24  C   UNL     1      45.984   3.361   7.693  0.00  0.00    +0.000 C 
ATOM     25  N   UNL     1      45.452   4.635   8.175  0.00  0.00    +0.000 NA
ATOM     26  C   UNL     1      44.114   4.480   8.751  0.00  0.00    +0.000 C 
ATOM     27  H   UNL     1      45.420   5.303   7.405  0.00  0.00    +0.000 HD
ENDBRANCH  19  21
ENDBRANCH   1  15
TORSDOF 4
ENDMDL
MODEL 7
REMARK VINA RESULT:    -6.169      3.890      5.912
REMARK INTER + INTRA:          -8.068
REMARK INTER:                  -7.297
REMARK INTRA:                  -0.771
REMARK UNBOUND:                -0.456
REMARK  Name = 
REMARK  4 active torsions:
REMARK  status: ('A' for Active; 'I' for Inactive)
REMARK    1  A    between atoms: C_2  and  C_4
REMARK    2  A    between atoms: N_8  and  C_9
REMARK    3  A    between atoms: C_9  and  C_10
REMARK    4  A    between atoms: C_14  and  C_15
REMARK                            x       y       z     vdW  Elec       q    Type
REMARK                         _______ _______ _______ _____ _____    ______ ____
ROOT
ATOM      1  C   UNL     1      47.298   4.142  16.036  0.00  0.00    +0.000 C 
ENDROOT
BRANCH   1   6
ATOM      2  C   UNL     1      44.827   4.458  11.549  0.00  0.00    +0.000 A 
ATOM      3  C   UNL     1      45.443   3.359  12.135  0.00  0.00    +0.000 A 
ATOM      4  C   UNL     1      46.198   3.537  13.294  0.00  0.00    +0.000 A 
ATOM      5  C   UNL     1      46.318   4.803  13.856  0.00  0.00    +0.000 A 
ATOM      6  N   UNL     1      47.117   5.087  14.942  0.00  0.00    +0.000 N 
ATOM      7  N   UNL     1      45.730   5.878  13.292  0.00  0.00    +0.000 NA
ATOM      8  C   UNL     1      45.009   5.691  12.152  0.00  0.00    +0.000 A 
ATOM      9  H   UNL     1      46.940   6.050  15.211  0.00  0.00    +0.000 HD
BRANCH   2  11
ATOM     10  N   UNL     1      44.358   3.353   9.437  0.00  0.00    +0.000 N 
ATOM     11  C   UNL     1      44.038   4.363  10.303  0.00  0.00    +0.000 C 
ATOM     12  O   UNL     1      43.122   5.137  10.063  0.00  0.00    +0.000 OA
ATOM     13  H   UNL     1      43.757   3.243   8.630  0.00  0.00    +0.000 HD
ATOM     14  H   UNL     1      44.931   2.566   9.706  0.00  0.00    +0.000 HD
ENDBRANCH   2  11
ENDBRANCH   1   6
BRANCH   1  15
ATOM     15  C   UNL     1      48.516   4.415  16.898  0.00  0.00    +0.000 A 
ATOM     16  C   UNL     1      49.325   3.367  17.323  0.00  0.00    +0.000 A 
ATOM     17  C   UNL     1      50.383   3.644  18.177  0.00  0.00    +0.000 A 
ATOM     18  C   UNL     1      50.609   4.956  18.580  0.00  0.00    +0.000 A 
ATOM     19  C   UNL     1      49.775   5.972  18.112  0.00  0.00    +0.000 A 
ATOM     20  N   UNL     1      48.720   5.699  17.301  0.00  0.00    +0.000 NA
BRANCH  19  21
ATOM     21  C   UNL     1      49.990   7.414  18.576  0.00  0.00    +0.000 C 
ATOM     22  C   UNL     1      49.552   7.687  20.027  0.00  0.00    +0.000 C 
ATOM     23  C   UNL     1      48.030   7.747  20.161  0.00  0.00    +0.000 C 
ATOM     24  C   UNL     1      47.386   8.672  19.128  0.00  0.00    +0.000 C 
ATOM     25  N   UNL     1      47.848   8.432  17.761  0.00  0.00    +0.000 NA
ATOM     26  C   UNL     1      49.309   8.462  17.670  0.00  0.00    +0.000 C 
ATOM     27  H   UNL     1      47.449   9.135  17.140  0.00  0.00    +0.000 HD
ENDBRANCH  19  21
ENDBRANCH   1  15
TORSDOF 4
ENDMDL
MODEL 8
REMARK VINA RESULT:    -6.080      4.686      7.209
REMARK INTER + INTRA:          -7.957
REMARK INTER:                  -7.067
REMARK INTRA:                  -0.891
REMARK UNBOUND:                -0.456
REMARK  Name = 
REMARK  4 active torsions:
REMARK  status: ('A' for Active; 'I' for Inactive)
REMARK    1  A    between atoms: C_2  and  C_4
REMARK    2  A    between atoms: N_8  and  C_9
REMARK    3  A    between atoms: C_9  and  C_10
REMARK    4  A    between atoms: C_14  and  C_15
REMARK                            x       y       z     vdW  Elec       q    Type
REMARK                         _______ _______ _______ _____ _____    ______ ____
ROOT
ATOM      1  C   UNL     1      46.711   4.277  14.976  0.00  0.00    +0.000 C 
ENDROOT
BRANCH   1   6
ATOM      2  C   UNL     1      50.889   2.616  17.451  0.00  0.00    +0.000 A 
ATOM      3  C   UNL     1      49.816   1.886  16.956  0.00  0.00    +0.000 A 
ATOM      4  C   UNL     1      48.704   2.562  16.455  0.00  0.00    +0.000 A 
ATOM      5  C   UNL     1      48.685   3.952  16.444  0.00  0.00    +0.000 A 
ATOM      6  N   UNL     1      47.595   4.700  16.054  0.00  0.00    +0.000 N 
ATOM      7  N   UNL     1      49.719   4.671  16.927  0.00  0.00    +0.000 NA
ATOM      8  C   UNL     1      50.790   3.997  17.428  0.00  0.00    +0.000 A 
ATOM      9  H   UNL     1      47.880   5.674  16.039  0.00  0.00    +0.000 HD
BRANCH   2  11
ATOM     10  N   UNL     1      52.098   0.613  18.108  0.00  0.00    +0.000 N 
ATOM     11  C   UNL     1      52.091   1.980  18.031  0.00  0.00    +0.000 C 
ATOM     12  O   UNL     1      53.050   2.640  18.406  0.00  0.00    +0.000 OA
ATOM     13  H   UNL     1      52.958   0.183  18.425  0.00  0.00    +0.000 HD
ATOM     14  H   UNL     1      51.445   0.037  17.598  0.00  0.00    +0.000 HD
ENDBRANCH   2  11
ENDBRANCH   1   6
BRANCH   1  15
ATOM     15  C   UNL     1      46.602   5.269  13.836  0.00  0.00    +0.000 A 
ATOM     16  C   UNL     1      45.874   4.952  12.694  0.00  0.00    +0.000 A 
ATOM     17  C   UNL     1      45.863   5.850  11.637  0.00  0.00    +0.000 A 
ATOM     18  C   UNL     1      46.573   7.041  11.746  0.00  0.00    +0.000 A 
ATOM     19  C   UNL     1      47.276   7.317  12.919  0.00  0.00    +0.000 A 
ATOM     20  N   UNL     1      47.314   6.425  13.943  0.00  0.00    +0.000 NA
BRANCH  19  21
ATOM     21  C   UNL     1      48.091   8.606  13.039  0.00  0.00    +0.000 C 
ATOM     22  C   UNL     1      48.761   9.059  11.728  0.00  0.00    +0.000 C 
ATOM     23  C   UNL     1      49.968   8.190  11.375  0.00  0.00    +0.000 C 
ATOM     24  C   UNL     1      50.936   8.025  12.548  0.00  0.00    +0.000 C 
ATOM     25  N   UNL     1      50.279   7.641  13.796  0.00  0.00    +0.000 NA
ATOM     26  C   UNL     1      49.180   8.549  14.132  0.00  0.00    +0.000 C 
ATOM     27  H   UNL     1      50.963   7.634  14.552  0.00  0.00    +0.000 HD
ENDBRANCH  19  21
ENDBRANCH   1  15
TORSDOF 4
ENDMDL
MODEL 9
REMARK VINA RESULT:    -5.711      3.923      6.249
REMARK INTER + INTRA:          -7.502
REMARK INTER:                  -7.060
REMARK INTRA:                  -0.442
REMARK UNBOUND:                -0.456
REMARK  Name = 
REMARK  4 active torsions:
REMARK  status: ('A' for Active; 'I' for Inactive)
REMARK    1  A    between atoms: C_2  and  C_4
REMARK    2  A    between atoms: N_8  and  C_9
REMARK    3  A    between atoms: C_9  and  C_10
REMARK    4  A    between atoms: C_14  and  C_15
REMARK                            x       y       z     vdW  Elec       q    Type
REMARK                         _______ _______ _______ _____ _____    ______ ____
ROOT
ATOM      1  C   UNL     1      48.564   6.630  14.641  0.00  0.00    +0.000 C 
ENDROOT
BRANCH   1   6
ATOM      2  C   UNL     1      45.105   4.422  11.560  0.00  0.00    +0.000 A 
ATOM      3  C   UNL     1      45.584   5.726  11.547  0.00  0.00    +0.000 A 
ATOM      4  C   UNL     1      46.410   6.160  12.583  0.00  0.00    +0.000 A 
ATOM      5  C   UNL     1      46.754   5.286  13.608  0.00  0.00    +0.000 A 
ATOM      6  N   UNL     1      47.485   5.654  14.716  0.00  0.00    +0.000 N 
ATOM      7  N   UNL     1      46.289   4.020  13.634  0.00  0.00    +0.000 NA
ATOM      8  C   UNL     1      45.471   3.616  12.624  0.00  0.00    +0.000 A 
ATOM      9  H   UNL     1      47.684   4.812  15.247  0.00  0.00    +0.000 HD
BRANCH   2  11
ATOM     10  N   UNL     1      43.776   4.766   9.554  0.00  0.00    +0.000 N 
ATOM     11  C   UNL     1      44.198   3.893  10.520  0.00  0.00    +0.000 C 
ATOM     12  O   UNL     1      43.855   2.718  10.504  0.00  0.00    +0.000 OA
ATOM     13  H   UNL     1      43.227   4.375   8.799  0.00  0.00    +0.000 HD
ATOM     14  H   UNL     1      44.220   5.660   9.398  0.00  0.00    +0.000 HD
ENDBRANCH   2  11
ENDBRANCH   1   6
BRANCH   1  15
ATOM     15  C   UNL     1      48.648   7.558  15.837  0.00  0.00    +0.000 A 
ATOM     16  C   UNL     1      48.358   8.911  15.700  0.00  0.00    +0.000 A 
ATOM     17  C   UNL     1      48.523   9.745  16.796  0.00  0.00    +0.000 A 
ATOM     18  C   UNL     1      48.969   9.209  18.000  0.00  0.00    +0.000 A 
ATOM     19  C   UNL     1      49.232   7.841  18.088  0.00  0.00    +0.000 A 
ATOM     20  N   UNL     1      49.101   7.029  17.007  0.00  0.00    +0.000 NA
BRANCH  19  21
ATOM     21  C   UNL     1      49.757   7.245  19.394  0.00  0.00    +0.000 C 
ATOM     22  C   UNL     1      49.702   5.707  19.460  0.00  0.00    +0.000 C 
ATOM     23  C   UNL     1      48.275   5.197  19.664  0.00  0.00    +0.000 C 
ATOM     24  C   UNL     1      47.560   5.899  20.819  0.00  0.00    +0.000 C 
ATOM     25  N   UNL     1      47.662   7.357  20.769  0.00  0.00    +0.000 NA
ATOM     26  C   UNL     1      49.054   7.799  20.653  0.00  0.00    +0.000 C 
ATOM     27  H   UNL     1      47.243   7.756  21.608  0.00  0.00    +0.000 HD
ENDBRANCH  19  21
ENDBRANCH   1  15
TORSDOF 4
ENDMDL
