MODEL 1
REMARK VINA RESULT:    -7.044      0.000      0.000
REMARK INTER + INTRA:          -9.914
REMARK INTER:                  -9.102
REMARK INTRA:                  -0.812
REMARK UNBOUND:                -0.812
REMARK  Name = 
REMARK  6 active torsions:
REMARK  status: ('A' for Active; 'I' for Inactive)
REMARK    1  A    between atoms: C_1  and  C_2
REMARK    2  A    between atoms: C_2  and  C_3
REMARK    3  A    between atoms: C_6  and  O_7
REMARK    4  A    between atoms: O_7  and  C_8
REMARK    5  A    between atoms: C_15  and  N_16
REMARK    6  A    between atoms: C_20  and  C_21
REMARK                            x       y       z     vdW  Elec       q    Type
REMARK                         _______ _______ _______ _____ _____    ______ ____
ROOT
ATOM      1  C   UNL     1      44.813   6.424  12.968  0.00  0.00    +0.000 C 
ATOM      2  C   UNL     1      45.869   5.354  12.654  0.00  0.00    +0.000 C 
ATOM      3  C   UNL     1      47.287   5.876  12.915  0.00  0.00    +0.000 C 
ATOM      4  C   UNL     1      47.643   5.416  14.320  0.00  0.00    +0.000 C 
ATOM      5  C   UNL     1      46.477   4.525  14.743  0.00  0.00    +0.000 C 
ATOM      6  O   UNL     1      45.668   4.282  13.594  0.00  0.00    +0.000 OA
ENDROOT
BRANCH   4   7
ATOM      7  N   UNL     1      47.851   6.547  15.223  0.00  0.00    +0.000 N 
ATOM      8  C   UNL     1      48.580   6.218  16.363  0.00  0.00    +0.000 A 
ATOM      9  N   UNL     1      49.475   5.219  16.314  0.00  0.00    +0.000 NA
ATOM     10  C   UNL     1      50.087   4.875  17.466  0.00  0.00    +0.000 A 
ATOM     11  C   UNL     1      49.856   5.504  18.666  0.00  0.00    +0.000 A 
ATOM     12  C   UNL     1      48.919   6.511  18.616  0.00  0.00    +0.000 A 
ATOM     13  N   UNL     1      48.270   6.882  17.485  0.00  0.00    +0.000 NA
ATOM     14  H   UNL     1      47.018   7.033  15.545  0.00  0.00    +0.000 HD
BRANCH  11  15
ATOM     15  C   UNL     1      50.548   5.057  19.878  0.00  0.00    +0.000 C 
ATOM     16  N   UNL     1      49.815   4.442  20.853  0.00  0.00    +0.000 N 
ATOM     17  O   UNL     1      51.747   5.261  20.025  0.00  0.00    +0.000 OA
ATOM     18  H   UNL     1      48.807   4.465  20.894  0.00  0.00    +0.000 HD
ATOM     19  H   UNL     1      50.306   4.238  21.716  0.00  0.00    +0.000 HD
ENDBRANCH  11  15
ENDBRANCH   4   7
BRANCH   2  20
ATOM     20  C   UNL     1      45.709   4.824  11.230  0.00  0.00    +0.000 A 
ATOM     21  C   UNL     1      45.965   5.638  10.113  0.00  0.00    +0.000 A 
ATOM     22  C   UNL     1      45.811   5.163   8.804  0.00  0.00    +0.000 A 
ATOM     23  C   UNL     1      45.433   3.842   8.582  0.00  0.00    +0.000 A 
ATOM     24  C   UNL     1      45.139   3.032   9.681  0.00  0.00    +0.000 A 
ATOM     25  C   UNL     1      45.279   3.510  10.988  0.00  0.00    +0.000 A 
BRANCH  23  26
ATOM     26  O   UNL     1      45.269   3.244   7.372  0.00  0.00    +0.000 OA
BRANCH  26  27
ATOM     27  C   UNL     1      46.381   2.652   6.718  0.00  0.00    +0.000 C 
ATOM     28  F   UNL     1      46.362   2.757   5.373  0.00  0.00    +0.000 F 
ATOM     29  F   UNL     1      47.505   3.262   7.159  0.00  0.00    +0.000 F 
ATOM     30  F   UNL     1      46.458   1.345   7.054  0.00  0.00    +0.000 F 
ENDBRANCH  26  27
ENDBRANCH  23  26
ENDBRANCH   2  20
TORSDOF 5
ENDMDL
MODEL 2
REMARK VINA RESULT:    -6.540      2.101      2.406
REMARK INTER + INTRA:          -9.264
REMARK INTER:                  -8.505
REMARK INTRA:                  -0.758
REMARK UNBOUND:                -0.812
REMARK  Name = 
REMARK  6 active torsions:
REMARK  status: ('A' for Active; 'I' for Inactive)
REMARK    1  A    between atoms: C_1  and  C_2
REMARK    2  A    between atoms: C_2  and  C_3
REMARK    3  A    between atoms: C_6  and  O_7
REMARK    4  A    between atoms: O_7  and  C_8
REMARK    5  A    between atoms: C_15  and  N_16
REMARK    6  A    between atoms: C_20  and  C_21
REMARK                            x       y       z     vdW  Elec       q    Type
REMARK                         _______ _______ _______ _____ _____    ______ ____
ROOT
ATOM      1  C   UNL     1      44.423   6.148  12.339  0.00  0.00    +0.000 C 
ATOM      2  C   UNL     1      45.704   5.350  12.051  0.00  0.00    +0.000 C 
ATOM      3  C   UNL     1      46.954   6.221  12.219  0.00  0.00    +0.000 C 
ATOM      4  C   UNL     1      47.447   5.966  13.634  0.00  0.00    +0.000 C 
ATOM      5  C   UNL     1      46.549   4.849  14.161  0.00  0.00    +0.000 C 
ATOM      6  O   UNL     1      45.798   4.332  13.065  0.00  0.00    +0.000 OA
ENDROOT
BRANCH   4   7
ATOM      7  N   UNL     1      47.391   7.176  14.453  0.00  0.00    +0.000 N 
ATOM      8  C   UNL     1      48.599   7.477  15.078  0.00  0.00    +0.000 A 
ATOM      9  N   UNL     1      49.754   7.100  14.508  0.00  0.00    +0.000 NA
ATOM     10  C   UNL     1      50.891   7.330  15.197  0.00  0.00    +0.000 A 
ATOM     11  C   UNL     1      50.923   7.943  16.427  0.00  0.00    +0.000 A 
ATOM     12  C   UNL     1      49.690   8.287  16.930  0.00  0.00    +0.000 A 
ATOM     13  N   UNL     1      48.521   8.065  16.280  0.00  0.00    +0.000 NA
ATOM     14  H   UNL     1      46.678   7.204  15.177  0.00  0.00    +0.000 HD
BRANCH  11  15
ATOM     15  C   UNL     1      52.201   8.138  17.120  0.00  0.00    +0.000 C 
ATOM     16  N   UNL     1      52.583   7.211  18.046  0.00  0.00    +0.000 N 
ATOM     17  O   UNL     1      52.888   9.127  16.896  0.00  0.00    +0.000 OA
ATOM     18  H   UNL     1      51.960   6.522  18.440  0.00  0.00    +0.000 HD
ATOM     19  H   UNL     1      53.420   7.430  18.575  0.00  0.00    +0.000 HD
ENDBRANCH  11  15
ENDBRANCH   4   7
BRANCH   2  20
ATOM     20  C   UNL     1      45.645   4.695  10.672  0.00  0.00    +0.000 A 
ATOM     21  C   UNL     1      45.236   3.359  10.512  0.00  0.00    +0.000 A 
ATOM     22  C   UNL     1      45.189   2.748   9.254  0.00  0.00    +0.000 A 
ATOM     23  C   UNL     1      45.514   3.476   8.113  0.00  0.00    +0.000 A 
ATOM     24  C   UNL     1      45.958   4.792   8.258  0.00  0.00    +0.000 A 
ATOM     25  C   UNL     1      46.019   5.398   9.517  0.00  0.00    +0.000 A 
BRANCH  23  26
ATOM     26  O   UNL     1      45.491   3.020   6.831  0.00  0.00    +0.000 OA
BRANCH  26  27
ATOM     27  C   UNL     1      46.673   2.494   6.246  0.00  0.00    +0.000 C 
ATOM     28  F   UNL     1      46.737   1.146   6.229  0.00  0.00    +0.000 F 
ATOM     29  F   UNL     1      46.738   2.922   4.965  0.00  0.00    +0.000 F 
ATOM     30  F   UNL     1      47.753   2.975   6.901  0.00  0.00    +0.000 F 
ENDBRANCH  26  27
ENDBRANCH  23  26
ENDBRANCH   2  20
TORSDOF 5
ENDMDL
MODEL 3
REMARK VINA RESULT:    -6.052      4.731      5.681
REMARK INTER + INTRA:          -8.632
REMARK INTER:                  -7.804
REMARK INTRA:                  -0.828
REMARK UNBOUND:                -0.812
REMARK  Name = 
REMARK  6 active torsions:
REMARK  status: ('A' for Active; 'I' for Inactive)
REMARK    1  A    between atoms: C_1  and  C_2
REMARK    2  A    between atoms: C_2  and  C_3
REMARK    3  A    between atoms: C_6  and  O_7
REMARK    4  A    between atoms: O_7  and  C_8
REMARK    5  A    between atoms: C_15  and  N_16
REMARK    6  A    between atoms: C_20  and  C_21
REMARK                            x       y       z     vdW  Elec       q    Type
REMARK                         _______ _______ _______ _____ _____    ______ ____
ROOT
ATOM      1  C   UNL     1      46.179   8.205  13.080  0.00  0.00    +0.000 C 
ATOM      2  C   UNL     1      47.081   6.996  12.786  0.00  0.00    +0.000 C 
ATOM      3  C   UNL     1      48.310   7.404  11.966  0.00  0.00    +0.000 C 
ATOM      4  C   UNL     1      49.422   7.634  12.977  0.00  0.00    +0.000 C 
ATOM      5  C   UNL     1      48.825   7.202  14.314  0.00  0.00    +0.000 C 
ATOM      6  O   UNL     1      47.590   6.538  14.052  0.00  0.00    +0.000 OA
ENDROOT
BRANCH   4   7
ATOM      7  N   UNL     1      49.874   9.025  12.978  0.00  0.00    +0.000 N 
ATOM      8  C   UNL     1      51.163   9.187  12.477  0.00  0.00    +0.000 A 
ATOM      9  N   UNL     1      51.636   8.324  11.566  0.00  0.00    +0.000 NA
ATOM     10  C   UNL     1      52.922   8.467  11.182  0.00  0.00    +0.000 A 
ATOM     11  C   UNL     1      53.752   9.453  11.659  0.00  0.00    +0.000 A 
ATOM     12  C   UNL     1      53.178  10.285  12.593  0.00  0.00    +0.000 A 
ATOM     13  N   UNL     1      51.895  10.172  13.018  0.00  0.00    +0.000 NA
ATOM     14  H   UNL     1      49.848   9.512  13.870  0.00  0.00    +0.000 HD
BRANCH  11  15
ATOM     15  C   UNL     1      55.144   9.528  11.206  0.00  0.00    +0.000 C 
ATOM     16  N   UNL     1      55.729   8.392  10.725  0.00  0.00    +0.000 N 
ATOM     17  O   UNL     1      55.774  10.575  11.289  0.00  0.00    +0.000 OA
ATOM     18  H   UNL     1      55.349   7.466  10.855  0.00  0.00    +0.000 HD
ATOM     19  H   UNL     1      56.720   8.456  10.515  0.00  0.00    +0.000 HD
ENDBRANCH  11  15
ENDBRANCH   4   7
BRANCH   2  20
ATOM     20  C   UNL     1      46.293   5.873  12.114  0.00  0.00    +0.000 A 
ATOM     21  C   UNL     1      45.985   4.684  12.798  0.00  0.00    +0.000 A 
ATOM     22  C   UNL     1      45.273   3.645  12.186  0.00  0.00    +0.000 A 
ATOM     23  C   UNL     1      44.814   3.789  10.880  0.00  0.00    +0.000 A 
ATOM     24  C   UNL     1      45.143   4.949  10.175  0.00  0.00    +0.000 A 
ATOM     25  C   UNL     1      45.868   5.981  10.781  0.00  0.00    +0.000 A 
BRANCH  23  26
ATOM     26  O   UNL     1      44.094   2.877  10.173  0.00  0.00    +0.000 OA
BRANCH  26  27
ATOM     27  C   UNL     1      44.682   2.221   9.060  0.00  0.00    +0.000 C 
ATOM     28  F   UNL     1      46.022   2.083   9.136  0.00  0.00    +0.000 F 
ATOM     29  F   UNL     1      44.149   0.981   8.969  0.00  0.00    +0.000 F 
ATOM     30  F   UNL     1      44.375   2.891   7.927  0.00  0.00    +0.000 F 
ENDBRANCH  26  27
ENDBRANCH  23  26
ENDBRANCH   2  20
TORSDOF 5
ENDMDL
MODEL 4
REMARK VINA RESULT:    -5.833      2.555      3.280
REMARK INTER + INTRA:          -8.349
REMARK INTER:                  -7.763
REMARK INTRA:                  -0.586
REMARK UNBOUND:                -0.812
REMARK  Name = 
REMARK  6 active torsions:
REMARK  status: ('A' for Active; 'I' for Inactive)
REMARK    1  A    between atoms: C_1  and  C_2
REMARK    2  A    between atoms: C_2  and  C_3
REMARK    3  A    between atoms: C_6  and  O_7
REMARK    4  A    between atoms: O_7  and  C_8
REMARK    5  A    between atoms: C_15  and  N_16
REMARK    6  A    between atoms: C_20  and  C_21
REMARK                            x       y       z     vdW  Elec       q    Type
REMARK                         _______ _______ _______ _____ _____    ______ ____
ROOT
ATOM      1  C   UNL     1      48.944   8.021  12.266  0.00  0.00    +0.000 C 
ATOM      2  C   UNL     1      47.974   7.371  13.265  0.00  0.00    +0.000 C 
ATOM      3  C   UNL     1      48.722   6.515  14.293  0.00  0.00    +0.000 C 
ATOM      4  C   UNL     1      48.928   7.411  15.504  0.00  0.00    +0.000 C 
ATOM      5  C   UNL     1      48.158   8.688  15.176  0.00  0.00    +0.000 C 
ATOM      6  O   UNL     1      47.368   8.441  14.014  0.00  0.00    +0.000 OA
ENDROOT
BRANCH   4   7
ATOM      7  N   UNL     1      50.347   7.652  15.763  0.00  0.00    +0.000 N 
ATOM      8  C   UNL     1      50.919   6.716  16.621  0.00  0.00    +0.000 A 
ATOM      9  N   UNL     1      50.426   5.469  16.667  0.00  0.00    +0.000 NA
ATOM     10  C   UNL     1      50.952   4.626  17.580  0.00  0.00    +0.000 A 
ATOM     11  C   UNL     1      51.967   4.974  18.439  0.00  0.00    +0.000 A 
ATOM     12  C   UNL     1      52.400   6.274  18.320  0.00  0.00    +0.000 A 
ATOM     13  N   UNL     1      51.894   7.160  17.426  0.00  0.00    +0.000 NA
ATOM     14  H   UNL     1      50.593   8.568  16.130  0.00  0.00    +0.000 HD
BRANCH  11  15
ATOM     15  C   UNL     1      52.469   4.004  19.418  0.00  0.00    +0.000 C 
ATOM     16  N   UNL     1      52.758   2.741  18.986  0.00  0.00    +0.000 N 
ATOM     17  O   UNL     1      52.593   4.311  20.597  0.00  0.00    +0.000 OA
ATOM     18  H   UNL     1      52.452   2.368  18.099  0.00  0.00    +0.000 HD
ATOM     19  H   UNL     1      53.006   2.071  19.706  0.00  0.00    +0.000 HD
ENDBRANCH  11  15
ENDBRANCH   4   7
BRANCH   2  20
ATOM     20  C   UNL     1      46.889   6.576  12.540  0.00  0.00    +0.000 A 
ATOM     21  C   UNL     1      46.762   6.618  11.140  0.00  0.00    +0.000 A 
ATOM     22  C   UNL     1      45.765   5.901  10.469  0.00  0.00    +0.000 A 
ATOM     23  C   UNL     1      44.891   5.086  11.183  0.00  0.00    +0.000 A 
ATOM     24  C   UNL     1      44.981   5.062  12.577  0.00  0.00    +0.000 A 
ATOM     25  C   UNL     1      45.968   5.791  13.249  0.00  0.00    +0.000 A 
BRANCH  23  26
ATOM     26  O   UNL     1      43.895   4.320  10.662  0.00  0.00    +0.000 OA
BRANCH  26  27
ATOM     27  C   UNL     1      44.127   2.944  10.399  0.00  0.00    +0.000 C 
ATOM     28  F   UNL     1      43.996   2.593   9.102  0.00  0.00    +0.000 F 
ATOM     29  F   UNL     1      45.391   2.647  10.776  0.00  0.00    +0.000 F 
ATOM     30  F   UNL     1      43.283   2.194  11.142  0.00  0.00    +0.000 F 
ENDBRANCH  26  27
ENDBRANCH  23  26
ENDBRANCH   2  20
TORSDOF 5
ENDMDL
MODEL 5
REMARK VINA RESULT:    -5.647      5.740      7.458
REMARK INTER + INTRA:          -8.110
REMARK INTER:                  -7.339
REMARK INTRA:                  -0.771
REMARK UNBOUND:                -0.812
REMARK  Name = 
REMARK  6 active torsions:
REMARK  status: ('A' for Active; 'I' for Inactive)
REMARK    1  A    between atoms: C_1  and  C_2
REMARK    2  A    between atoms: C_2  and  C_3
REMARK    3  A    between atoms: C_6  and  O_7
REMARK    4  A    between atoms: O_7  and  C_8
REMARK    5  A    between atoms: C_15  and  N_16
REMARK    6  A    between atoms: C_20  and  C_21
REMARK                            x       y       z     vdW  Elec       q    Type
REMARK                         _______ _______ _______ _____ _____    ______ ____
ROOT
ATOM      1  C   UNL     1      47.444   9.468  12.204  0.00  0.00    +0.000 C 
ATOM      2  C   UNL     1      48.105   8.131  12.573  0.00  0.00    +0.000 C 
ATOM      3  C   UNL     1      49.159   7.725  11.536  0.00  0.00    +0.000 C 
ATOM      4  C   UNL     1      50.489   8.215  12.087  0.00  0.00    +0.000 C 
ATOM      5  C   UNL     1      50.160   8.745  13.480  0.00  0.00    +0.000 C 
ATOM      6  O   UNL     1      48.827   8.348  13.800  0.00  0.00    +0.000 OA
ENDROOT
BRANCH   4   7
ATOM      7  N   UNL     1      51.092   9.227  11.221  0.00  0.00    +0.000 N 
ATOM      8  C   UNL     1      52.087   8.720  10.388  0.00  0.00    +0.000 A 
ATOM      9  N   UNL     1      52.034   7.439   9.994  0.00  0.00    +0.000 NA
ATOM     10  C   UNL     1      53.069   6.969   9.266  0.00  0.00    +0.000 A 
ATOM     11  C   UNL     1      54.148   7.736   8.898  0.00  0.00    +0.000 A 
ATOM     12  C   UNL     1      54.114   9.034   9.353  0.00  0.00    +0.000 A 
ATOM     13  N   UNL     1      53.102   9.546  10.097  0.00  0.00    +0.000 NA
ATOM     14  H   UNL     1      51.490  10.042  11.681  0.00  0.00    +0.000 HD
BRANCH  11  15
ATOM     15  C   UNL     1      55.242   7.144   8.122  0.00  0.00    +0.000 C 
ATOM     16  N   UNL     1      55.761   5.953   8.541  0.00  0.00    +0.000 N 
ATOM     17  O   UNL     1      55.700   7.721   7.143  0.00  0.00    +0.000 OA
ATOM     18  H   UNL     1      55.595   5.559   9.456  0.00  0.00    +0.000 HD
ATOM     19  H   UNL     1      56.581   5.624   8.041  0.00  0.00    +0.000 HD
ENDBRANCH  11  15
ENDBRANCH   4   7
BRANCH   2  20
ATOM     20  C   UNL     1      47.058   7.038  12.782  0.00  0.00    +0.000 A 
ATOM     21  C   UNL     1      47.400   5.793  13.337  0.00  0.00    +0.000 A 
ATOM     22  C   UNL     1      46.449   4.782  13.521  0.00  0.00    +0.000 A 
ATOM     23  C   UNL     1      45.116   5.010  13.191  0.00  0.00    +0.000 A 
ATOM     24  C   UNL     1      44.767   6.229  12.604  0.00  0.00    +0.000 A 
ATOM     25  C   UNL     1      45.720   7.233  12.405  0.00  0.00    +0.000 A 
BRANCH  23  26
ATOM     26  O   UNL     1      44.088   4.132  13.337  0.00  0.00    +0.000 OA
BRANCH  26  27
ATOM     27  C   UNL     1      43.666   3.346  12.233  0.00  0.00    +0.000 C 
ATOM     28  F   UNL     1      42.635   3.866  11.536  0.00  0.00    +0.000 F 
ATOM     29  F   UNL     1      44.710   3.217  11.382  0.00  0.00    +0.000 F 
ATOM     30  F   UNL     1      43.325   2.111  12.663  0.00  0.00    +0.000 F 
ENDBRANCH  26  27
ENDBRANCH  23  26
ENDBRANCH   2  20
TORSDOF 5
ENDMDL
MODEL 6
REMARK VINA RESULT:    -5.397      5.679      9.786
REMARK INTER + INTRA:          -7.787
REMARK INTER:                  -8.500
REMARK INTRA:                   0.714
REMARK UNBOUND:                -0.812
REMARK  Name = 
REMARK  6 active torsions:
REMARK  status: ('A' for Active; 'I' for Inactive)
REMARK    1  A    between atoms: C_1  and  C_2
REMARK    2  A    between atoms: C_2  and  C_3
REMARK    3  A    between atoms: C_6  and  O_7
REMARK    4  A    between atoms: O_7  and  C_8
REMARK    5  A    between atoms: C_15  and  N_16
REMARK    6  A    between atoms: C_20  and  C_21
REMARK                            x       y       z     vdW  Elec       q    Type
REMARK                         _______ _______ _______ _____ _____    ______ ____
ROOT
ATOM      1  C   UNL     1      47.893   5.566  12.940  0.00  0.00    +0.000 C 
ATOM      2  C   UNL     1      46.933   4.782  13.847  0.00  0.00    +0.000 C 
ATOM      3  C   UNL     1      45.480   5.224  13.636  0.00  0.00    +0.000 C 
ATOM      4  C   UNL     1      44.891   4.242  12.635  0.00  0.00    +0.000 C 
ATOM      5  C   UNL     1      45.983   3.195  12.433  0.00  0.00    +0.000 C 
ATOM      6  O   UNL     1      46.988   3.407  13.423  0.00  0.00    +0.000 OA
ENDROOT
BRANCH   4   7
ATOM      7  N   UNL     1      44.502   4.906  11.392  0.00  0.00    +0.000 N 
ATOM      8  C   UNL     1      44.955   4.251  10.250  0.00  0.00    +0.000 A 
ATOM      9  N   UNL     1      45.143   2.923  10.277  0.00  0.00    +0.000 NA
ATOM     10  C   UNL     1      45.673   2.347   9.177  0.00  0.00    +0.000 A 
ATOM     11  C   UNL     1      46.006   3.045   8.040  0.00  0.00    +0.000 A 
ATOM     12  C   UNL     1      45.782   4.400   8.112  0.00  0.00    +0.000 A 
ATOM     13  N   UNL     1      45.263   5.023   9.199  0.00  0.00    +0.000 NA
ATOM     14  H   UNL     1      44.773   5.881  11.291  0.00  0.00    +0.000 HD
BRANCH  11  15
ATOM     15  C   UNL     1      46.596   2.347   6.894  0.00  0.00    +0.000 C 
ATOM     16  N   UNL     1      46.799   3.052   5.742  0.00  0.00    +0.000 N 
ATOM     17  O   UNL     1      46.868   1.154   6.959  0.00  0.00    +0.000 OA
ATOM     18  H   UNL     1      46.380   3.951   5.554  0.00  0.00    +0.000 HD
ATOM     19  H   UNL     1      47.113   2.514   4.941  0.00  0.00    +0.000 HD
ENDBRANCH  11  15
ENDBRANCH   4   7
BRANCH   2  20
ATOM     20  C   UNL     1      47.354   4.883  15.312  0.00  0.00    +0.000 A 
ATOM     21  C   UNL     1      48.298   5.834  15.739  0.00  0.00    +0.000 A 
ATOM     22  C   UNL     1      48.698   5.926  17.077  0.00  0.00    +0.000 A 
ATOM     23  C   UNL     1      48.127   5.092  18.034  0.00  0.00    +0.000 A 
ATOM     24  C   UNL     1      47.215   4.118  17.621  0.00  0.00    +0.000 A 
ATOM     25  C   UNL     1      46.827   4.015  16.281  0.00  0.00    +0.000 A 
BRANCH  23  26
ATOM     26  O   UNL     1      48.401   5.088  19.367  0.00  0.00    +0.000 OA
BRANCH  26  27
ATOM     27  C   UNL     1      47.886   6.117  20.198  0.00  0.00    +0.000 C 
ATOM     28  F   UNL     1      48.828   6.867  20.808  0.00  0.00    +0.000 F 
ATOM     29  F   UNL     1      47.138   6.944  19.433  0.00  0.00    +0.000 F 
ATOM     30  F   UNL     1      47.080   5.577  21.138  0.00  0.00    +0.000 F 
ENDBRANCH  26  27
ENDBRANCH  23  26
ENDBRANCH   2  20
TORSDOF 5
ENDMDL
MODEL 7
REMARK VINA RESULT:    -5.036      3.719      4.535
REMARK INTER + INTRA:          -7.320
REMARK INTER:                  -6.429
REMARK INTRA:                  -0.890
REMARK UNBOUND:                -0.812
REMARK  Name = 
REMARK  6 active torsions:
REMARK  status: ('A' for Active; 'I' for Inactive)
REMARK    1  A    between atoms: C_1  and  C_2
REMARK    2  A    between atoms: C_2  and  C_3
REMARK    3  A    between atoms: C_6  and  O_7
REMARK    4  A    between atoms: O_7  and  C_8
REMARK    5  A    between atoms: C_15  and  N_16
REMARK    6  A    between atoms: C_20  and  C_21
REMARK                            x       y       z     vdW  Elec       q    Type
REMARK                         _______ _______ _______ _____ _____    ______ ____
ROOT
ATOM      1  C   UNL     1      48.774   8.485  12.315  0.00  0.00    +0.000 C 
ATOM      2  C   UNL     1      48.160   7.700  13.484  0.00  0.00    +0.000 C 
ATOM      3  C   UNL     1      49.242   7.181  14.438  0.00  0.00    +0.000 C 
ATOM      4  C   UNL     1      49.342   8.213  15.549  0.00  0.00    +0.000 C 
ATOM      5  C   UNL     1      48.211   9.199  15.265  0.00  0.00    +0.000 C 
ATOM      6  O   UNL     1      47.380   8.636  14.251  0.00  0.00    +0.000 OA
ENDROOT
BRANCH   4   7
ATOM      7  N   UNL     1      50.658   8.850  15.578  0.00  0.00    +0.000 N 
ATOM      8  C   UNL     1      51.338   8.659  16.779  0.00  0.00    +0.000 A 
ATOM      9  N   UNL     1      51.105   7.556  17.506  0.00  0.00    +0.000 NA
ATOM     10  C   UNL     1      51.717   7.461  18.705  0.00  0.00    +0.000 A 
ATOM     11  C   UNL     1      52.569   8.418  19.201  0.00  0.00    +0.000 A 
ATOM     12  C   UNL     1      52.740   9.513  18.386  0.00  0.00    +0.000 A 
ATOM     13  N   UNL     1      52.138   9.658  17.179  0.00  0.00    +0.000 NA
ATOM     14  H   UNL     1      50.686   9.848  15.388  0.00  0.00    +0.000 HD
BRANCH  11  15
ATOM     15  C   UNL     1      53.178   8.248  20.524  0.00  0.00    +0.000 C 
ATOM     16  N   UNL     1      53.714   9.346  21.135  0.00  0.00    +0.000 N 
ATOM     17  O   UNL     1      53.234   7.144  21.050  0.00  0.00    +0.000 OA
ATOM     18  H   UNL     1      53.911  10.213  20.657  0.00  0.00    +0.000 HD
ATOM     19  H   UNL     1      54.214   9.173  22.000  0.00  0.00    +0.000 HD
ENDBRANCH  11  15
ENDBRANCH   4   7
BRANCH   2  20
ATOM     20  C   UNL     1      47.257   6.576  12.978  0.00  0.00    +0.000 A 
ATOM     21  C   UNL     1      47.077   5.393  13.717  0.00  0.00    +0.000 A 
ATOM     22  C   UNL     1      46.260   4.353  13.255  0.00  0.00    +0.000 A 
ATOM     23  C   UNL     1      45.568   4.490  12.056  0.00  0.00    +0.000 A 
ATOM     24  C   UNL     1      45.766   5.644  11.292  0.00  0.00    +0.000 A 
ATOM     25  C   UNL     1      46.594   6.676  11.746  0.00  0.00    +0.000 A 
BRANCH  23  26
ATOM     26  O   UNL     1      44.727   3.577  11.501  0.00  0.00    +0.000 OA
BRANCH  26  27
ATOM     27  C   UNL     1      43.382   3.492  11.946  0.00  0.00    +0.000 C 
ATOM     28  F   UNL     1      43.202   3.803  13.247  0.00  0.00    +0.000 F 
ATOM     29  F   UNL     1      42.638   4.353  11.215  0.00  0.00    +0.000 F 
ATOM     30  F   UNL     1      42.911   2.245  11.726  0.00  0.00    +0.000 F 
ENDBRANCH  26  27
ENDBRANCH  23  26
ENDBRANCH   2  20
TORSDOF 5
ENDMDL
MODEL 8
REMARK VINA RESULT:    -4.989      6.062      9.968
REMARK INTER + INTRA:          -7.259
REMARK INTER:                  -7.263
REMARK INTRA:                   0.004
REMARK UNBOUND:                -0.812
REMARK  Name = 
REMARK  6 active torsions:
REMARK  status: ('A' for Active; 'I' for Inactive)
REMARK    1  A    between atoms: C_1  and  C_2
REMARK    2  A    between atoms: C_2  and  C_3
REMARK    3  A    between atoms: C_6  and  O_7
REMARK    4  A    between atoms: O_7  and  C_8
REMARK    5  A    between atoms: C_15  and  N_16
REMARK    6  A    between atoms: C_20  and  C_21
REMARK                            x       y       z     vdW  Elec       q    Type
REMARK                         _______ _______ _______ _____ _____    ______ ____
ROOT
ATOM      1  C   UNL     1      49.095   7.408  12.571  0.00  0.00    +0.000 C 
ATOM      2  C   UNL     1      48.051   7.250  13.688  0.00  0.00    +0.000 C 
ATOM      3  C   UNL     1      46.688   7.806  13.260  0.00  0.00    +0.000 C 
ATOM      4  C   UNL     1      45.902   6.614  12.739  0.00  0.00    +0.000 C 
ATOM      5  C   UNL     1      46.790   5.407  13.031  0.00  0.00    +0.000 C 
ATOM      6  O   UNL     1      47.854   5.836  13.877  0.00  0.00    +0.000 OA
ENDROOT
BRANCH   4   7
ATOM      7  N   UNL     1      45.582   6.755  11.318  0.00  0.00    +0.000 N 
ATOM      8  C   UNL     1      45.425   5.537  10.663  0.00  0.00    +0.000 A 
ATOM      9  N   UNL     1      44.998   4.465  11.348  0.00  0.00    +0.000 NA
ATOM     10  C   UNL     1      44.951   3.286  10.692  0.00  0.00    +0.000 A 
ATOM     11  C   UNL     1      45.297   3.138   9.370  0.00  0.00    +0.000 A 
ATOM     12  C   UNL     1      45.726   4.292   8.756  0.00  0.00    +0.000 A 
ATOM     13  N   UNL     1      45.801   5.495   9.377  0.00  0.00    +0.000 NA
ATOM     14  H   UNL     1      46.231   7.302  10.758  0.00  0.00    +0.000 HD
BRANCH  11  15
ATOM     15  C   UNL     1      45.237   1.818   8.736  0.00  0.00    +0.000 C 
ATOM     16  N   UNL     1      46.287   1.427   7.955  0.00  0.00    +0.000 N 
ATOM     17  O   UNL     1      44.255   1.100   8.876  0.00  0.00    +0.000 OA
ATOM     18  H   UNL     1      46.997   2.059   7.613  0.00  0.00    +0.000 HD
ATOM     19  H   UNL     1      46.168   0.554   7.453  0.00  0.00    +0.000 HD
ENDBRANCH  11  15
ENDBRANCH   4   7
BRANCH   2  20
ATOM     20  C   UNL     1      48.541   7.878  14.991  0.00  0.00    +0.000 A 
ATOM     21  C   UNL     1      49.148   7.103  15.995  0.00  0.00    +0.000 A 
ATOM     22  C   UNL     1      49.590   7.669  17.197  0.00  0.00    +0.000 A 
ATOM     23  C   UNL     1      49.471   9.040  17.408  0.00  0.00    +0.000 A 
ATOM     24  C   UNL     1      48.836   9.818  16.436  0.00  0.00    +0.000 A 
ATOM     25  C   UNL     1      48.381   9.249  15.241  0.00  0.00    +0.000 A 
BRANCH  23  26
ATOM     26  O   UNL     1      49.875   9.724  18.511  0.00  0.00    +0.000 OA
BRANCH  26  27
ATOM     27  C   UNL     1      49.106   9.663  19.703  0.00  0.00    +0.000 C 
ATOM     28  F   UNL     1      47.778   9.812  19.520  0.00  0.00    +0.000 F 
ATOM     29  F   UNL     1      49.306   8.453  20.274  0.00  0.00    +0.000 F 
ATOM     30  F   UNL     1      49.538  10.607  20.568  0.00  0.00    +0.000 F 
ENDBRANCH  26  27
ENDBRANCH  23  26
ENDBRANCH   2  20
TORSDOF 5
ENDMDL
MODEL 9
REMARK VINA RESULT:    -4.714     11.104     12.297
REMARK INTER + INTRA:          -6.903
REMARK INTER:                  -6.183
REMARK INTRA:                  -0.720
REMARK UNBOUND:                -0.812
REMARK  Name = 
REMARK  6 active torsions:
REMARK  status: ('A' for Active; 'I' for Inactive)
REMARK    1  A    between atoms: C_1  and  C_2
REMARK    2  A    between atoms: C_2  and  C_3
REMARK    3  A    between atoms: C_6  and  O_7
REMARK    4  A    between atoms: O_7  and  C_8
REMARK    5  A    between atoms: C_15  and  N_16
REMARK    6  A    between atoms: C_20  and  C_21
REMARK                            x       y       z     vdW  Elec       q    Type
REMARK                         _______ _______ _______ _____ _____    ______ ____
ROOT
ATOM      1  C   UNL     1      37.911  -3.167  15.672  0.00  0.00    +0.000 C 
ATOM      2  C   UNL     1      39.061  -2.177  15.916  0.00  0.00    +0.000 C 
ATOM      3  C   UNL     1      40.122  -2.775  16.848  0.00  0.00    +0.000 C 
ATOM      4  C   UNL     1      41.190  -3.358  15.935  0.00  0.00    +0.000 C 
ATOM      5  C   UNL     1      40.769  -2.937  14.529  0.00  0.00    +0.000 C 
ATOM      6  O   UNL     1      39.718  -1.981  14.651  0.00  0.00    +0.000 OA
ENDROOT
BRANCH   4   7
ATOM      7  N   UNL     1      41.297  -4.809  16.087  0.00  0.00    +0.000 N 
ATOM      8  C   UNL     1      42.443  -5.209  16.769  0.00  0.00    +0.000 A 
ATOM      9  N   UNL     1      42.994  -4.392  17.679  0.00  0.00    +0.000 NA
ATOM     10  C   UNL     1      44.156  -4.785  18.244  0.00  0.00    +0.000 A 
ATOM     11  C   UNL     1      44.780  -5.973  17.950  0.00  0.00    +0.000 A 
ATOM     12  C   UNL     1      44.142  -6.739  17.002  0.00  0.00    +0.000 A 
ATOM     13  N   UNL     1      42.981  -6.380  16.399  0.00  0.00    +0.000 NA
ATOM     14  H   UNL     1      41.263  -5.359  15.233  0.00  0.00    +0.000 HD
BRANCH  11  15
ATOM     15  C   UNL     1      46.052  -6.316  18.595  0.00  0.00    +0.000 C 
ATOM     16  N   UNL     1      46.019  -7.089  19.720  0.00  0.00    +0.000 N 
ATOM     17  O   UNL     1      47.112  -5.891  18.153  0.00  0.00    +0.000 OA
ATOM     18  H   UNL     1      45.181  -7.261  20.257  0.00  0.00    +0.000 HD
ATOM     19  H   UNL     1      46.905  -7.222  20.194  0.00  0.00    +0.000 HD
ENDBRANCH  11  15
ENDBRANCH   4   7
BRANCH   2  20
ATOM     20  C   UNL     1      38.535  -0.840  16.434  0.00  0.00    +0.000 A 
ATOM     21  C   UNL     1      37.860   0.059  15.588  0.00  0.00    +0.000 A 
ATOM     22  C   UNL     1      37.385   1.292  16.052  0.00  0.00    +0.000 A 
ATOM     23  C   UNL     1      37.537   1.639  17.391  0.00  0.00    +0.000 A 
ATOM     24  C   UNL     1      38.237   0.773  18.236  0.00  0.00    +0.000 A 
ATOM     25  C   UNL     1      38.726  -0.452  17.769  0.00  0.00    +0.000 A 
BRANCH  23  26
ATOM     26  O   UNL     1      37.106   2.786  17.981  0.00  0.00    +0.000 OA
BRANCH  26  27
ATOM     27  C   UNL     1      37.988   3.892  18.103  0.00  0.00    +0.000 C 
ATOM     28  F   UNL     1      39.205   3.586  18.599  0.00  0.00    +0.000 F 
ATOM     29  F   UNL     1      38.171   4.426  16.874  0.00  0.00    +0.000 F 
ATOM     30  F   UNL     1      37.422   4.836  18.888  0.00  0.00    +0.000 F 
ENDBRANCH  26  27
ENDBRANCH  23  26
ENDBRANCH   2  20
TORSDOF 5
ENDMDL
