MODEL 1
REMARK VINA RESULT:    -7.170      0.000      0.000
REMARK INTER + INTRA:         -10.689
REMARK INTER:                  -9.685
REMARK INTRA:                  -1.004
REMARK UNBOUND:                -1.004
REMARK  Name = 
REMARK  7 active torsions:
REMARK  status: ('A' for Active; 'I' for Inactive)
REMARK    1  A    between atoms: C_1  and  O_2
REMARK    2  A    between atoms: O_2  and  C_3
REMARK    3  A    between atoms: N_10  and  C_11
REMARK    4  A    between atoms: C_11  and  C_12
REMARK    5  A    between atoms: C_15  and  C_16
REMARK    6  A    between atoms: C_16  and  N_17
REMARK    7  A    between atoms: C_18  and  C_20
REMARK                            x       y       z     vdW  Elec       q    Type
REMARK                         _______ _______ _______ _____ _____    ______ ____
ROOT
ATOM      1  C   UNL     1      47.397   5.673  14.395  0.00  0.00    +0.000 A 
ATOM      2  C   UNL     1      48.311   6.372  15.169  0.00  0.00    +0.000 A 
ATOM      3  C   UNL     1      48.651   5.876  16.412  0.00  0.00    +0.000 A 
ATOM      4  C   UNL     1      48.063   4.694  16.892  0.00  0.00    +0.000 A 
ATOM      5  C   UNL     1      47.125   4.062  16.052  0.00  0.00    +0.000 A 
ATOM      6  N   UNL     1      46.798   4.523  14.817  0.00  0.00    +0.000 NA
ENDROOT
BRANCH   1   7
ATOM      7  C   UNL     1      46.964   6.284  13.085  0.00  0.00    +0.000 C 
BRANCH   7  15
ATOM      8  C   UNL     1      44.834   3.311  10.427  0.00  0.00    +0.000 A 
ATOM      9  C   UNL     1      44.664   2.703   9.194  0.00  0.00    +0.000 A 
ATOM     10  C   UNL     1      45.063   3.606   8.197  0.00  0.00    +0.000 A 
ATOM     11  C   UNL     1      45.448   4.760   8.833  0.00  0.00    +0.000 A 
ATOM     12  N   UNL     1      45.295   4.615  10.215  0.00  0.00    +0.000 N 
ATOM     13  C   UNL     1      45.615   5.636  11.154  0.00  0.00    +0.000 C 
ATOM     14  O   UNL     1      45.039   6.716  11.103  0.00  0.00    +0.000 OA
ATOM     15  N   UNL     1      46.576   5.314  12.081  0.00  0.00    +0.000 N 
ATOM     16  H   UNL     1      46.976   4.381  12.142  0.00  0.00    +0.000 HD
BRANCH   8  18
ATOM     17  C   UNL     1      43.332   3.102  12.183  0.00  0.00    +0.000 C 
ATOM     18  O   UNL     1      44.634   2.832  11.659  0.00  0.00    +0.000 OA
ENDBRANCH   8  18
ENDBRANCH   7  15
ENDBRANCH   1   7
BRANCH   4  19
ATOM     19  C   UNL     1      48.441   4.122  18.250  0.00  0.00    +0.000 C 
BRANCH  19  20
ATOM     20  N   UNL     1      49.844   3.632  18.379  0.00  0.00    +0.000 N 
ATOM     21  C   UNL     1      50.872   4.412  18.937  0.00  0.00    +0.000 C 
ATOM     22  O   UNL     1      50.617   5.542  19.338  0.00  0.00    +0.000 OA
ATOM     23  H   UNL     1      50.054   2.688  18.100  0.00  0.00    +0.000 HD
BRANCH  21  24
ATOM     24  C   UNL     1      52.289   3.814  18.911  0.00  0.00    +0.000 A 
ATOM     25  C   UNL     1      53.338   4.542  19.507  0.00  0.00    +0.000 A 
ATOM     26  S   UNL     1      54.833   3.675  19.568  0.00  0.00    +0.000 S 
ATOM     27  C   UNL     1      54.220   2.263  18.845  0.00  0.00    +0.000 A 
ATOM     28  N   UNL     1      54.898   1.024  18.717  0.00  0.00    +0.000 NA
ATOM     29  C   UNL     1      54.016   0.553  17.943  0.00  0.00    +0.000 A 
ATOM     30  N   UNL     1      53.226   0.009  17.085  0.00  0.00    +0.000 N 
ATOM     31  C   UNL     1      52.357   1.082  17.463  0.00  0.00    +0.000 A 
ATOM     32  O   UNL     1      51.145   0.980  17.365  0.00  0.00    +0.000 OA
ATOM     33  C   UNL     1      52.896   2.460  18.346  0.00  0.00    +0.000 A 
ATOM     34  H   UNL     1      53.827  -0.911  17.254  0.00  0.00    +0.000 HD
ENDBRANCH  21  24
ENDBRANCH  19  20
ENDBRANCH   4  19
TORSDOF 6
ENDMDL
MODEL 2
REMARK VINA RESULT:    -7.136      3.486      4.802
REMARK INTER + INTRA:         -10.644
REMARK INTER:                  -9.800
REMARK INTRA:                  -0.843
REMARK UNBOUND:                -1.004
REMARK  Name = 
REMARK  7 active torsions:
REMARK  status: ('A' for Active; 'I' for Inactive)
REMARK    1  A    between atoms: C_1  and  O_2
REMARK    2  A    between atoms: O_2  and  C_3
REMARK    3  A    between atoms: N_10  and  C_11
REMARK    4  A    between atoms: C_11  and  C_12
REMARK    5  A    between atoms: C_15  and  C_16
REMARK    6  A    between atoms: C_16  and  N_17
REMARK    7  A    between atoms: C_18  and  C_20
REMARK                            x       y       z     vdW  Elec       q    Type
REMARK                         _______ _______ _______ _____ _____    ______ ____
ROOT
ATOM      1  C   UNL     1      45.359   4.777  11.730  0.00  0.00    +0.000 A 
ATOM      2  C   UNL     1      45.987   4.491  12.933  0.00  0.00    +0.000 A 
ATOM      3  C   UNL     1      46.601   5.516  13.626  0.00  0.00    +0.000 A 
ATOM      4  C   UNL     1      46.608   6.822  13.107  0.00  0.00    +0.000 A 
ATOM      5  C   UNL     1      45.970   7.018  11.866  0.00  0.00    +0.000 A 
ATOM      6  N   UNL     1      45.341   6.026  11.184  0.00  0.00    +0.000 NA
ENDROOT
BRANCH   1   7
ATOM      7  C   UNL     1      44.783   3.626  10.942  0.00  0.00    +0.000 C 
BRANCH   7  15
ATOM      8  C   UNL     1      46.617   1.600   7.340  0.00  0.00    +0.000 A 
ATOM      9  C   UNL     1      47.458   1.629   6.239  0.00  0.00    +0.000 A 
ATOM     10  C   UNL     1      47.545   2.954   5.784  0.00  0.00    +0.000 A 
ATOM     11  C   UNL     1      46.737   3.710   6.597  0.00  0.00    +0.000 A 
ATOM     12  N   UNL     1      46.131   2.894   7.557  0.00  0.00    +0.000 N 
ATOM     13  C   UNL     1      45.240   3.381   8.554  0.00  0.00    +0.000 C 
ATOM     14  O   UNL     1      44.198   3.936   8.224  0.00  0.00    +0.000 OA
ATOM     15  N   UNL     1      45.628   3.174   9.855  0.00  0.00    +0.000 N 
ATOM     16  H   UNL     1      46.461   2.640  10.091  0.00  0.00    +0.000 HD
BRANCH   8  18
ATOM     17  C   UNL     1      46.561  -0.707   7.584  0.00  0.00    +0.000 C 
ATOM     18  O   UNL     1      46.269   0.580   8.131  0.00  0.00    +0.000 OA
ENDBRANCH   8  18
ENDBRANCH   7  15
ENDBRANCH   1   7
BRANCH   4  19
ATOM     19  C   UNL     1      47.262   7.966  13.866  0.00  0.00    +0.000 C 
BRANCH  19  20
ATOM     20  N   UNL     1      47.908   7.600  15.159  0.00  0.00    +0.000 N 
ATOM     21  C   UNL     1      49.233   7.136  15.243  0.00  0.00    +0.000 C 
ATOM     22  O   UNL     1      49.894   7.024  14.216  0.00  0.00    +0.000 OA
ATOM     23  H   UNL     1      47.393   7.736  16.013  0.00  0.00    +0.000 HD
BRANCH  21  24
ATOM     24  C   UNL     1      49.731   6.700  16.631  0.00  0.00    +0.000 A 
ATOM     25  C   UNL     1      50.799   7.409  17.216  0.00  0.00    +0.000 A 
ATOM     26  S   UNL     1      51.134   6.934  18.845  0.00  0.00    +0.000 S 
ATOM     27  C   UNL     1      49.886   5.781  18.927  0.00  0.00    +0.000 A 
ATOM     28  N   UNL     1      49.464   5.082  20.086  0.00  0.00    +0.000 NA
ATOM     29  C   UNL     1      48.732   4.296  19.419  0.00  0.00    +0.000 A 
ATOM     30  N   UNL     1      48.027   3.393  18.833  0.00  0.00    +0.000 N 
ATOM     31  C   UNL     1      48.145   4.274  17.711  0.00  0.00    +0.000 A 
ATOM     32  O   UNL     1      47.305   4.289  16.827  0.00  0.00    +0.000 OA
ATOM     33  C   UNL     1      49.283   5.568  17.649  0.00  0.00    +0.000 A 
ATOM     34  H   UNL     1      47.715   3.102  19.860  0.00  0.00    +0.000 HD
ENDBRANCH  21  24
ENDBRANCH  19  20
ENDBRANCH   4  19
TORSDOF 6
ENDMDL
MODEL 3
REMARK VINA RESULT:    -6.888      4.106      6.010
REMARK INTER + INTRA:         -10.308
REMARK INTER:                  -9.345
REMARK INTRA:                  -0.963
REMARK UNBOUND:                -1.004
REMARK  Name = 
REMARK  7 active torsions:
REMARK  status: ('A' for Active; 'I' for Inactive)
REMARK    1  A    between atoms: C_1  and  O_2
REMARK    2  A    between atoms: O_2  and  C_3
REMARK    3  A    between atoms: N_10  and  C_11
REMARK    4  A    between atoms: C_11  and  C_12
REMARK    5  A    between atoms: C_15  and  C_16
REMARK    6  A    between atoms: C_16  and  N_17
REMARK    7  A    between atoms: C_18  and  C_20
REMARK                            x       y       z     vdW  Elec       q    Type
REMARK                         _______ _______ _______ _____ _____    ______ ____
ROOT
ATOM      1  C   UNL     1      44.675   4.733  11.537  0.00  0.00    +0.000 A 
ATOM      2  C   UNL     1      45.769   4.883  12.375  0.00  0.00    +0.000 A 
ATOM      3  C   UNL     1      46.071   6.139  12.862  0.00  0.00    +0.000 A 
ATOM      4  C   UNL     1      45.294   7.251  12.494  0.00  0.00    +0.000 A 
ATOM      5  C   UNL     1      44.217   7.013  11.617  0.00  0.00    +0.000 A 
ATOM      6  N   UNL     1      43.893   5.780  11.149  0.00  0.00    +0.000 NA
ENDROOT
BRANCH   1   7
ATOM      7  C   UNL     1      44.424   3.371  10.937  0.00  0.00    +0.000 C 
BRANCH   7  15
ATOM      8  C   UNL     1      46.725   1.531   7.507  0.00  0.00    +0.000 A 
ATOM      9  C   UNL     1      47.711   1.611   6.537  0.00  0.00    +0.000 A 
ATOM     10  C   UNL     1      47.872   2.958   6.180  0.00  0.00    +0.000 A 
ATOM     11  C   UNL     1      46.965   3.679   6.919  0.00  0.00    +0.000 A 
ATOM     12  N   UNL     1      46.224   2.819   7.734  0.00  0.00    +0.000 N 
ATOM     13  C   UNL     1      45.207   3.260   8.625  0.00  0.00    +0.000 C 
ATOM     14  O   UNL     1      44.227   3.852   8.189  0.00  0.00    +0.000 OA
ATOM     15  N   UNL     1      45.409   2.970   9.952  0.00  0.00    +0.000 N 
ATOM     16  H   UNL     1      46.195   2.409  10.269  0.00  0.00    +0.000 HD
BRANCH   8  18
ATOM     17  C   UNL     1      46.492  -0.777   7.526  0.00  0.00    +0.000 C 
ATOM     18  O   UNL     1      46.260   0.472   8.179  0.00  0.00    +0.000 OA
ENDBRANCH   8  18
ENDBRANCH   7  15
ENDBRANCH   1   7
BRANCH   4  19
ATOM     19  C   UNL     1      45.599   8.638  13.036  0.00  0.00    +0.000 C 
BRANCH  19  20
ATOM     20  N   UNL     1      46.801   8.741  13.914  0.00  0.00    +0.000 N 
ATOM     21  C   UNL     1      48.043   9.208  13.450  0.00  0.00    +0.000 C 
ATOM     22  O   UNL     1      48.155   9.549  12.277  0.00  0.00    +0.000 OA
ATOM     23  H   UNL     1      46.709   8.513  14.890  0.00  0.00    +0.000 HD
BRANCH  21  24
ATOM     24  C   UNL     1      49.217   9.163  14.442  0.00  0.00    +0.000 A 
ATOM     25  C   UNL     1      50.041  10.300  14.564  0.00  0.00    +0.000 A 
ATOM     26  S   UNL     1      51.203  10.178  15.839  0.00  0.00    +0.000 S 
ATOM     27  C   UNL     1      50.702   8.637  16.355  0.00  0.00    +0.000 A 
ATOM     28  N   UNL     1      51.144   7.957  17.518  0.00  0.00    +0.000 NA
ATOM     29  C   UNL     1      50.588   6.876  17.170  0.00  0.00    +0.000 A 
ATOM     30  N   UNL     1      50.137   5.708  16.873  0.00  0.00    +0.000 N 
ATOM     31  C   UNL     1      49.392   6.436  15.891  0.00  0.00    +0.000 A 
ATOM     32  O   UNL     1      48.329   6.016  15.463  0.00  0.00    +0.000 OA
ATOM     33  C   UNL     1      49.755   8.063  15.452  0.00  0.00    +0.000 A 
ATOM     34  H   UNL     1      50.444   5.429  17.905  0.00  0.00    +0.000 HD
ENDBRANCH  21  24
ENDBRANCH  19  20
ENDBRANCH   4  19
TORSDOF 6
ENDMDL
MODEL 4
REMARK VINA RESULT:    -6.500      6.384      8.556
REMARK INTER + INTRA:          -9.783
REMARK INTER:                  -8.765
REMARK INTRA:                  -1.018
REMARK UNBOUND:                -1.004
REMARK  Name = 
REMARK  7 active torsions:
REMARK  status: ('A' for Active; 'I' for Inactive)
REMARK    1  A    between atoms: C_1  and  O_2
REMARK    2  A    between atoms: O_2  and  C_3
REMARK    3  A    between atoms: N_10  and  C_11
REMARK    4  A    between atoms: C_11  and  C_12
REMARK    5  A    between atoms: C_15  and  C_16
REMARK    6  A    between atoms: C_16  and  N_17
REMARK    7  A    between atoms: C_18  and  C_20
REMARK                            x       y       z     vdW  Elec       q    Type
REMARK                         _______ _______ _______ _____ _____    ______ ____
ROOT
ATOM      1  C   UNL     1      49.004   7.033  13.628  0.00  0.00    +0.000 A 
ATOM      2  C   UNL     1      48.925   7.199  12.254  0.00  0.00    +0.000 A 
ATOM      3  C   UNL     1      49.956   7.841  11.598  0.00  0.00    +0.000 A 
ATOM      4  C   UNL     1      51.057   8.338  12.316  0.00  0.00    +0.000 A 
ATOM      5  C   UNL     1      51.043   8.150  13.713  0.00  0.00    +0.000 A 
ATOM      6  N   UNL     1      50.048   7.499  14.370  0.00  0.00    +0.000 NA
ENDROOT
BRANCH   1   7
ATOM      7  C   UNL     1      47.821   6.420  14.336  0.00  0.00    +0.000 C 
BRANCH   7  15
ATOM      8  C   UNL     1      44.559   5.536  11.332  0.00  0.00    +0.000 A 
ATOM      9  C   UNL     1      43.217   5.472  10.994  0.00  0.00    +0.000 A 
ATOM     10  C   UNL     1      42.479   5.229  12.162  0.00  0.00    +0.000 A 
ATOM     11  C   UNL     1      43.381   5.124  13.192  0.00  0.00    +0.000 A 
ATOM     12  N   UNL     1      44.681   5.287  12.704  0.00  0.00    +0.000 N 
ATOM     13  C   UNL     1      45.842   5.238  13.525  0.00  0.00    +0.000 C 
ATOM     14  O   UNL     1      46.101   4.222  14.158  0.00  0.00    +0.000 OA
ATOM     15  N   UNL     1      46.613   6.375  13.537  0.00  0.00    +0.000 N 
ATOM     16  H   UNL     1      46.410   7.171  12.938  0.00  0.00    +0.000 HD
BRANCH   8  18
ATOM     17  C   UNL     1      45.651   5.065   9.340  0.00  0.00    +0.000 C 
ATOM     18  O   UNL     1      45.628   5.791  10.570  0.00  0.00    +0.000 OA
ENDBRANCH   8  18
ENDBRANCH   7  15
ENDBRANCH   1   7
BRANCH   4  19
ATOM     19  C   UNL     1      52.211   9.030  11.608  0.00  0.00    +0.000 C 
BRANCH  19  20
ATOM     20  N   UNL     1      52.558   8.495  10.260  0.00  0.00    +0.000 N 
ATOM     21  C   UNL     1      52.741   9.322   9.138  0.00  0.00    +0.000 C 
ATOM     22  O   UNL     1      52.614  10.536   9.262  0.00  0.00    +0.000 OA
ATOM     23  H   UNL     1      52.715   7.506  10.157  0.00  0.00    +0.000 HD
BRANCH  21  24
ATOM     24  C   UNL     1      52.995   8.623   7.792  0.00  0.00    +0.000 A 
ATOM     25  C   UNL     1      53.004   9.403   6.619  0.00  0.00    +0.000 A 
ATOM     26  S   UNL     1      53.480   8.523   5.208  0.00  0.00    +0.000 S 
ATOM     27  C   UNL     1      53.744   7.055   6.025  0.00  0.00    +0.000 A 
ATOM     28  N   UNL     1      54.324   5.883   5.478  0.00  0.00    +0.000 NA
ATOM     29  C   UNL     1      54.013   5.186   6.487  0.00  0.00    +0.000 A 
ATOM     30  N   UNL     1      53.672   4.369   7.420  0.00  0.00    +0.000 N 
ATOM     31  C   UNL     1      53.401   5.576   8.140  0.00  0.00    +0.000 A 
ATOM     32  O   UNL     1      53.442   5.610   9.359  0.00  0.00    +0.000 OA
ATOM     33  C   UNL     1      53.291   7.119   7.379  0.00  0.00    +0.000 A 
ATOM     34  H   UNL     1      54.313   3.635   6.885  0.00  0.00    +0.000 HD
ENDBRANCH  21  24
ENDBRANCH  19  20
ENDBRANCH   4  19
TORSDOF 6
ENDMDL
MODEL 5
REMARK VINA RESULT:    -6.442      1.377      1.660
REMARK INTER + INTRA:          -9.705
REMARK INTER:                  -8.931
REMARK INTRA:                  -0.774
REMARK UNBOUND:                -1.004
REMARK  Name = 
REMARK  7 active torsions:
REMARK  status: ('A' for Active; 'I' for Inactive)
REMARK    1  A    between atoms: C_1  and  O_2
REMARK    2  A    between atoms: O_2  and  C_3
REMARK    3  A    between atoms: N_10  and  C_11
REMARK    4  A    between atoms: C_11  and  C_12
REMARK    5  A    between atoms: C_15  and  C_16
REMARK    6  A    between atoms: C_16  and  N_17
REMARK    7  A    between atoms: C_18  and  C_20
REMARK                            x       y       z     vdW  Elec       q    Type
REMARK                         _______ _______ _______ _____ _____    ______ ____
ROOT
ATOM      1  C   UNL     1      47.952   7.448  13.848  0.00  0.00    +0.000 A 
ATOM      2  C   UNL     1      48.196   8.617  14.553  0.00  0.00    +0.000 A 
ATOM      3  C   UNL     1      48.698   8.531  15.836  0.00  0.00    +0.000 A 
ATOM      4  C   UNL     1      48.936   7.277  16.425  0.00  0.00    +0.000 A 
ATOM      5  C   UNL     1      48.635   6.141  15.648  0.00  0.00    +0.000 A 
ATOM      6  N   UNL     1      48.164   6.209  14.375  0.00  0.00    +0.000 NA
ENDROOT
BRANCH   1   7
ATOM      7  C   UNL     1      47.310   7.563  12.487  0.00  0.00    +0.000 C 
BRANCH   7  15
ATOM      8  C   UNL     1      44.921   3.835  11.570  0.00  0.00    +0.000 A 
ATOM      9  C   UNL     1      44.503   2.861  10.677  0.00  0.00    +0.000 A 
ATOM     10  C   UNL     1      44.511   3.411   9.386  0.00  0.00    +0.000 A 
ATOM     11  C   UNL     1      44.910   4.719   9.512  0.00  0.00    +0.000 A 
ATOM     12  N   UNL     1      45.150   5.017  10.856  0.00  0.00    +0.000 N 
ATOM     13  C   UNL     1      45.583   6.293  11.315  0.00  0.00    +0.000 C 
ATOM     14  O   UNL     1      44.889   7.282  11.116  0.00  0.00    +0.000 OA
ATOM     15  N   UNL     1      46.787   6.312  11.975  0.00  0.00    +0.000 N 
ATOM     16  H   UNL     1      47.299   5.460  12.190  0.00  0.00    +0.000 HD
BRANCH   8  18
ATOM     17  C   UNL     1      46.396   3.254  13.264  0.00  0.00    +0.000 C 
ATOM     18  O   UNL     1      45.116   3.767  12.891  0.00  0.00    +0.000 OA
ENDBRANCH   8  18
ENDBRANCH   7  15
ENDBRANCH   1   7
BRANCH   4  19
ATOM     19  C   UNL     1      49.508   7.164  17.830  0.00  0.00    +0.000 C 
BRANCH  19  20
ATOM     20  N   UNL     1      50.695   6.272  17.975  0.00  0.00    +0.000 N 
ATOM     21  C   UNL     1      50.609   4.972  18.503  0.00  0.00    +0.000 C 
ATOM     22  O   UNL     1      49.518   4.542  18.862  0.00  0.00    +0.000 OA
ATOM     23  H   UNL     1      51.586   6.594  17.637  0.00  0.00    +0.000 HD
BRANCH  21  24
ATOM     24  C   UNL     1      51.930   4.207  18.687  0.00  0.00    +0.000 A 
ATOM     25  C   UNL     1      52.977   4.832  19.393  0.00  0.00    +0.000 A 
ATOM     26  S   UNL     1      54.332   3.796  19.682  0.00  0.00    +0.000 S 
ATOM     27  C   UNL     1      53.643   2.434  18.932  0.00  0.00    +0.000 A 
ATOM     28  N   UNL     1      54.171   1.117  18.937  0.00  0.00    +0.000 NA
ATOM     29  C   UNL     1      53.342   0.718  18.069  0.00  0.00    +0.000 A 
ATOM     30  N   UNL     1      52.607   0.231  17.132  0.00  0.00    +0.000 N 
ATOM     31  C   UNL     1      51.839   1.418  17.354  0.00  0.00    +0.000 A 
ATOM     32  O   UNL     1      50.647   1.458  17.098  0.00  0.00    +0.000 OA
ATOM     33  C   UNL     1      52.430   2.764  18.254  0.00  0.00    +0.000 A 
ATOM     34  H   UNL     1      53.061  -0.746  17.410  0.00  0.00    +0.000 HD
ENDBRANCH  21  24
ENDBRANCH  19  20
ENDBRANCH   4  19
TORSDOF 6
ENDMDL
MODEL 6
REMARK VINA RESULT:    -6.434      2.643      3.964
REMARK INTER + INTRA:          -9.695
REMARK INTER:                  -8.898
REMARK INTRA:                  -0.797
REMARK UNBOUND:                -1.004
REMARK  Name = 
REMARK  7 active torsions:
REMARK  status: ('A' for Active; 'I' for Inactive)
REMARK    1  A    between atoms: C_1  and  O_2
REMARK    2  A    between atoms: O_2  and  C_3
REMARK    3  A    between atoms: N_10  and  C_11
REMARK    4  A    between atoms: C_11  and  C_12
REMARK    5  A    between atoms: C_15  and  C_16
REMARK    6  A    between atoms: C_16  and  N_17
REMARK    7  A    between atoms: C_18  and  C_20
REMARK                            x       y       z     vdW  Elec       q    Type
REMARK                         _______ _______ _______ _____ _____    ______ ____
ROOT
ATOM      1  C   UNL     1      45.624   4.683  11.987  0.00  0.00    +0.000 A 
ATOM      2  C   UNL     1      46.070   4.324  13.250  0.00  0.00    +0.000 A 
ATOM      3  C   UNL     1      46.783   5.244  13.993  0.00  0.00    +0.000 A 
ATOM      4  C   UNL     1      47.068   6.515  13.468  0.00  0.00    +0.000 A 
ATOM      5  C   UNL     1      46.600   6.788  12.167  0.00  0.00    +0.000 A 
ATOM      6  N   UNL     1      45.877   5.902  11.433  0.00  0.00    +0.000 NA
ENDROOT
BRANCH   1   7
ATOM      7  C   UNL     1      44.936   3.630  11.154  0.00  0.00    +0.000 C 
BRANCH   7  15
ATOM      8  C   UNL     1      46.493   1.693   7.376  0.00  0.00    +0.000 A 
ATOM      9  C   UNL     1      47.269   1.741   6.230  0.00  0.00    +0.000 A 
ATOM     10  C   UNL     1      47.374   3.079   5.821  0.00  0.00    +0.000 A 
ATOM     11  C   UNL     1      46.640   3.827   6.709  0.00  0.00    +0.000 A 
ATOM     12  N   UNL     1      46.063   2.993   7.671  0.00  0.00    +0.000 N 
ATOM     13  C   UNL     1      45.246   3.466   8.735  0.00  0.00    +0.000 C 
ATOM     14  O   UNL     1      44.207   4.066   8.489  0.00  0.00    +0.000 OA
ATOM     15  N   UNL     1      45.702   3.196  10.003  0.00  0.00    +0.000 N 
ATOM     16  H   UNL     1      46.529   2.627  10.169  0.00  0.00    +0.000 HD
BRANCH   8  18
ATOM     17  C   UNL     1      46.667  -0.599   7.688  0.00  0.00    +0.000 C 
ATOM     18  O   UNL     1      46.157   0.654   8.147  0.00  0.00    +0.000 OA
ENDBRANCH   8  18
ENDBRANCH   7  15
ENDBRANCH   1   7
BRANCH   4  19
ATOM     19  C   UNL     1      47.834   7.549  14.280  0.00  0.00    +0.000 C 
BRANCH  19  20
ATOM     20  N   UNL     1      49.211   7.154  14.696  0.00  0.00    +0.000 N 
ATOM     21  C   UNL     1      49.505   6.660  15.980  0.00  0.00    +0.000 C 
ATOM     22  O   UNL     1      48.599   6.545  16.799  0.00  0.00    +0.000 OA
ATOM     23  H   UNL     1      49.953   7.195  14.017  0.00  0.00    +0.000 HD
BRANCH  21  24
ATOM     24  C   UNL     1      50.985   6.390  16.298  0.00  0.00    +0.000 A 
ATOM     25  C   UNL     1      51.955   7.279  15.796  0.00  0.00    +0.000 A 
ATOM     26  S   UNL     1      53.552   6.962  16.379  0.00  0.00    +0.000 S 
ATOM     27  C   UNL     1      53.097   5.651  17.363  0.00  0.00    +0.000 A 
ATOM     28  N   UNL     1      53.924   4.975  18.296  0.00  0.00    +0.000 NA
ATOM     29  C   UNL     1      53.077   4.052  18.468  0.00  0.00    +0.000 A 
ATOM     30  N   UNL     1      52.328   3.022  18.653  0.00  0.00    +0.000 N 
ATOM     31  C   UNL     1      51.344   3.838  18.008  0.00  0.00    +0.000 A 
ATOM     32  O   UNL     1      50.153   3.677  18.216  0.00  0.00    +0.000 OA
ATOM     33  C   UNL     1      51.737   5.273  17.138  0.00  0.00    +0.000 A 
ATOM     34  H   UNL     1      53.050   2.756  19.455  0.00  0.00    +0.000 HD
ENDBRANCH  21  24
ENDBRANCH  19  20
ENDBRANCH   4  19
TORSDOF 6
ENDMDL
MODEL 7
REMARK VINA RESULT:    -6.372      3.825      5.526
REMARK INTER + INTRA:          -9.611
REMARK INTER:                  -8.806
REMARK INTRA:                  -0.805
REMARK UNBOUND:                -1.004
REMARK  Name = 
REMARK  7 active torsions:
REMARK  status: ('A' for Active; 'I' for Inactive)
REMARK    1  A    between atoms: C_1  and  O_2
REMARK    2  A    between atoms: O_2  and  C_3
REMARK    3  A    between atoms: N_10  and  C_11
REMARK    4  A    between atoms: C_11  and  C_12
REMARK    5  A    between atoms: C_15  and  C_16
REMARK    6  A    between atoms: C_16  and  N_17
REMARK    7  A    between atoms: C_18  and  C_20
REMARK                            x       y       z     vdW  Elec       q    Type
REMARK                         _______ _______ _______ _____ _____    ______ ____
ROOT
ATOM      1  C   UNL     1      45.465   4.817  11.634  0.00  0.00    +0.000 A 
ATOM      2  C   UNL     1      45.885   4.514  12.920  0.00  0.00    +0.000 A 
ATOM      3  C   UNL     1      46.550   5.478  13.650  0.00  0.00    +0.000 A 
ATOM      4  C   UNL     1      46.816   6.739  13.089  0.00  0.00    +0.000 A 
ATOM      5  C   UNL     1      46.378   6.953  11.767  0.00  0.00    +0.000 A 
ATOM      6  N   UNL     1      45.701   6.023  11.044  0.00  0.00    +0.000 NA
ENDROOT
BRANCH   1   7
ATOM      7  C   UNL     1      44.830   3.717  10.818  0.00  0.00    +0.000 C 
BRANCH   7  15
ATOM      8  C   UNL     1      46.622   1.574   7.263  0.00  0.00    +0.000 A 
ATOM      9  C   UNL     1      47.445   1.569   6.149  0.00  0.00    +0.000 A 
ATOM     10  C   UNL     1      47.516   2.876   5.645  0.00  0.00    +0.000 A 
ATOM     11  C   UNL     1      46.716   3.656   6.443  0.00  0.00    +0.000 A 
ATOM     12  N   UNL     1      46.130   2.872   7.441  0.00  0.00    +0.000 N 
ATOM     13  C   UNL     1      45.251   3.389   8.434  0.00  0.00    +0.000 C 
ATOM     14  O   UNL     1      44.201   3.925   8.101  0.00  0.00    +0.000 OA
ATOM     15  N   UNL     1      45.662   3.232   9.735  0.00  0.00    +0.000 N 
ATOM     16  H   UNL     1      46.501   2.712   9.977  0.00  0.00    +0.000 HD
BRANCH   8  18
ATOM     17  C   UNL     1      46.619  -0.721   7.606  0.00  0.00    +0.000 C 
ATOM     18  O   UNL     1      46.293   0.581   8.096  0.00  0.00    +0.000 OA
ENDBRANCH   8  18
ENDBRANCH   7  15
ENDBRANCH   1   7
BRANCH   4  19
ATOM     19  C   UNL     1      47.530   7.820  13.886  0.00  0.00    +0.000 C 
BRANCH  19  20
ATOM     20  N   UNL     1      47.943   7.440  15.268  0.00  0.00    +0.000 N 
ATOM     21  C   UNL     1      49.241   6.997  15.579  0.00  0.00    +0.000 C 
ATOM     22  O   UNL     1      50.076   6.917  14.685  0.00  0.00    +0.000 OA
ATOM     23  H   UNL     1      47.281   7.550  16.018  0.00  0.00    +0.000 HD
BRANCH  21  24
ATOM     24  C   UNL     1      49.492   6.544  17.026  0.00  0.00    +0.000 A 
ATOM     25  C   UNL     1      50.053   5.270  17.245  0.00  0.00    +0.000 A 
ATOM     26  S   UNL     1      50.450   4.964  18.901  0.00  0.00    +0.000 S 
ATOM     27  C   UNL     1      49.946   6.489  19.462  0.00  0.00    +0.000 A 
ATOM     28  N   UNL     1      50.137   7.007  20.768  0.00  0.00    +0.000 NA
ATOM     29  C   UNL     1      49.372   7.991  20.554  0.00  0.00    +0.000 A 
ATOM     30  N   UNL     1      48.550   8.978  20.473  0.00  0.00    +0.000 N 
ATOM     31  C   UNL     1      48.613   8.691  19.072  0.00  0.00    +0.000 A 
ATOM     32  O   UNL     1      48.399   9.555  18.238  0.00  0.00    +0.000 OA
ATOM     33  C   UNL     1      49.271   7.227  18.442  0.00  0.00    +0.000 A 
ATOM     34  H   UNL     1      48.960   9.280  21.462  0.00  0.00    +0.000 HD
ENDBRANCH  21  24
ENDBRANCH  19  20
ENDBRANCH   4  19
TORSDOF 6
ENDMDL
MODEL 8
REMARK VINA RESULT:    -6.167      3.460      9.827
REMARK INTER + INTRA:          -9.335
REMARK INTER:                  -8.514
REMARK INTRA:                  -0.821
REMARK UNBOUND:                -1.004
REMARK  Name = 
REMARK  7 active torsions:
REMARK  status: ('A' for Active; 'I' for Inactive)
REMARK    1  A    between atoms: C_1  and  O_2
REMARK    2  A    between atoms: O_2  and  C_3
REMARK    3  A    between atoms: N_10  and  C_11
REMARK    4  A    between atoms: C_11  and  C_12
REMARK    5  A    between atoms: C_15  and  C_16
REMARK    6  A    between atoms: C_16  and  N_17
REMARK    7  A    between atoms: C_18  and  C_20
REMARK                            x       y       z     vdW  Elec       q    Type
REMARK                         _______ _______ _______ _____ _____    ______ ____
ROOT
ATOM      1  C   UNL     1      50.045   8.170  15.330  0.00  0.00    +0.000 A 
ATOM      2  C   UNL     1      48.737   8.594  15.506  0.00  0.00    +0.000 A 
ATOM      3  C   UNL     1      47.882   8.589  14.422  0.00  0.00    +0.000 A 
ATOM      4  C   UNL     1      48.338   8.182  13.157  0.00  0.00    +0.000 A 
ATOM      5  C   UNL     1      49.689   7.793  13.061  0.00  0.00    +0.000 A 
ATOM      6  N   UNL     1      50.536   7.769  14.123  0.00  0.00    +0.000 NA
ENDROOT
BRANCH   1   7
ATOM      7  C   UNL     1      50.989   8.279  16.502  0.00  0.00    +0.000 C 
BRANCH   7  15
ATOM      8  C   UNL     1      51.742   3.946  17.553  0.00  0.00    +0.000 A 
ATOM      9  C   UNL     1      52.386   2.986  18.316  0.00  0.00    +0.000 A 
ATOM     10  C   UNL     1      53.622   3.505  18.731  0.00  0.00    +0.000 A 
ATOM     11  C   UNL     1      53.726   4.766  18.194  0.00  0.00    +0.000 A 
ATOM     12  N   UNL     1      52.586   5.058  17.440  0.00  0.00    +0.000 N 
ATOM     13  C   UNL     1      52.386   6.291  16.760  0.00  0.00    +0.000 C 
ATOM     14  O   UNL     1      53.173   6.643  15.890  0.00  0.00    +0.000 OA
ATOM     15  N   UNL     1      51.282   7.012  17.143  0.00  0.00    +0.000 N 
ATOM     16  H   UNL     1      50.608   6.652  17.814  0.00  0.00    +0.000 HD
BRANCH   8  18
ATOM     17  C   UNL     1      49.453   4.055  17.913  0.00  0.00    +0.000 C 
ATOM     18  O   UNL     1      50.532   3.927  16.985  0.00  0.00    +0.000 OA
ENDBRANCH   8  18
ENDBRANCH   7  15
ENDBRANCH   1   7
BRANCH   4  19
ATOM     19  C   UNL     1      47.405   8.151  11.956  0.00  0.00    +0.000 C 
BRANCH  19  20
ATOM     20  N   UNL     1      46.800   6.825  11.641  0.00  0.00    +0.000 N 
ATOM     21  C   UNL     1      45.430   6.554  11.812  0.00  0.00    +0.000 C 
ATOM     22  O   UNL     1      44.694   7.438  12.236  0.00  0.00    +0.000 OA
ATOM     23  H   UNL     1      47.384   6.108  11.243  0.00  0.00    +0.000 HD
BRANCH  21  24
ATOM     24  C   UNL     1      44.968   5.113  11.542  0.00  0.00    +0.000 A 
ATOM     25  C   UNL     1      44.279   4.425  12.560  0.00  0.00    +0.000 A 
ATOM     26  S   UNL     1      43.660   2.889  12.061  0.00  0.00    +0.000 S 
ATOM     27  C   UNL     1      44.219   3.014  10.459  0.00  0.00    +0.000 A 
ATOM     28  N   UNL     1      43.916   2.128   9.393  0.00  0.00    +0.000 NA
ATOM     29  C   UNL     1      44.781   2.651   8.634  0.00  0.00    +0.000 A 
ATOM     30  N   UNL     1      45.687   3.049   7.812  0.00  0.00    +0.000 N 
ATOM     31  C   UNL     1      45.770   4.160   8.711  0.00  0.00    +0.000 A 
ATOM     32  O   UNL     1      46.157   5.253   8.333  0.00  0.00    +0.000 OA
ATOM     33  C   UNL     1      45.073   4.146  10.287  0.00  0.00    +0.000 A 
ATOM     34  H   UNL     1      45.187   2.377   7.080  0.00  0.00    +0.000 HD
ENDBRANCH  21  24
ENDBRANCH  19  20
ENDBRANCH   4  19
TORSDOF 6
ENDMDL
MODEL 9
REMARK VINA RESULT:    -5.821      4.050      9.374
REMARK INTER + INTRA:          -8.866
REMARK INTER:                  -7.687
REMARK INTRA:                  -1.180
REMARK UNBOUND:                -1.004
REMARK  Name = 
REMARK  7 active torsions:
REMARK  status: ('A' for Active; 'I' for Inactive)
REMARK    1  A    between atoms: C_1  and  O_2
REMARK    2  A    between atoms: O_2  and  C_3
REMARK    3  A    between atoms: N_10  and  C_11
REMARK    4  A    between atoms: C_11  and  C_12
REMARK    5  A    between atoms: C_15  and  C_16
REMARK    6  A    between atoms: C_16  and  N_17
REMARK    7  A    between atoms: C_18  and  C_20
REMARK                            x       y       z     vdW  Elec       q    Type
REMARK                         _______ _______ _______ _____ _____    ______ ____
ROOT
ATOM      1  C   UNL     1      51.225   9.067  15.258  0.00  0.00    +0.000 A 
ATOM      2  C   UNL     1      51.526   8.895  13.916  0.00  0.00    +0.000 A 
ATOM      3  C   UNL     1      50.513   9.017  12.984  0.00  0.00    +0.000 A 
ATOM      4  C   UNL     1      49.197   9.289  13.394  0.00  0.00    +0.000 A 
ATOM      5  C   UNL     1      48.976   9.422  14.779  0.00  0.00    +0.000 A 
ATOM      6  N   UNL     1      49.964   9.329  15.706  0.00  0.00    +0.000 NA
ENDROOT
BRANCH   1   7
ATOM      7  C   UNL     1      52.323   8.831  16.265  0.00  0.00    +0.000 C 
BRANCH   7  15
ATOM      8  C   UNL     1      51.706   4.505  17.428  0.00  0.00    +0.000 A 
ATOM      9  C   UNL     1      52.074   3.391  18.165  0.00  0.00    +0.000 A 
ATOM     10  C   UNL     1      53.449   3.470  18.430  0.00  0.00    +0.000 A 
ATOM     11  C   UNL     1      53.907   4.618  17.830  0.00  0.00    +0.000 A 
ATOM     12  N   UNL     1      52.853   5.269  17.182  0.00  0.00    +0.000 N 
ATOM     13  C   UNL     1      53.001   6.492  16.471  0.00  0.00    +0.000 C 
ATOM     14  O   UNL     1      53.761   6.553  15.511  0.00  0.00    +0.000 OA
ATOM     15  N   UNL     1      52.247   7.544  16.929  0.00  0.00    +0.000 N 
ATOM     16  H   UNL     1      51.570   7.436  17.680  0.00  0.00    +0.000 HD
BRANCH   8  18
ATOM     17  C   UNL     1      49.437   4.623  17.899  0.00  0.00    +0.000 C 
ATOM     18  O   UNL     1      50.503   4.887  16.985  0.00  0.00    +0.000 OA
ENDBRANCH   8  18
ENDBRANCH   7  15
ENDBRANCH   1   7
BRANCH   4  19
ATOM     19  C   UNL     1      48.074   9.446  12.380  0.00  0.00    +0.000 C 
BRANCH  19  20
ATOM     20  N   UNL     1      47.224   8.240  12.164  0.00  0.00    +0.000 N 
ATOM     21  C   UNL     1      45.820   8.277  12.237  0.00  0.00    +0.000 C 
ATOM     22  O   UNL     1      45.261   9.339  12.488  0.00  0.00    +0.000 OA
ATOM     23  H   UNL     1      47.668   7.374  11.906  0.00  0.00    +0.000 HD
BRANCH  21  24
ATOM     24  C   UNL     1      45.081   6.936  12.092  0.00  0.00    +0.000 A 
ATOM     25  C   UNL     1      43.817   6.928  11.469  0.00  0.00    +0.000 A 
ATOM     26  S   UNL     1      43.185   5.339  11.209  0.00  0.00    +0.000 S 
ATOM     27  C   UNL     1      44.530   4.531  11.865  0.00  0.00    +0.000 A 
ATOM     28  N   UNL     1      44.767   3.133  11.833  0.00  0.00    +0.000 NA
ATOM     29  C   UNL     1      45.737   3.218  12.639  0.00  0.00    +0.000 A 
ATOM     30  N   UNL     1      46.679   3.180  13.515  0.00  0.00    +0.000 N 
ATOM     31  C   UNL     1      46.700   4.595  13.302  0.00  0.00    +0.000 A 
ATOM     32  O   UNL     1      47.711   5.250  13.495  0.00  0.00    +0.000 OA
ATOM     33  C   UNL     1      45.436   5.441  12.490  0.00  0.00    +0.000 A 
ATOM     34  H   UNL     1      46.783   2.112  13.221  0.00  0.00    +0.000 HD
ENDBRANCH  21  24
ENDBRANCH  19  20
ENDBRANCH   4  19
TORSDOF 6
ENDMDL
