MODEL 1
REMARK VINA RESULT:    -8.175      0.000      0.000
REMARK INTER + INTRA:         -13.314
REMARK INTER:                 -12.715
REMARK INTRA:                  -0.599
REMARK UNBOUND:                -0.599
REMARK  Name = 
REMARK  11 active torsions:
REMARK  status: ('A' for Active; 'I' for Inactive)
REMARK    1  A    between atoms: C_1  and  C_2
REMARK    2  A    between atoms: C_2  and  C_3
REMARK    3  A    between atoms: C_3  and  N_4
REMARK    4  A    between atoms: C_3  and  C_17
REMARK    5  A    between atoms: C_5  and  C_7
REMARK    6  A    between atoms: C_20  and  C_21
REMARK    7  A    between atoms: C_21  and  N_22
REMARK    8  A    between atoms: N_22  and  CA_23
REMARK    9  A    between atoms: CA_23  and  C_24
REMARK   10  A    between atoms: CA_23  and  C_26
REMARK   11  A    between atoms: C_24  and  O_25
REMARK                            x       y       z     vdW  Elec       q    Type
REMARK                         _______ _______ _______ _____ _____    ______ ____
ROOT
ATOM      1  C   UNL     1      46.375   7.620  12.428  0.00  0.00    +0.000 A 
ATOM      2  C   UNL     1      46.761   6.805  11.360  0.00  0.00    +0.000 A 
ATOM      3  C   UNL     1      45.831   5.970  10.748  0.00  0.00    +0.000 A 
ATOM      4  C   UNL     1      44.519   5.971  11.212  0.00  0.00    +0.000 A 
ATOM      5  N   UNL     1      44.111   6.766  12.236  0.00  0.00    +0.000 NA
ATOM      6  C   UNL     1      45.036   7.576  12.802  0.00  0.00    +0.000 A 
ENDROOT
BRANCH   1   7
ATOM      7  C   UNL     1      47.386   8.549  13.066  0.00  0.00    +0.000 C 
BRANCH   7   8
ATOM      8  N   UNL     1      47.768   7.978  14.345  0.00  0.00    +0.000 N 
ATOM      9  C   UNL     1      48.535   6.851  14.469  0.00  0.00    +0.000 C 
ATOM     10  O   UNL     1      49.044   6.286  13.507  0.00  0.00    +0.000 OA
ATOM     11  H   UNL     1      47.274   8.329  15.157  0.00  0.00    +0.000 HD
BRANCH   9  12
ATOM     12  C   UNL     1      48.751   6.382  15.844  0.00  0.00    +0.000 A 
ATOM     13  C   UNL     1      49.547   7.115  16.713  0.00  0.00    +0.000 A 
ATOM     14  S   UNL     1      49.695   6.408  18.258  0.00  0.00    +0.000 S 
ATOM     15  C   UNL     1      48.742   5.074  17.802  0.00  0.00    +0.000 A 
ATOM     16  N   UNL     1      48.518   4.045  18.665  0.00  0.00    +0.000 NA
ATOM     17  C   UNL     1      47.806   3.087  18.175  0.00  0.00    +0.000 A 
ATOM     18  N   UNL     1      47.280   3.068  16.910  0.00  0.00    +0.000 N 
ATOM     19  C   UNL     1      47.422   4.113  16.028  0.00  0.00    +0.000 A 
ATOM     20  O   UNL     1      46.836   4.120  14.948  0.00  0.00    +0.000 OA
ATOM     21  C   UNL     1      48.268   5.191  16.507  0.00  0.00    +0.000 A 
ATOM     22  H   UNL     1      46.697   2.302  16.604  0.00  0.00    +0.000 HD
ENDBRANCH   9  12
ENDBRANCH   7   8
BRANCH   7  24
ATOM     23  C   UNL     1      48.540  10.170  11.463  0.00  0.00    +0.000 C 
ATOM     24  C   UNL     1      48.638   8.849  12.218  0.00  0.00    +0.000 C 
ENDBRANCH   7  24
ENDBRANCH   1   7
BRANCH   4  25
ATOM     25  C   UNL     1      43.497   5.047  10.573  0.00  0.00    +0.000 C 
BRANCH  25  26
ATOM     26  N   UNL     1      43.935   4.368   9.344  0.00  0.00    +0.000 NA
ATOM     27  H   UNL     1      44.775   4.850   9.016  0.00  0.00    +0.000 HD
BRANCH  26  28
ATOM     28  CA  UNL     1      44.283   2.933   9.531  0.00  0.00    +0.000 C 
BRANCH  28  29
ATOM     29  C   UNL     1      45.622   2.552   8.858  0.00  0.00    +0.000 C 
ATOM     30  C   UNL     1      45.906   3.252   7.538  0.00  0.00    +0.000 C 
ATOM     31  C   UNL     1      47.102   2.469   7.018  0.00  0.00    +0.000 C 
ATOM     32  C   UNL     1      46.931   1.068   7.598  0.00  0.00    +0.000 C 
ATOM     33  N   UNL     1      45.763   1.142   8.475  0.00  0.00    +0.000 NA
ATOM     34  H   UNL     1      45.860   0.558   9.305  0.00  0.00    +0.000 HD
ENDBRANCH  28  29
BRANCH  28  35
ATOM     35  C   UNL     1      44.225   2.609  11.045  0.00  0.00    +0.000 C 
BRANCH  35  36
ATOM     36  O   UNL     1      43.122   1.738  11.344  0.00  0.00    +0.000 OA
ATOM     37  H   UNL     1      43.463   1.013  11.896  0.00  0.00    +0.000 HD
ENDBRANCH  35  36
ENDBRANCH  28  35
ENDBRANCH  26  28
ENDBRANCH  25  26
ENDBRANCH   4  25
TORSDOF 10
ENDMDL
MODEL 2
REMARK VINA RESULT:    -8.078      2.042      2.393
REMARK INTER + INTRA:         -13.164
REMARK INTER:                 -11.231
REMARK INTRA:                  -1.933
REMARK UNBOUND:                -0.599
REMARK  Name = 
REMARK  11 active torsions:
REMARK  status: ('A' for Active; 'I' for Inactive)
REMARK    1  A    between atoms: C_1  and  C_2
REMARK    2  A    between atoms: C_2  and  C_3
REMARK    3  A    between atoms: C_3  and  N_4
REMARK    4  A    between atoms: C_3  and  C_17
REMARK    5  A    between atoms: C_5  and  C_7
REMARK    6  A    between atoms: C_20  and  C_21
REMARK    7  A    between atoms: C_21  and  N_22
REMARK    8  A    between atoms: N_22  and  CA_23
REMARK    9  A    between atoms: CA_23  and  C_24
REMARK   10  A    between atoms: CA_23  and  C_26
REMARK   11  A    between atoms: C_24  and  O_25
REMARK                            x       y       z     vdW  Elec       q    Type
REMARK                         _______ _______ _______ _____ _____    ______ ____
ROOT
ATOM      1  C   UNL     1      47.695   7.244  12.629  0.00  0.00    +0.000 A 
ATOM      2  C   UNL     1      46.607   8.047  12.276  0.00  0.00    +0.000 A 
ATOM      3  C   UNL     1      45.323   7.513  12.255  0.00  0.00    +0.000 A 
ATOM      4  C   UNL     1      45.146   6.176  12.599  0.00  0.00    +0.000 A 
ATOM      5  N   UNL     1      46.182   5.376  12.964  0.00  0.00    +0.000 NA
ATOM      6  C   UNL     1      47.417   5.929  12.986  0.00  0.00    +0.000 A 
ENDROOT
BRANCH   1   7
ATOM      7  C   UNL     1      49.084   7.843  12.680  0.00  0.00    +0.000 C 
BRANCH   7   8
ATOM      8  N   UNL     1      49.806   7.199  13.762  0.00  0.00    +0.000 N 
ATOM      9  C   UNL     1      50.396   7.885  14.788  0.00  0.00    +0.000 C 
ATOM     10  O   UNL     1      50.280   9.098  14.929  0.00  0.00    +0.000 OA
ATOM     11  H   UNL     1      50.035   6.222  13.627  0.00  0.00    +0.000 HD
BRANCH   9  12
ATOM     12  C   UNL     1      51.147   7.065  15.747  0.00  0.00    +0.000 A 
ATOM     13  C   UNL     1      52.522   7.215  15.866  0.00  0.00    +0.000 A 
ATOM     14  S   UNL     1      53.222   6.170  17.017  0.00  0.00    +0.000 S 
ATOM     15  C   UNL     1      51.720   5.446  17.359  0.00  0.00    +0.000 A 
ATOM     16  N   UNL     1      51.625   4.412  18.239  0.00  0.00    +0.000 NA
ATOM     17  C   UNL     1      50.432   3.941  18.376  0.00  0.00    +0.000 A 
ATOM     18  N   UNL     1      49.320   4.417  17.731  0.00  0.00    +0.000 N 
ATOM     19  C   UNL     1      49.357   5.501  16.887  0.00  0.00    +0.000 A 
ATOM     20  O   UNL     1      48.326   5.981  16.421  0.00  0.00    +0.000 OA
ATOM     21  C   UNL     1      50.687   6.031  16.648  0.00  0.00    +0.000 A 
ATOM     22  H   UNL     1      48.408   4.025  17.916  0.00  0.00    +0.000 HD
ENDBRANCH   9  12
ENDBRANCH   7   8
BRANCH   7  24
ATOM     23  C   UNL     1      51.030   8.767  11.305  0.00  0.00    +0.000 C 
ATOM     24  C   UNL     1      49.893   7.755  11.370  0.00  0.00    +0.000 C 
ENDBRANCH   7  24
ENDBRANCH   1   7
BRANCH   4  25
ATOM     25  C   UNL     1      43.754   5.567  12.556  0.00  0.00    +0.000 C 
BRANCH  25  26
ATOM     26  N   UNL     1      43.309   5.094  11.237  0.00  0.00    +0.000 NA
ATOM     27  H   UNL     1      43.850   5.604  10.534  0.00  0.00    +0.000 HD
BRANCH  26  28
ATOM     28  CA  UNL     1      43.528   3.640  11.006  0.00  0.00    +0.000 C 
BRANCH  28  29
ATOM     29  C   UNL     1      44.695   3.360  10.030  0.00  0.00    +0.000 C 
ATOM     30  C   UNL     1      44.614   4.089   8.697  0.00  0.00    +0.000 C 
ATOM     31  C   UNL     1      45.705   3.398   7.894  0.00  0.00    +0.000 C 
ATOM     32  C   UNL     1      45.770   1.983   8.465  0.00  0.00    +0.000 C 
ATOM     33  N   UNL     1      44.837   1.967   9.591  0.00  0.00    +0.000 NA
ATOM     34  H   UNL     1      45.166   1.386  10.361  0.00  0.00    +0.000 HD
ENDBRANCH  28  29
BRANCH  28  35
ATOM     35  C   UNL     1      43.677   2.942  12.381  0.00  0.00    +0.000 C 
BRANCH  35  36
ATOM     36  O   UNL     1      45.025   2.493  12.589  0.00  0.00    +0.000 OA
ATOM     37  H   UNL     1      45.400   2.279  11.716  0.00  0.00    +0.000 HD
ENDBRANCH  35  36
ENDBRANCH  28  35
ENDBRANCH  26  28
ENDBRANCH  25  26
ENDBRANCH   4  25
TORSDOF 10
ENDMDL
MODEL 3
REMARK VINA RESULT:    -7.718      2.470      3.135
REMARK INTER + INTRA:         -12.604
REMARK INTER:                 -10.972
REMARK INTRA:                  -1.632
REMARK UNBOUND:                -0.599
REMARK  Name = 
REMARK  11 active torsions:
REMARK  status: ('A' for Active; 'I' for Inactive)
REMARK    1  A    between atoms: C_1  and  C_2
REMARK    2  A    between atoms: C_2  and  C_3
REMARK    3  A    between atoms: C_3  and  N_4
REMARK    4  A    between atoms: C_3  and  C_17
REMARK    5  A    between atoms: C_5  and  C_7
REMARK    6  A    between atoms: C_20  and  C_21
REMARK    7  A    between atoms: C_21  and  N_22
REMARK    8  A    between atoms: N_22  and  CA_23
REMARK    9  A    between atoms: CA_23  and  C_24
REMARK   10  A    between atoms: CA_23  and  C_26
REMARK   11  A    between atoms: C_24  and  O_25
REMARK                            x       y       z     vdW  Elec       q    Type
REMARK                         _______ _______ _______ _____ _____    ______ ____
ROOT
ATOM      1  C   UNL     1      47.653   7.383  13.068  0.00  0.00    +0.000 A 
ATOM      2  C   UNL     1      47.506   6.004  12.891  0.00  0.00    +0.000 A 
ATOM      3  C   UNL     1      46.260   5.470  12.577  0.00  0.00    +0.000 A 
ATOM      4  C   UNL     1      45.176   6.331  12.435  0.00  0.00    +0.000 A 
ATOM      5  N   UNL     1      45.293   7.678  12.583  0.00  0.00    +0.000 NA
ATOM      6  C   UNL     1      46.520   8.166  12.876  0.00  0.00    +0.000 A 
ENDROOT
BRANCH   1   7
ATOM      7  C   UNL     1      49.019   7.957  13.378  0.00  0.00    +0.000 C 
BRANCH   7   8
ATOM      8  N   UNL     1      49.664   7.077  14.335  0.00  0.00    +0.000 N 
ATOM      9  C   UNL     1      49.525   7.204  15.690  0.00  0.00    +0.000 C 
ATOM     10  O   UNL     1      48.764   8.016  16.205  0.00  0.00    +0.000 OA
ATOM     11  H   UNL     1      50.394   6.477  13.969  0.00  0.00    +0.000 HD
BRANCH   9  12
ATOM     12  C   UNL     1      50.318   6.268  16.497  0.00  0.00    +0.000 A 
ATOM     13  C   UNL     1      49.683   5.344  17.316  0.00  0.00    +0.000 A 
ATOM     14  S   UNL     1      50.763   4.353  18.187  0.00  0.00    +0.000 S 
ATOM     15  C   UNL     1      52.115   5.160  17.540  0.00  0.00    +0.000 A 
ATOM     16  N   UNL     1      53.378   4.832  17.927  0.00  0.00    +0.000 NA
ATOM     17  C   UNL     1      54.303   5.546  17.380  0.00  0.00    +0.000 A 
ATOM     18  N   UNL     1      54.087   6.546  16.467  0.00  0.00    +0.000 N 
ATOM     19  C   UNL     1      52.835   6.866  15.997  0.00  0.00    +0.000 A 
ATOM     20  O   UNL     1      52.686   7.681  15.089  0.00  0.00    +0.000 OA
ATOM     21  C   UNL     1      51.752   6.134  16.627  0.00  0.00    +0.000 A 
ATOM     22  H   UNL     1      54.861   7.039  16.049  0.00  0.00    +0.000 HD
ENDBRANCH   9  12
ENDBRANCH   7   8
BRANCH   7  24
ATOM     23  C   UNL     1      49.832   9.598  11.595  0.00  0.00    +0.000 C 
ATOM     24  C   UNL     1      49.934   8.185  12.158  0.00  0.00    +0.000 C 
ENDBRANCH   7  24
ENDBRANCH   1   7
BRANCH   4  25
ATOM     25  C   UNL     1      43.802   5.764  12.119  0.00  0.00    +0.000 C 
BRANCH  25  26
ATOM     26  N   UNL     1      43.584   5.375  10.717  0.00  0.00    +0.000 NA
ATOM     27  H   UNL     1      44.355   5.767  10.171  0.00  0.00    +0.000 HD
BRANCH  26  28
ATOM     28  CA  UNL     1      43.571   3.905  10.488  0.00  0.00    +0.000 C 
BRANCH  28  29
ATOM     29  C   UNL     1      44.803   3.414   9.691  0.00  0.00    +0.000 C 
ATOM     30  C   UNL     1      44.929   3.976   8.284  0.00  0.00    +0.000 C 
ATOM     31  C   UNL     1      46.030   3.106   7.696  0.00  0.00    +0.000 C 
ATOM     32  C   UNL     1      45.903   1.773   8.428  0.00  0.00    +0.000 C 
ATOM     33  N   UNL     1      44.860   1.971   9.434  0.00  0.00    +0.000 NA
ATOM     34  H   UNL     1      45.051   1.465  10.299  0.00  0.00    +0.000 HD
ENDBRANCH  28  29
BRANCH  28  35
ATOM     35  C   UNL     1      43.383   3.198  11.854  0.00  0.00    +0.000 C 
BRANCH  35  36
ATOM     36  O   UNL     1      42.856   1.873  11.681  0.00  0.00    +0.000 OA
ATOM     37  H   UNL     1      42.101   1.776  12.288  0.00  0.00    +0.000 HD
ENDBRANCH  35  36
ENDBRANCH  28  35
ENDBRANCH  26  28
ENDBRANCH  25  26
ENDBRANCH   4  25
TORSDOF 10
ENDMDL
MODEL 4
REMARK VINA RESULT:    -7.508      2.584      3.229
REMARK INTER + INTRA:         -12.276
REMARK INTER:                 -10.789
REMARK INTRA:                  -1.487
REMARK UNBOUND:                -0.599
REMARK  Name = 
REMARK  11 active torsions:
REMARK  status: ('A' for Active; 'I' for Inactive)
REMARK    1  A    between atoms: C_1  and  C_2
REMARK    2  A    between atoms: C_2  and  C_3
REMARK    3  A    between atoms: C_3  and  N_4
REMARK    4  A    between atoms: C_3  and  C_17
REMARK    5  A    between atoms: C_5  and  C_7
REMARK    6  A    between atoms: C_20  and  C_21
REMARK    7  A    between atoms: C_21  and  N_22
REMARK    8  A    between atoms: N_22  and  CA_23
REMARK    9  A    between atoms: CA_23  and  C_24
REMARK   10  A    between atoms: CA_23  and  C_26
REMARK   11  A    between atoms: C_24  and  O_25
REMARK                            x       y       z     vdW  Elec       q    Type
REMARK                         _______ _______ _______ _____ _____    ______ ____
ROOT
ATOM      1  C   UNL     1      48.440   7.122  14.598  0.00  0.00    +0.000 A 
ATOM      2  C   UNL     1      48.252   7.846  13.417  0.00  0.00    +0.000 A 
ATOM      3  C   UNL     1      47.460   7.327  12.398  0.00  0.00    +0.000 A 
ATOM      4  C   UNL     1      46.857   6.087  12.581  0.00  0.00    +0.000 A 
ATOM      5  N   UNL     1      47.006   5.368  13.725  0.00  0.00    +0.000 NA
ATOM      6  C   UNL     1      47.772   5.906  14.702  0.00  0.00    +0.000 A 
ENDROOT
BRANCH   1   7
ATOM      7  C   UNL     1      49.276   7.710  15.714  0.00  0.00    +0.000 C 
BRANCH   7   8
ATOM      8  N   UNL     1      50.161   6.668  16.201  0.00  0.00    +0.000 N 
ATOM      9  C   UNL     1      50.075   6.131  17.457  0.00  0.00    +0.000 C 
ATOM     10  O   UNL     1      49.178   6.420  18.241  0.00  0.00    +0.000 OA
ATOM     11  H   UNL     1      50.987   6.486  15.644  0.00  0.00    +0.000 HD
BRANCH   9  12
ATOM     12  C   UNL     1      51.107   5.142  17.794  0.00  0.00    +0.000 A 
ATOM     13  C   UNL     1      52.320   5.555  18.328  0.00  0.00    +0.000 A 
ATOM     14  S   UNL     1      53.397   4.271  18.642  0.00  0.00    +0.000 S 
ATOM     15  C   UNL     1      52.299   3.125  18.027  0.00  0.00    +0.000 A 
ATOM     16  N   UNL     1      52.631   1.807  17.953  0.00  0.00    +0.000 NA
ATOM     17  C   UNL     1      51.716   1.058  17.436  0.00  0.00    +0.000 A 
ATOM     18  N   UNL     1      50.492   1.498  17.005  0.00  0.00    +0.000 N 
ATOM     19  C   UNL     1      50.087   2.806  17.124  0.00  0.00    +0.000 A 
ATOM     20  O   UNL     1      48.940   3.146  16.842  0.00  0.00    +0.000 OA
ATOM     21  C   UNL     1      51.103   3.704  17.641  0.00  0.00    +0.000 A 
ATOM     22  H   UNL     1      49.807   0.849  16.647  0.00  0.00    +0.000 HD
ENDBRANCH   9  12
ENDBRANCH   7   8
BRANCH   7  24
ATOM     23  C   UNL     1      49.863  10.124  16.312  0.00  0.00    +0.000 C 
ATOM     24  C   UNL     1      50.085   8.969  15.342  0.00  0.00    +0.000 C 
ENDBRANCH   7  24
ENDBRANCH   1   7
BRANCH   4  25
ATOM     25  C   UNL     1      46.010   5.491  11.469  0.00  0.00    +0.000 C 
BRANCH  25  26
ATOM     26  N   UNL     1      44.641   5.111  11.848  0.00  0.00    +0.000 NA
ATOM     27  H   UNL     1      44.085   5.968  11.875  0.00  0.00    +0.000 HD
BRANCH  26  28
ATOM     28  CA  UNL     1      43.982   4.176  10.895  0.00  0.00    +0.000 C 
BRANCH  28  29
ATOM     29  C   UNL     1      44.952   3.648   9.811  0.00  0.00    +0.000 C 
ATOM     30  C   UNL     1      44.584   4.010   8.381  0.00  0.00    +0.000 C 
ATOM     31  C   UNL     1      45.532   3.130   7.580  0.00  0.00    +0.000 C 
ATOM     32  C   UNL     1      45.768   1.909   8.466  0.00  0.00    +0.000 C 
ATOM     33  N   UNL     1      45.070   2.188   9.721  0.00  0.00    +0.000 NA
ATOM     34  H   UNL     1      45.567   1.823  10.533  0.00  0.00    +0.000 HD
ENDBRANCH  28  29
BRANCH  28  35
ATOM     35  C   UNL     1      43.281   3.060  11.709  0.00  0.00    +0.000 C 
BRANCH  35  36
ATOM     36  O   UNL     1      44.148   2.544  12.731  0.00  0.00    +0.000 OA
ATOM     37  H   UNL     1      43.665   1.838  13.195  0.00  0.00    +0.000 HD
ENDBRANCH  35  36
ENDBRANCH  28  35
ENDBRANCH  26  28
ENDBRANCH  25  26
ENDBRANCH   4  25
TORSDOF 10
ENDMDL
MODEL 5
REMARK VINA RESULT:    -7.193      3.311      5.178
REMARK INTER + INTRA:         -11.788
REMARK INTER:                 -10.162
REMARK INTRA:                  -1.626
REMARK UNBOUND:                -0.599
REMARK  Name = 
REMARK  11 active torsions:
REMARK  status: ('A' for Active; 'I' for Inactive)
REMARK    1  A    between atoms: C_1  and  C_2
REMARK    2  A    between atoms: C_2  and  C_3
REMARK    3  A    between atoms: C_3  and  N_4
REMARK    4  A    between atoms: C_3  and  C_17
REMARK    5  A    between atoms: C_5  and  C_7
REMARK    6  A    between atoms: C_20  and  C_21
REMARK    7  A    between atoms: C_21  and  N_22
REMARK    8  A    between atoms: N_22  and  CA_23
REMARK    9  A    between atoms: CA_23  and  C_24
REMARK   10  A    between atoms: CA_23  and  C_26
REMARK   11  A    between atoms: C_24  and  O_25
REMARK                            x       y       z     vdW  Elec       q    Type
REMARK                         _______ _______ _______ _____ _____    ______ ____
ROOT
ATOM      1  C   UNL     1      48.661   6.150  15.548  0.00  0.00    +0.000 A 
ATOM      2  C   UNL     1      48.512   6.644  14.249  0.00  0.00    +0.000 A 
ATOM      3  C   UNL     1      47.593   6.062  13.381  0.00  0.00    +0.000 A 
ATOM      4  C   UNL     1      46.826   4.993  13.835  0.00  0.00    +0.000 A 
ATOM      5  N   UNL     1      46.935   4.503  15.098  0.00  0.00    +0.000 NA
ATOM      6  C   UNL     1      47.829   5.100  15.920  0.00  0.00    +0.000 A 
ENDROOT
BRANCH   1   7
ATOM      7  C   UNL     1      49.640   6.811  16.494  0.00  0.00    +0.000 C 
BRANCH   7   8
ATOM      8  N   UNL     1      50.548   5.788  16.979  0.00  0.00    +0.000 N 
ATOM      9  C   UNL     1      50.652   5.434  18.296  0.00  0.00    +0.000 C 
ATOM     10  O   UNL     1      49.914   5.887  19.164  0.00  0.00    +0.000 OA
ATOM     11  H   UNL     1      51.260   5.478  16.328  0.00  0.00    +0.000 HD
BRANCH   9  12
ATOM     12  C   UNL     1      51.682   4.434  18.603  0.00  0.00    +0.000 A 
ATOM     13  C   UNL     1      52.763   4.770  19.406  0.00  0.00    +0.000 A 
ATOM     14  S   UNL     1      53.861   3.487  19.640  0.00  0.00    +0.000 S 
ATOM     15  C   UNL     1      52.957   2.454  18.634  0.00  0.00    +0.000 A 
ATOM     16  N   UNL     1      53.385   1.191  18.360  0.00  0.00    +0.000 NA
ATOM     17  C   UNL     1      52.618   0.533  17.559  0.00  0.00    +0.000 A 
ATOM     18  N   UNL     1      51.451   1.009  17.021  0.00  0.00    +0.000 N 
ATOM     19  C   UNL     1      50.944   2.251  17.323  0.00  0.00    +0.000 A 
ATOM     20  O   UNL     1      49.836   2.601  16.924  0.00  0.00    +0.000 OA
ATOM     21  C   UNL     1      51.801   3.058  18.172  0.00  0.00    +0.000 A 
ATOM     22  H   UNL     1      50.877   0.424  16.431  0.00  0.00    +0.000 HD
ENDBRANCH   9  12
ENDBRANCH   7   8
BRANCH   7  24
ATOM     23  C   UNL     1      51.831   7.604  15.445  0.00  0.00    +0.000 C 
ATOM     24  C   UNL     1      50.433   7.996  15.906  0.00  0.00    +0.000 C 
ENDBRANCH   7  24
ENDBRANCH   1   7
BRANCH   4  25
ATOM     25  C   UNL     1      45.836   4.327  12.893  0.00  0.00    +0.000 C 
BRANCH  25  26
ATOM     26  N   UNL     1      45.453   5.117  11.714  0.00  0.00    +0.000 NA
ATOM     27  H   UNL     1      45.136   4.458  10.998  0.00  0.00    +0.000 HD
BRANCH  26  28
ATOM     28  CA  UNL     1      44.345   6.081  11.959  0.00  0.00    +0.000 C 
BRANCH  28  29
ATOM     29  C   UNL     1      44.709   7.525  11.541  0.00  0.00    +0.000 C 
ATOM     30  C   UNL     1      45.204   8.420  12.667  0.00  0.00    +0.000 C 
ATOM     31  C   UNL     1      45.192   9.791  12.007  0.00  0.00    +0.000 C 
ATOM     32  C   UNL     1      44.079   9.710  10.965  0.00  0.00    +0.000 C 
ATOM     33  N   UNL     1      43.606   8.326  10.997  0.00  0.00    +0.000 NA
ATOM     34  H   UNL     1      43.342   7.983  10.074  0.00  0.00    +0.000 HD
ENDBRANCH  28  29
BRANCH  28  35
ATOM     35  C   UNL     1      43.062   5.535  11.286  0.00  0.00    +0.000 C 
BRANCH  35  36
ATOM     36  O   UNL     1      43.309   5.178   9.916  0.00  0.00    +0.000 OA
ATOM     37  H   UNL     1      42.554   5.494   9.390  0.00  0.00    +0.000 HD
ENDBRANCH  35  36
ENDBRANCH  28  35
ENDBRANCH  26  28
ENDBRANCH  25  26
ENDBRANCH   4  25
TORSDOF 10
ENDMDL
MODEL 6
REMARK VINA RESULT:    -6.809      3.475      8.018
REMARK INTER + INTRA:         -11.190
REMARK INTER:                 -10.042
REMARK INTRA:                  -1.148
REMARK UNBOUND:                -0.599
REMARK  Name = 
REMARK  11 active torsions:
REMARK  status: ('A' for Active; 'I' for Inactive)
REMARK    1  A    between atoms: C_1  and  C_2
REMARK    2  A    between atoms: C_2  and  C_3
REMARK    3  A    between atoms: C_3  and  N_4
REMARK    4  A    between atoms: C_3  and  C_17
REMARK    5  A    between atoms: C_5  and  C_7
REMARK    6  A    between atoms: C_20  and  C_21
REMARK    7  A    between atoms: C_21  and  N_22
REMARK    8  A    between atoms: N_22  and  CA_23
REMARK    9  A    between atoms: CA_23  and  C_24
REMARK   10  A    between atoms: CA_23  and  C_26
REMARK   11  A    between atoms: C_24  and  O_25
REMARK                            x       y       z     vdW  Elec       q    Type
REMARK                         _______ _______ _______ _____ _____    ______ ____
ROOT
ATOM      1  C   UNL     1      48.646   6.811  15.686  0.00  0.00    +0.000 A 
ATOM      2  C   UNL     1      47.973   5.591  15.798  0.00  0.00    +0.000 A 
ATOM      3  C   UNL     1      48.285   4.714  16.832  0.00  0.00    +0.000 A 
ATOM      4  C   UNL     1      49.267   5.078  17.749  0.00  0.00    +0.000 A 
ATOM      5  N   UNL     1      49.925   6.265  17.676  0.00  0.00    +0.000 NA
ATOM      6  C   UNL     1      49.589   7.101  16.667  0.00  0.00    +0.000 A 
ENDROOT
BRANCH   1   7
ATOM      7  C   UNL     1      48.276   7.773  14.578  0.00  0.00    +0.000 C 
BRANCH   7   8
ATOM      8  N   UNL     1      47.090   7.257  13.920  0.00  0.00    +0.000 N 
ATOM      9  C   UNL     1      47.119   6.588  12.728  0.00  0.00    +0.000 C 
ATOM     10  O   UNL     1      48.164   6.283  12.164  0.00  0.00    +0.000 OA
ATOM     11  H   UNL     1      46.201   7.589  14.277  0.00  0.00    +0.000 HD
BRANCH   9  12
ATOM     12  C   UNL     1      45.809   6.211  12.182  0.00  0.00    +0.000 A 
ATOM     13  C   UNL     1      44.994   7.173  11.600  0.00  0.00    +0.000 A 
ATOM     14  S   UNL     1      43.508   6.553  11.037  0.00  0.00    +0.000 S 
ATOM     15  C   UNL     1      43.882   4.990  11.596  0.00  0.00    +0.000 A 
ATOM     16  N   UNL     1      42.988   3.971  11.477  0.00  0.00    +0.000 NA
ATOM     17  C   UNL     1      43.391   2.851  11.973  0.00  0.00    +0.000 A 
ATOM     18  N   UNL     1      44.613   2.646  12.560  0.00  0.00    +0.000 N 
ATOM     19  C   UNL     1      45.573   3.627  12.641  0.00  0.00    +0.000 A 
ATOM     20  O   UNL     1      46.702   3.380  13.060  0.00  0.00    +0.000 OA
ATOM     21  C   UNL     1      45.147   4.925  12.154  0.00  0.00    +0.000 A 
ATOM     22  H   UNL     1      44.880   1.731  12.892  0.00  0.00    +0.000 HD
ENDBRANCH   9  12
ENDBRANCH   7   8
BRANCH   7  24
ATOM     23  C   UNL     1      49.190  10.159  14.597  0.00  0.00    +0.000 C 
ATOM     24  C   UNL     1      48.054   9.235  15.016  0.00  0.00    +0.000 C 
ENDBRANCH   7  24
ENDBRANCH   1   7
BRANCH   4  25
ATOM     25  C   UNL     1      49.640   4.121  18.868  0.00  0.00    +0.000 C 
BRANCH  25  26
ATOM     26  N   UNL     1      51.040   3.670  18.876  0.00  0.00    +0.000 NA
ATOM     27  H   UNL     1      51.160   3.068  19.695  0.00  0.00    +0.000 HD
BRANCH  26  28
ATOM     28  CA  UNL     1      51.433   2.881  17.677  0.00  0.00    +0.000 C 
BRANCH  28  29
ATOM     29  C   UNL     1      52.849   2.270  17.802  0.00  0.00    +0.000 C 
ATOM     30  C   UNL     1      52.952   0.796  17.442  0.00  0.00    +0.000 C 
ATOM     31  C   UNL     1      54.350   0.450  17.934  0.00  0.00    +0.000 C 
ATOM     32  C   UNL     1      54.595   1.400  19.103  0.00  0.00    +0.000 C 
ATOM     33  N   UNL     1      53.429   2.282  19.150  0.00  0.00    +0.000 NA
ATOM     34  H   UNL     1      53.670   3.234  19.423  0.00  0.00    +0.000 HD
ENDBRANCH  28  29
BRANCH  28  35
ATOM     35  C   UNL     1      50.322   1.840  17.390  0.00  0.00    +0.000 C 
BRANCH  35  36
ATOM     36  O   UNL     1      49.986   1.815  15.993  0.00  0.00    +0.000 OA
ATOM     37  H   UNL     1      49.343   1.097  15.860  0.00  0.00    +0.000 HD
ENDBRANCH  35  36
ENDBRANCH  28  35
ENDBRANCH  26  28
ENDBRANCH  25  26
ENDBRANCH   4  25
TORSDOF 10
ENDMDL
MODEL 7
REMARK VINA RESULT:    -6.582      2.755      7.675
REMARK INTER + INTRA:         -10.836
REMARK INTER:                 -10.162
REMARK INTRA:                  -0.674
REMARK UNBOUND:                -0.599
REMARK  Name = 
REMARK  11 active torsions:
REMARK  status: ('A' for Active; 'I' for Inactive)
REMARK    1  A    between atoms: C_1  and  C_2
REMARK    2  A    between atoms: C_2  and  C_3
REMARK    3  A    between atoms: C_3  and  N_4
REMARK    4  A    between atoms: C_3  and  C_17
REMARK    5  A    between atoms: C_5  and  C_7
REMARK    6  A    between atoms: C_20  and  C_21
REMARK    7  A    between atoms: C_21  and  N_22
REMARK    8  A    between atoms: N_22  and  CA_23
REMARK    9  A    between atoms: CA_23  and  C_24
REMARK   10  A    between atoms: CA_23  and  C_26
REMARK   11  A    between atoms: C_24  and  O_25
REMARK                            x       y       z     vdW  Elec       q    Type
REMARK                         _______ _______ _______ _____ _____    ______ ____
ROOT
ATOM      1  C   UNL     1      48.176   7.777  13.855  0.00  0.00    +0.000 A 
ATOM      2  C   UNL     1      48.777   6.605  14.324  0.00  0.00    +0.000 A 
ATOM      3  C   UNL     1      49.132   6.490  15.664  0.00  0.00    +0.000 A 
ATOM      4  C   UNL     1      48.869   7.554  16.522  0.00  0.00    +0.000 A 
ATOM      5  N   UNL     1      48.269   8.698  16.100  0.00  0.00    +0.000 NA
ATOM      6  C   UNL     1      47.925   8.773  14.793  0.00  0.00    +0.000 A 
ENDROOT
BRANCH   1   7
ATOM      7  C   UNL     1      47.764   7.880  12.403  0.00  0.00    +0.000 C 
BRANCH   7   8
ATOM      8  N   UNL     1      46.934   6.730  12.094  0.00  0.00    +0.000 N 
ATOM      9  C   UNL     1      45.570   6.736  12.191  0.00  0.00    +0.000 C 
ATOM     10  O   UNL     1      44.928   7.747  12.454  0.00  0.00    +0.000 OA
ATOM     11  H   UNL     1      47.417   5.845  11.996  0.00  0.00    +0.000 HD
BRANCH   9  12
ATOM     12  C   UNL     1      44.910   5.454  11.912  0.00  0.00    +0.000 A 
ATOM     13  C   UNL     1      44.160   4.827  12.898  0.00  0.00    +0.000 A 
ATOM     14  S   UNL     1      43.484   3.344  12.397  0.00  0.00    +0.000 S 
ATOM     15  C   UNL     1      44.213   3.464  10.864  0.00  0.00    +0.000 A 
ATOM     16  N   UNL     1      44.078   2.469   9.944  0.00  0.00    +0.000 NA
ATOM     17  C   UNL     1      44.710   2.679   8.840  0.00  0.00    +0.000 A 
ATOM     18  N   UNL     1      45.449   3.799   8.557  0.00  0.00    +0.000 N 
ATOM     19  C   UNL     1      45.556   4.857   9.428  0.00  0.00    +0.000 A 
ATOM     20  O   UNL     1      46.122   5.898   9.098  0.00  0.00    +0.000 OA
ATOM     21  C   UNL     1      44.916   4.646  10.712  0.00  0.00    +0.000 A 
ATOM     22  H   UNL     1      45.886   3.916   7.655  0.00  0.00    +0.000 HD
ENDBRANCH   9  12
ENDBRANCH   7   8
BRANCH   7  24
ATOM     23  C   UNL     1      47.996  10.279  11.552  0.00  0.00    +0.000 C 
ATOM     24  C   UNL     1      47.040   9.184  12.010  0.00  0.00    +0.000 C 
ENDBRANCH   7  24
ENDBRANCH   1   7
BRANCH   4  25
ATOM     25  C   UNL     1      49.274   7.457  17.984  0.00  0.00    +0.000 C 
BRANCH  25  26
ATOM     26  N   UNL     1      49.732   6.132  18.428  0.00  0.00    +0.000 NA
ATOM     27  H   UNL     1      50.283   6.271  19.278  0.00  0.00    +0.000 HD
BRANCH  26  28
ATOM     28  CA  UNL     1      48.631   5.185  18.756  0.00  0.00    +0.000 C 
BRANCH  28  29
ATOM     29  C   UNL     1      48.883   3.763  18.201  0.00  0.00    +0.000 C 
ATOM     30  C   UNL     1      50.305   3.492  17.736  0.00  0.00    +0.000 C 
ATOM     31  C   UNL     1      50.150   2.165  17.007  0.00  0.00    +0.000 C 
ATOM     32  C   UNL     1      48.717   2.179  16.480  0.00  0.00    +0.000 C 
ATOM     33  N   UNL     1      48.112   3.402  17.005  0.00  0.00    +0.000 NA
ATOM     34  H   UNL     1      47.128   3.280  17.242  0.00  0.00    +0.000 HD
ENDBRANCH  28  29
BRANCH  28  35
ATOM     35  C   UNL     1      48.386   5.229  20.285  0.00  0.00    +0.000 C 
BRANCH  35  36
ATOM     36  O   UNL     1      48.410   3.909  20.850  0.00  0.00    +0.000 OA
ATOM     37  H   UNL     1      47.999   3.307  20.204  0.00  0.00    +0.000 HD
ENDBRANCH  35  36
ENDBRANCH  28  35
ENDBRANCH  26  28
ENDBRANCH  25  26
ENDBRANCH   4  25
TORSDOF 10
ENDMDL
MODEL 8
REMARK VINA RESULT:    -6.493      3.440      5.208
REMARK INTER + INTRA:         -10.698
REMARK INTER:                  -9.258
REMARK INTRA:                  -1.440
REMARK UNBOUND:                -0.599
REMARK  Name = 
REMARK  11 active torsions:
REMARK  status: ('A' for Active; 'I' for Inactive)
REMARK    1  A    between atoms: C_1  and  C_2
REMARK    2  A    between atoms: C_2  and  C_3
REMARK    3  A    between atoms: C_3  and  N_4
REMARK    4  A    between atoms: C_3  and  C_17
REMARK    5  A    between atoms: C_5  and  C_7
REMARK    6  A    between atoms: C_20  and  C_21
REMARK    7  A    between atoms: C_21  and  N_22
REMARK    8  A    between atoms: N_22  and  CA_23
REMARK    9  A    between atoms: CA_23  and  C_24
REMARK   10  A    between atoms: CA_23  and  C_26
REMARK   11  A    between atoms: C_24  and  O_25
REMARK                            x       y       z     vdW  Elec       q    Type
REMARK                         _______ _______ _______ _____ _____    ______ ____
ROOT
ATOM      1  C   UNL     1      50.063   7.190  15.414  0.00  0.00    +0.000 A 
ATOM      2  C   UNL     1      50.102   7.757  14.137  0.00  0.00    +0.000 A 
ATOM      3  C   UNL     1      49.154   7.398  13.183  0.00  0.00    +0.000 A 
ATOM      4  C   UNL     1      48.170   6.476  13.528  0.00  0.00    +0.000 A 
ATOM      5  N   UNL     1      48.096   5.922  14.767  0.00  0.00    +0.000 NA
ATOM      6  C   UNL     1      49.024   6.302  15.675  0.00  0.00    +0.000 A 
ENDROOT
BRANCH   1   7
ATOM      7  C   UNL     1      51.078   7.612  16.454  0.00  0.00    +0.000 C 
BRANCH   7   8
ATOM      8  N   UNL     1      51.725   6.413  16.954  0.00  0.00    +0.000 N 
ATOM      9  C   UNL     1      51.461   5.868  18.181  0.00  0.00    +0.000 C 
ATOM     10  O   UNL     1      50.581   6.296  18.920  0.00  0.00    +0.000 OA
ATOM     11  H   UNL     1      52.540   6.098  16.441  0.00  0.00    +0.000 HD
BRANCH   9  12
ATOM     12  C   UNL     1      52.272   4.699  18.542  0.00  0.00    +0.000 A 
ATOM     13  C   UNL     1      53.414   4.856  19.316  0.00  0.00    +0.000 A 
ATOM     14  S   UNL     1      54.234   3.392  19.621  0.00  0.00    +0.000 S 
ATOM     15  C   UNL     1      53.120   2.507  18.687  0.00  0.00    +0.000 A 
ATOM     16  N   UNL     1      53.279   1.170  18.488  0.00  0.00    +0.000 NA
ATOM     17  C   UNL     1      52.379   0.635  17.734  0.00  0.00    +0.000 A 
ATOM     18  N   UNL     1      51.322   1.306  17.175  0.00  0.00    +0.000 N 
ATOM     19  C   UNL     1      51.084   2.640  17.404  0.00  0.00    +0.000 A 
ATOM     20  O   UNL     1      50.062   3.185  16.991  0.00  0.00    +0.000 OA
ATOM     21  C   UNL     1      52.102   3.305  18.195  0.00  0.00    +0.000 A 
ATOM     22  H   UNL     1      50.631   0.816  16.626  0.00  0.00    +0.000 HD
ENDBRANCH   9  12
ENDBRANCH   7   8
BRANCH   7  24
ATOM     23  C   UNL     1      52.844   9.332  17.126  0.00  0.00    +0.000 C 
ATOM     24  C   UNL     1      52.132   8.631  15.975  0.00  0.00    +0.000 C 
ENDBRANCH   7  24
ENDBRANCH   1   7
BRANCH   4  25
ATOM     25  C   UNL     1      47.143   6.051  12.492  0.00  0.00    +0.000 C 
BRANCH  25  26
ATOM     26  N   UNL     1      46.682   7.112  11.584  0.00  0.00    +0.000 NA
ATOM     27  H   UNL     1      47.267   7.069  10.746  0.00  0.00    +0.000 HD
BRANCH  26  28
ATOM     28  CA  UNL     1      45.265   6.970  11.152  0.00  0.00    +0.000 C 
BRANCH  28  29
ATOM     29  C   UNL     1      44.584   5.713  11.744  0.00  0.00    +0.000 C 
ATOM     30  C   UNL     1      43.778   4.886  10.754  0.00  0.00    +0.000 C 
ATOM     31  C   UNL     1      43.032   3.933  11.675  0.00  0.00    +0.000 C 
ATOM     32  C   UNL     1      42.863   4.708  12.980  0.00  0.00    +0.000 C 
ATOM     33  N   UNL     1      43.587   5.964  12.792  0.00  0.00    +0.000 NA
ATOM     34  H   UNL     1      44.045   6.282  13.646  0.00  0.00    +0.000 HD
ENDBRANCH  28  29
BRANCH  28  35
ATOM     35  C   UNL     1      44.523   8.294  11.463  0.00  0.00    +0.000 C 
BRANCH  35  36
ATOM     36  O   UNL     1      43.178   8.263  10.958  0.00  0.00    +0.000 OA
ATOM     37  H   UNL     1      43.212   7.893  10.058  0.00  0.00    +0.000 HD
ENDBRANCH  35  36
ENDBRANCH  28  35
ENDBRANCH  26  28
ENDBRANCH  25  26
ENDBRANCH   4  25
TORSDOF 10
ENDMDL
MODEL 9
REMARK VINA RESULT:    -6.017      6.061      8.484
REMARK INTER + INTRA:          -9.957
REMARK INTER:                  -8.931
REMARK INTRA:                  -1.027
REMARK UNBOUND:                -0.599
REMARK  Name = 
REMARK  11 active torsions:
REMARK  status: ('A' for Active; 'I' for Inactive)
REMARK    1  A    between atoms: C_1  and  C_2
REMARK    2  A    between atoms: C_2  and  C_3
REMARK    3  A    between atoms: C_3  and  N_4
REMARK    4  A    between atoms: C_3  and  C_17
REMARK    5  A    between atoms: C_5  and  C_7
REMARK    6  A    between atoms: C_20  and  C_21
REMARK    7  A    between atoms: C_21  and  N_22
REMARK    8  A    between atoms: N_22  and  CA_23
REMARK    9  A    between atoms: CA_23  and  C_24
REMARK   10  A    between atoms: CA_23  and  C_26
REMARK   11  A    between atoms: C_24  and  O_25
REMARK                            x       y       z     vdW  Elec       q    Type
REMARK                         _______ _______ _______ _____ _____    ______ ____
ROOT
ATOM      1  C   UNL     1      51.377   3.181  17.855  0.00  0.00    +0.000 A 
ATOM      2  C   UNL     1      50.629   2.090  17.404  0.00  0.00    +0.000 A 
ATOM      3  C   UNL     1      49.370   2.290  16.846  0.00  0.00    +0.000 A 
ATOM      4  C   UNL     1      48.881   3.588  16.738  0.00  0.00    +0.000 A 
ATOM      5  N   UNL     1      49.593   4.670  17.151  0.00  0.00    +0.000 NA
ATOM      6  C   UNL     1      50.819   4.443  17.678  0.00  0.00    +0.000 A 
ENDROOT
BRANCH   1   7
ATOM      7  C   UNL     1      52.758   2.957  18.431  0.00  0.00    +0.000 C 
BRANCH   7   8
ATOM      8  N   UNL     1      53.289   1.738  17.849  0.00  0.00    +0.000 N 
ATOM      9  C   UNL     1      54.127   0.885  18.515  0.00  0.00    +0.000 C 
ATOM     10  O   UNL     1      54.421   1.034  19.696  0.00  0.00    +0.000 OA
ATOM     11  H   UNL     1      53.179   1.636  16.847  0.00  0.00    +0.000 HD
BRANCH   9  12
ATOM     12  C   UNL     1      54.620  -0.256  17.734  0.00  0.00    +0.000 A 
ATOM     13  C   UNL     1      55.285  -0.043  16.534  0.00  0.00    +0.000 A 
ATOM     14  S   UNL     1      55.771  -1.484  15.762  0.00  0.00    +0.000 S 
ATOM     15  C   UNL     1      55.064  -2.442  16.979  0.00  0.00    +0.000 A 
ATOM     16  N   UNL     1      55.074  -3.800  16.895  0.00  0.00    +0.000 NA
ATOM     17  C   UNL     1      54.475  -4.396  17.870  0.00  0.00    +0.000 A 
ATOM     18  N   UNL     1      53.883  -3.763  18.932  0.00  0.00    +0.000 N 
ATOM     19  C   UNL     1      53.908  -2.398  19.093  0.00  0.00    +0.000 A 
ATOM     20  O   UNL     1      53.477  -1.870  20.116  0.00  0.00    +0.000 OA
ATOM     21  C   UNL     1      54.515  -1.675  17.991  0.00  0.00    +0.000 A 
ATOM     22  H   UNL     1      53.465  -4.294  19.682  0.00  0.00    +0.000 HD
ENDBRANCH   9  12
ENDBRANCH   7   8
BRANCH   7  24
ATOM     23  C   UNL     1      54.641   3.944  17.014  0.00  0.00    +0.000 C 
ATOM     24  C   UNL     1      53.753   4.119  18.239  0.00  0.00    +0.000 C 
ENDBRANCH   7  24
ENDBRANCH   1   7
BRANCH   4  25
ATOM     25  C   UNL     1      47.497   3.824  16.156  0.00  0.00    +0.000 C 
BRANCH  25  26
ATOM     26  N   UNL     1      47.327   5.082  15.414  0.00  0.00    +0.000 NA
ATOM     27  H   UNL     1      48.190   5.619  15.527  0.00  0.00    +0.000 HD
BRANCH  26  28
ATOM     28  CA  UNL     1      47.097   4.902  13.954  0.00  0.00    +0.000 C 
BRANCH  28  29
ATOM     29  C   UNL     1      45.604   4.696  13.607  0.00  0.00    +0.000 C 
ATOM     30  C   UNL     1      45.328   3.677  12.512  0.00  0.00    +0.000 C 
ATOM     31  C   UNL     1      43.854   3.920  12.221  0.00  0.00    +0.000 C 
ATOM     32  C   UNL     1      43.634   5.396  12.544  0.00  0.00    +0.000 C 
ATOM     33  N   UNL     1      44.903   5.877  13.089  0.00  0.00    +0.000 NA
ATOM     34  H   UNL     1      44.774   6.565  13.830  0.00  0.00    +0.000 HD
ENDBRANCH  28  29
BRANCH  28  35
ATOM     35  C   UNL     1      47.761   6.084  13.204  0.00  0.00    +0.000 C 
BRANCH  35  36
ATOM     36  O   UNL     1      49.093   6.318  13.687  0.00  0.00    +0.000 OA
ATOM     37  H   UNL     1      49.071   7.126  14.228  0.00  0.00    +0.000 HD
ENDBRANCH  35  36
ENDBRANCH  28  35
ENDBRANCH  26  28
ENDBRANCH  25  26
ENDBRANCH   4  25
TORSDOF 10
ENDMDL
