MODEL 1
REMARK VINA RESULT:    -8.082      0.000      0.000
REMARK INTER + INTRA:         -12.735
REMARK INTER:                 -11.862
REMARK INTRA:                  -0.873
REMARK UNBOUND:                -0.873
REMARK  Name = 
REMARK  10 active torsions:
REMARK  status: ('A' for Active; 'I' for Inactive)
REMARK    1  A    between atoms: C_1  and  O_2
REMARK    2  A    between atoms: O_2  and  C_3
REMARK    3  A    between atoms: C_10  and  C_11
REMARK    4  A    between atoms: N_13  and  C_14
REMARK    5  A    between atoms: C_14  and  C_15
REMARK    6  A    between atoms: C_18  and  O_19
REMARK    7  A    between atoms: O_19  and  C_20
REMARK    8  A    between atoms: C_20  and  C_21
REMARK    9  A    between atoms: C_21  and  N_22
REMARK   10  A    between atoms: C_26  and  C_27
REMARK                            x       y       z     vdW  Elec       q    Type
REMARK                         _______ _______ _______ _____ _____    ______ ____
ROOT
ATOM      1  C   UNL     1      48.267   7.017  14.124  0.00  0.00    +0.000 A 
ATOM      2  C   UNL     1      47.538   5.818  14.125  0.00  0.00    +0.000 A 
ATOM      3  C   UNL     1      46.777   5.441  13.009  0.00  0.00    +0.000 A 
ATOM      4  C   UNL     1      46.727   6.264  11.885  0.00  0.00    +0.000 A 
ATOM      5  C   UNL     1      47.536   7.401  11.838  0.00  0.00    +0.000 A 
ATOM      6  C   UNL     1      48.307   7.771  12.945  0.00  0.00    +0.000 A 
ENDROOT
BRANCH   1   7
ATOM      7  C   UNL     1      48.957   7.515  15.368  0.00  0.00    +0.000 C 
BRANCH   7  10
ATOM      8  C   UNL     1      49.811   6.026  17.105  0.00  0.00    +0.000 C 
ATOM      9  O   UNL     1      48.838   6.269  17.809  0.00  0.00    +0.000 OA
ATOM     10  N   UNL     1      49.952   6.602  15.868  0.00  0.00    +0.000 N 
ATOM     11  H   UNL     1      50.758   6.406  15.293  0.00  0.00    +0.000 HD
BRANCH   8  19
ATOM     12  C   UNL     1      50.252   2.602  16.996  0.00  0.00    +0.000 A 
ATOM     13  N   UNL     1      50.672   1.324  17.107  0.00  0.00    +0.000 NA
ATOM     14  C   UNL     1      51.846   1.095  17.699  0.00  0.00    +0.000 A 
ATOM     15  N   UNL     1      52.675   2.000  18.202  0.00  0.00    +0.000 NA
ATOM     16  C   UNL     1      52.215   3.258  18.083  0.00  0.00    +0.000 A 
ATOM     17  S   UNL     1      53.151   4.543  18.678  0.00  0.00    +0.000 S 
ATOM     18  C   UNL     1      51.987   5.677  18.192  0.00  0.00    +0.000 A 
ATOM     19  C   UNL     1      50.877   5.117  17.562  0.00  0.00    +0.000 A 
ATOM     20  C   UNL     1      51.018   3.665  17.502  0.00  0.00    +0.000 A 
BRANCH  12  22
ATOM     21  C   UNL     1      47.954   2.827  17.310  0.00  0.00    +0.000 C 
ATOM     22  O   UNL     1      49.037   2.827  16.378  0.00  0.00    +0.000 OA
ENDBRANCH  12  22
ENDBRANCH   8  19
ENDBRANCH   7  10
ENDBRANCH   1   7
BRANCH   4  23
ATOM     23  O   UNL     1      45.942   6.055  10.782  0.00  0.00    +0.000 OA
BRANCH  23  24
ATOM     24  C   UNL     1      44.680   5.406  11.014  0.00  0.00    +0.000 C 
BRANCH  24  25
ATOM     25  C   UNL     1      44.853   3.892  10.757  0.00  0.00    +0.000 C 
BRANCH  25  26
ATOM     26  N   UNL     1      44.240   3.391   9.514  0.00  0.00    +0.000 NA
ATOM     27  C   UNL     1      44.464   1.954   9.243  0.00  0.00    +0.000 C 
ATOM     28  C   UNL     1      45.844   1.559   8.670  0.00  0.00    +0.000 C 
ATOM     29  N   UNL     1      46.283   2.439   7.580  0.00  0.00    +0.000 N 
ATOM     30  C   UNL     1      46.982   1.889   6.520  0.00  0.00    +0.000 C 
ATOM     31  C   UNL     1      47.474   2.781   5.404  0.00  0.00    +0.000 C 
ATOM     32  O   UNL     1      47.179   0.674   6.431  0.00  0.00    +0.000 OA
ATOM     33  C   UNL     1      46.114   3.867   7.858  0.00  0.00    +0.000 C 
ATOM     34  C   UNL     1      44.683   4.173   8.338  0.00  0.00    +0.000 C 
ENDBRANCH  25  26
ENDBRANCH  24  25
ENDBRANCH  23  24
ENDBRANCH   4  23
TORSDOF 8
ENDMDL
MODEL 2
REMARK VINA RESULT:    -7.479      2.377      2.700
REMARK INTER + INTRA:         -11.849
REMARK INTER:                 -10.888
REMARK INTRA:                  -0.961
REMARK UNBOUND:                -0.873
REMARK  Name = 
REMARK  10 active torsions:
REMARK  status: ('A' for Active; 'I' for Inactive)
REMARK    1  A    between atoms: C_1  and  O_2
REMARK    2  A    between atoms: O_2  and  C_3
REMARK    3  A    between atoms: C_10  and  C_11
REMARK    4  A    between atoms: N_13  and  C_14
REMARK    5  A    between atoms: C_14  and  C_15
REMARK    6  A    between atoms: C_18  and  O_19
REMARK    7  A    between atoms: O_19  and  C_20
REMARK    8  A    between atoms: C_20  and  C_21
REMARK    9  A    between atoms: C_21  and  N_22
REMARK   10  A    between atoms: C_26  and  C_27
REMARK                            x       y       z     vdW  Elec       q    Type
REMARK                         _______ _______ _______ _____ _____    ______ ____
ROOT
ATOM      1  C   UNL     1      47.655   6.516  13.547  0.00  0.00    +0.000 A 
ATOM      2  C   UNL     1      47.385   5.168  13.826  0.00  0.00    +0.000 A 
ATOM      3  C   UNL     1      46.133   4.611  13.527  0.00  0.00    +0.000 A 
ATOM      4  C   UNL     1      45.133   5.400  12.958  0.00  0.00    +0.000 A 
ATOM      5  C   UNL     1      45.434   6.709  12.580  0.00  0.00    +0.000 A 
ATOM      6  C   UNL     1      46.687   7.262  12.863  0.00  0.00    +0.000 A 
ENDROOT
BRANCH   1   7
ATOM      7  C   UNL     1      48.932   7.170  14.007  0.00  0.00    +0.000 C 
BRANCH   7  10
ATOM      8  C   UNL     1      48.789   7.941  16.320  0.00  0.00    +0.000 C 
ATOM      9  O   UNL     1      48.210   8.958  15.958  0.00  0.00    +0.000 OA
ATOM     10  N   UNL     1      49.185   6.991  15.413  0.00  0.00    +0.000 N 
ATOM     11  H   UNL     1      49.668   6.157  15.713  0.00  0.00    +0.000 HD
BRANCH   8  19
ATOM     12  C   UNL     1      48.497   5.208  18.410  0.00  0.00    +0.000 A 
ATOM     13  N   UNL     1      48.478   4.330  19.436  0.00  0.00    +0.000 NA
ATOM     14  C   UNL     1      48.916   4.741  20.628  0.00  0.00    +0.000 A 
ATOM     15  N   UNL     1      49.384   5.945  20.932  0.00  0.00    +0.000 NA
ATOM     16  C   UNL     1      49.375   6.793  19.889  0.00  0.00    +0.000 A 
ATOM     17  S   UNL     1      49.939   8.379  20.103  0.00  0.00    +0.000 S 
ATOM     18  C   UNL     1      49.622   8.761  18.482  0.00  0.00    +0.000 A 
ATOM     19  C   UNL     1      49.098   7.703  17.741  0.00  0.00    +0.000 A 
ATOM     20  C   UNL     1      48.949   6.526  18.591  0.00  0.00    +0.000 A 
BRANCH  12  22
ATOM     21  C   UNL     1      47.287   3.562  17.289  0.00  0.00    +0.000 C 
ATOM     22  O   UNL     1      48.045   4.769  17.181  0.00  0.00    +0.000 OA
ENDBRANCH  12  22
ENDBRANCH   8  19
ENDBRANCH   7  10
ENDBRANCH   1   7
BRANCH   4  23
ATOM     23  O   UNL     1      43.846   4.999  12.719  0.00  0.00    +0.000 OA
BRANCH  23  24
ATOM     24  C   UNL     1      43.688   3.762  12.001  0.00  0.00    +0.000 C 
BRANCH  24  25
ATOM     25  C   UNL     1      44.647   3.774  10.789  0.00  0.00    +0.000 C 
BRANCH  25  26
ATOM     26  N   UNL     1      44.083   3.238   9.536  0.00  0.00    +0.000 NA
ATOM     27  C   UNL     1      44.416   1.823   9.258  0.00  0.00    +0.000 C 
ATOM     28  C   UNL     1      45.827   1.538   8.695  0.00  0.00    +0.000 C 
ATOM     29  N   UNL     1      46.208   2.456   7.615  0.00  0.00    +0.000 N 
ATOM     30  C   UNL     1      46.955   1.967   6.557  0.00  0.00    +0.000 C 
ATOM     31  C   UNL     1      47.389   2.901   5.452  0.00  0.00    +0.000 C 
ATOM     32  O   UNL     1      47.244   0.771   6.462  0.00  0.00    +0.000 OA
ATOM     33  C   UNL     1      45.931   3.865   7.900  0.00  0.00    +0.000 C 
ATOM     34  C   UNL     1      44.477   4.060   8.370  0.00  0.00    +0.000 C 
ENDBRANCH  25  26
ENDBRANCH  24  25
ENDBRANCH  23  24
ENDBRANCH   4  23
TORSDOF 8
ENDMDL
MODEL 3
REMARK VINA RESULT:    -7.108      2.847      4.261
REMARK INTER + INTRA:         -11.306
REMARK INTER:                 -10.444
REMARK INTRA:                  -0.861
REMARK UNBOUND:                -0.873
REMARK  Name = 
REMARK  10 active torsions:
REMARK  status: ('A' for Active; 'I' for Inactive)
REMARK    1  A    between atoms: C_1  and  O_2
REMARK    2  A    between atoms: O_2  and  C_3
REMARK    3  A    between atoms: C_10  and  C_11
REMARK    4  A    between atoms: N_13  and  C_14
REMARK    5  A    between atoms: C_14  and  C_15
REMARK    6  A    between atoms: C_18  and  O_19
REMARK    7  A    between atoms: O_19  and  C_20
REMARK    8  A    between atoms: C_20  and  C_21
REMARK    9  A    between atoms: C_21  and  N_22
REMARK   10  A    between atoms: C_26  and  C_27
REMARK                            x       y       z     vdW  Elec       q    Type
REMARK                         _______ _______ _______ _____ _____    ______ ____
ROOT
ATOM      1  C   UNL     1      47.552   6.380  13.619  0.00  0.00    +0.000 A 
ATOM      2  C   UNL     1      46.907   5.178  13.946  0.00  0.00    +0.000 A 
ATOM      3  C   UNL     1      45.763   4.765  13.247  0.00  0.00    +0.000 A 
ATOM      4  C   UNL     1      45.245   5.557  12.223  0.00  0.00    +0.000 A 
ATOM      5  C   UNL     1      45.945   6.696  11.824  0.00  0.00    +0.000 A 
ATOM      6  C   UNL     1      47.095   7.102  12.510  0.00  0.00    +0.000 A 
ENDROOT
BRANCH   1   7
ATOM      7  C   UNL     1      48.681   6.917  14.461  0.00  0.00    +0.000 C 
BRANCH   7  10
ATOM      8  C   UNL     1      48.794   6.297  16.821  0.00  0.00    +0.000 C 
ATOM      9  O   UNL     1      49.551   5.372  16.554  0.00  0.00    +0.000 OA
ATOM     10  N   UNL     1      48.311   7.123  15.838  0.00  0.00    +0.000 N 
ATOM     11  H   UNL     1      47.682   7.881  16.059  0.00  0.00    +0.000 HD
BRANCH   8  19
ATOM     12  C   UNL     1      47.726   9.110  18.517  0.00  0.00    +0.000 A 
ATOM     13  N   UNL     1      47.303  10.026  19.414  0.00  0.00    +0.000 NA
ATOM     14  C   UNL     1      47.059   9.621  20.663  0.00  0.00    +0.000 A 
ATOM     15  N   UNL     1      47.184   8.389  21.139  0.00  0.00    +0.000 NA
ATOM     16  C   UNL     1      47.618   7.510  20.219  0.00  0.00    +0.000 A 
ATOM     17  S   UNL     1      47.836   5.886  20.660  0.00  0.00    +0.000 S 
ATOM     18  C   UNL     1      48.351   5.481  19.096  0.00  0.00    +0.000 A 
ATOM     19  C   UNL     1      48.359   6.554  18.206  0.00  0.00    +0.000 A 
ATOM     20  C   UNL     1      47.921   7.769  18.886  0.00  0.00    +0.000 A 
BRANCH  12  22
ATOM     21  C   UNL     1      48.549  10.847  17.200  0.00  0.00    +0.000 C 
ATOM     22  O   UNL     1      47.971   9.541  17.228  0.00  0.00    +0.000 OA
ENDBRANCH  12  22
ENDBRANCH   8  19
ENDBRANCH   7  10
ENDBRANCH   1   7
BRANCH   4  23
ATOM     23  O   UNL     1      44.082   5.312  11.542  0.00  0.00    +0.000 OA
BRANCH  23  24
ATOM     24  C   UNL     1      43.610   3.953  11.556  0.00  0.00    +0.000 C 
BRANCH  24  25
ATOM     25  C   UNL     1      44.594   3.085  10.740  0.00  0.00    +0.000 C 
BRANCH  25  26
ATOM     26  N   UNL     1      44.134   2.716   9.389  0.00  0.00    +0.000 NA
ATOM     27  C   UNL     1      44.619   1.406   8.901  0.00  0.00    +0.000 C 
ATOM     28  C   UNL     1      46.071   1.353   8.374  0.00  0.00    +0.000 C 
ATOM     29  N   UNL     1      46.396   2.471   7.480  0.00  0.00    +0.000 N 
ATOM     30  C   UNL     1      47.227   2.239   6.398  0.00  0.00    +0.000 C 
ATOM     31  C   UNL     1      47.603   3.382   5.484  0.00  0.00    +0.000 C 
ATOM     32  O   UNL     1      47.639   1.108   6.124  0.00  0.00    +0.000 OA
ATOM     33  C   UNL     1      45.967   3.779   7.977  0.00  0.00    +0.000 C 
ATOM     34  C   UNL     1      44.484   3.755   8.395  0.00  0.00    +0.000 C 
ENDBRANCH  25  26
ENDBRANCH  24  25
ENDBRANCH  23  24
ENDBRANCH   4  23
TORSDOF 8
ENDMDL
MODEL 4
REMARK VINA RESULT:    -6.899      3.916      9.130
REMARK INTER + INTRA:         -10.998
REMARK INTER:                  -9.553
REMARK INTRA:                  -1.445
REMARK UNBOUND:                -0.873
REMARK  Name = 
REMARK  10 active torsions:
REMARK  status: ('A' for Active; 'I' for Inactive)
REMARK    1  A    between atoms: C_1  and  O_2
REMARK    2  A    between atoms: O_2  and  C_3
REMARK    3  A    between atoms: C_10  and  C_11
REMARK    4  A    between atoms: N_13  and  C_14
REMARK    5  A    between atoms: C_14  and  C_15
REMARK    6  A    between atoms: C_18  and  O_19
REMARK    7  A    between atoms: O_19  and  C_20
REMARK    8  A    between atoms: C_20  and  C_21
REMARK    9  A    between atoms: C_21  and  N_22
REMARK   10  A    between atoms: C_26  and  C_27
REMARK                            x       y       z     vdW  Elec       q    Type
REMARK                         _______ _______ _______ _____ _____    ______ ____
ROOT
ATOM      1  C   UNL     1      48.837   3.201  17.409  0.00  0.00    +0.000 A 
ATOM      2  C   UNL     1      49.647   2.114  17.048  0.00  0.00    +0.000 A 
ATOM      3  C   UNL     1      51.034   2.154  17.255  0.00  0.00    +0.000 A 
ATOM      4  C   UNL     1      51.626   3.287  17.812  0.00  0.00    +0.000 A 
ATOM      5  C   UNL     1      50.812   4.324  18.270  0.00  0.00    +0.000 A 
ATOM      6  C   UNL     1      49.427   4.280  18.079  0.00  0.00    +0.000 A 
ENDROOT
BRANCH   1   7
ATOM      7  C   UNL     1      47.374   3.241  17.047  0.00  0.00    +0.000 C 
BRANCH   7  10
ATOM      8  C   UNL     1      47.077   4.158  14.802  0.00  0.00    +0.000 C 
ATOM      9  O   UNL     1      47.391   3.081  14.309  0.00  0.00    +0.000 OA
ATOM     10  N   UNL     1      47.039   4.327  16.163  0.00  0.00    +0.000 N 
ATOM     11  H   UNL     1      46.787   5.217  16.568  0.00  0.00    +0.000 HD
BRANCH   8  19
ATOM     12  C   UNL     1      44.453   4.900  12.685  0.00  0.00    +0.000 A 
ATOM     13  N   UNL     1      43.584   5.438  11.802  0.00  0.00    +0.000 NA
ATOM     14  C   UNL     1      43.853   6.650  11.309  0.00  0.00    +0.000 A 
ATOM     15  N   UNL     1      44.900   7.411  11.596  0.00  0.00    +0.000 NA
ATOM     16  C   UNL     1      45.747   6.836  12.468  0.00  0.00    +0.000 A 
ATOM     17  S   UNL     1      47.144   7.674  12.942  0.00  0.00    +0.000 S 
ATOM     18  C   UNL     1      47.626   6.395  13.947  0.00  0.00    +0.000 A 
ATOM     19  C   UNL     1      46.742   5.317  13.957  0.00  0.00    +0.000 A 
ATOM     20  C   UNL     1      45.618   5.586  13.066  0.00  0.00    +0.000 A 
BRANCH  12  22
ATOM     21  C   UNL     1      43.498   2.824  12.229  0.00  0.00    +0.000 C 
ATOM     22  O   UNL     1      44.162   3.648  13.189  0.00  0.00    +0.000 OA
ENDBRANCH  12  22
ENDBRANCH   8  19
ENDBRANCH   7  10
ENDBRANCH   1   7
BRANCH   4  23
ATOM     23  O   UNL     1      52.973   3.484  17.965  0.00  0.00    +0.000 OA
BRANCH  23  24
ATOM     24  C   UNL     1      53.374   4.762  18.488  0.00  0.00    +0.000 C 
BRANCH  24  25
ATOM     25  C   UNL     1      54.174   5.508  17.396  0.00  0.00    +0.000 C 
BRANCH  25  26
ATOM     26  N   UNL     1      53.973   6.968  17.356  0.00  0.00    +0.000 NA
ATOM     27  C   UNL     1      52.560   7.405  17.373  0.00  0.00    +0.000 C 
ATOM     28  C   UNL     1      51.784   7.305  16.041  0.00  0.00    +0.000 C 
ATOM     29  N   UNL     1      52.545   7.821  14.896  0.00  0.00    +0.000 N 
ATOM     30  C   UNL     1      51.869   8.500  13.897  0.00  0.00    +0.000 C 
ATOM     31  C   UNL     1      52.627   9.009  12.693  0.00  0.00    +0.000 C 
ATOM     32  O   UNL     1      50.663   8.746  13.979  0.00  0.00    +0.000 OA
ATOM     33  C   UNL     1      53.932   7.354  14.840  0.00  0.00    +0.000 C 
ATOM     34  C   UNL     1      54.647   7.575  16.186  0.00  0.00    +0.000 C 
ENDBRANCH  25  26
ENDBRANCH  24  25
ENDBRANCH  23  24
ENDBRANCH   4  23
TORSDOF 8
ENDMDL
MODEL 5
REMARK VINA RESULT:    -6.825      2.442      3.592
REMARK INTER + INTRA:         -10.890
REMARK INTER:                 -10.074
REMARK INTRA:                  -0.816
REMARK UNBOUND:                -0.873
REMARK  Name = 
REMARK  10 active torsions:
REMARK  status: ('A' for Active; 'I' for Inactive)
REMARK    1  A    between atoms: C_1  and  O_2
REMARK    2  A    between atoms: O_2  and  C_3
REMARK    3  A    between atoms: C_10  and  C_11
REMARK    4  A    between atoms: N_13  and  C_14
REMARK    5  A    between atoms: C_14  and  C_15
REMARK    6  A    between atoms: C_18  and  O_19
REMARK    7  A    between atoms: O_19  and  C_20
REMARK    8  A    between atoms: C_20  and  C_21
REMARK    9  A    between atoms: C_21  and  N_22
REMARK   10  A    between atoms: C_26  and  C_27
REMARK                            x       y       z     vdW  Elec       q    Type
REMARK                         _______ _______ _______ _____ _____    ______ ____
ROOT
ATOM      1  C   UNL     1      45.462   7.635  12.532  0.00  0.00    +0.000 A 
ATOM      2  C   UNL     1      45.689   6.440  13.230  0.00  0.00    +0.000 A 
ATOM      3  C   UNL     1      44.881   5.315  13.008  0.00  0.00    +0.000 A 
ATOM      4  C   UNL     1      43.828   5.378  12.096  0.00  0.00    +0.000 A 
ATOM      5  C   UNL     1      43.667   6.529  11.322  0.00  0.00    +0.000 A 
ATOM      6  C   UNL     1      44.482   7.647  11.531  0.00  0.00    +0.000 A 
ENDROOT
BRANCH   1   7
ATOM      7  C   UNL     1      46.213   8.897  12.873  0.00  0.00    +0.000 C 
BRANCH   7  10
ATOM      8  C   UNL     1      48.620   8.503  13.013  0.00  0.00    +0.000 C 
ATOM      9  O   UNL     1      48.714   8.576  11.793  0.00  0.00    +0.000 OA
ATOM     10  N   UNL     1      47.408   8.654  13.638  0.00  0.00    +0.000 N 
ATOM     11  H   UNL     1      47.331   8.587  14.643  0.00  0.00    +0.000 HD
BRANCH   8  19
ATOM     12  C   UNL     1      49.259   6.336  15.625  0.00  0.00    +0.000 A 
ATOM     13  N   UNL     1      49.773   5.628  16.653  0.00  0.00    +0.000 NA
ATOM     14  C   UNL     1      51.035   5.866  17.016  0.00  0.00    +0.000 A 
ATOM     15  N   UNL     1      51.870   6.740  16.468  0.00  0.00    +0.000 NA
ATOM     16  C   UNL     1      51.317   7.434  15.457  0.00  0.00    +0.000 A 
ATOM     17  S   UNL     1      52.246   8.598  14.645  0.00  0.00    +0.000 S 
ATOM     18  C   UNL     1      50.952   8.983  13.619  0.00  0.00    +0.000 A 
ATOM     19  C   UNL     1      49.798   8.238  13.856  0.00  0.00    +0.000 A 
ATOM     20  C   UNL     1      50.022   7.312  14.962  0.00  0.00    +0.000 A 
BRANCH  12  22
ATOM     21  C   UNL     1      47.549   4.752  15.606  0.00  0.00    +0.000 C 
ATOM     22  O   UNL     1      47.953   6.078  15.257  0.00  0.00    +0.000 OA
ENDBRANCH  12  22
ENDBRANCH   8  19
ENDBRANCH   7  10
ENDBRANCH   1   7
BRANCH   4  23
ATOM     23  O   UNL     1      42.912   4.386  11.872  0.00  0.00    +0.000 OA
BRANCH  23  24
ATOM     24  C   UNL     1      43.436   3.051  11.754  0.00  0.00    +0.000 C 
BRANCH  24  25
ATOM     25  C   UNL     1      44.551   3.056  10.684  0.00  0.00    +0.000 C 
BRANCH  25  26
ATOM     26  N   UNL     1      44.129   2.638   9.335  0.00  0.00    +0.000 NA
ATOM     27  C   UNL     1      44.690   1.347   8.877  0.00  0.00    +0.000 C 
ATOM     28  C   UNL     1      46.149   1.362   8.370  0.00  0.00    +0.000 C 
ATOM     29  N   UNL     1      46.425   2.479   7.458  0.00  0.00    +0.000 N 
ATOM     30  C   UNL     1      47.282   2.272   6.391  0.00  0.00    +0.000 C 
ATOM     31  C   UNL     1      47.608   3.417   5.460  0.00  0.00    +0.000 C 
ATOM     32  O   UNL     1      47.757   1.160   6.143  0.00  0.00    +0.000 OA
ATOM     33  C   UNL     1      45.921   3.772   7.925  0.00  0.00    +0.000 C 
ATOM     34  C   UNL     1      44.437   3.676   8.325  0.00  0.00    +0.000 C 
ENDBRANCH  25  26
ENDBRANCH  24  25
ENDBRANCH  23  24
ENDBRANCH   4  23
TORSDOF 8
ENDMDL
MODEL 6
REMARK VINA RESULT:    -6.697      4.081      9.655
REMARK INTER + INTRA:         -10.702
REMARK INTER:                  -9.067
REMARK INTRA:                  -1.636
REMARK UNBOUND:                -0.873
REMARK  Name = 
REMARK  10 active torsions:
REMARK  status: ('A' for Active; 'I' for Inactive)
REMARK    1  A    between atoms: C_1  and  O_2
REMARK    2  A    between atoms: O_2  and  C_3
REMARK    3  A    between atoms: C_10  and  C_11
REMARK    4  A    between atoms: N_13  and  C_14
REMARK    5  A    between atoms: C_14  and  C_15
REMARK    6  A    between atoms: C_18  and  O_19
REMARK    7  A    between atoms: O_19  and  C_20
REMARK    8  A    between atoms: C_20  and  C_21
REMARK    9  A    between atoms: C_21  and  N_22
REMARK   10  A    between atoms: C_26  and  C_27
REMARK                            x       y       z     vdW  Elec       q    Type
REMARK                         _______ _______ _______ _____ _____    ______ ____
ROOT
ATOM      1  C   UNL     1      48.144   4.603  17.424  0.00  0.00    +0.000 A 
ATOM      2  C   UNL     1      48.294   4.131  18.736  0.00  0.00    +0.000 A 
ATOM      3  C   UNL     1      49.018   4.869  19.685  0.00  0.00    +0.000 A 
ATOM      4  C   UNL     1      49.610   6.080  19.326  0.00  0.00    +0.000 A 
ATOM      5  C   UNL     1      49.372   6.603  18.055  0.00  0.00    +0.000 A 
ATOM      6  C   UNL     1      48.637   5.876  17.112  0.00  0.00    +0.000 A 
ENDROOT
BRANCH   1   7
ATOM      7  C   UNL     1      47.511   3.751  16.353  0.00  0.00    +0.000 C 
BRANCH   7  10
ATOM      8  C   UNL     1      46.737   4.237  14.088  0.00  0.00    +0.000 C 
ATOM      9  O   UNL     1      47.450   3.347  13.641  0.00  0.00    +0.000 OA
ATOM     10  N   UNL     1      46.702   4.508  15.433  0.00  0.00    +0.000 N 
ATOM     11  H   UNL     1      46.119   5.246  15.799  0.00  0.00    +0.000 HD
BRANCH   8  19
ATOM     12  C   UNL     1      46.703   7.590  13.260  0.00  0.00    +0.000 A 
ATOM     13  N   UNL     1      46.447   8.825  12.779  0.00  0.00    +0.000 NA
ATOM     14  C   UNL     1      45.433   8.973  11.924  0.00  0.00    +0.000 A 
ATOM     15  N   UNL     1      44.625   8.021  11.475  0.00  0.00    +0.000 NA
ATOM     16  C   UNL     1      44.904   6.809  11.986  0.00  0.00    +0.000 A 
ATOM     17  S   UNL     1      43.964   5.476  11.519  0.00  0.00    +0.000 S 
ATOM     18  C   UNL     1      44.865   4.435  12.509  0.00  0.00    +0.000 A 
ATOM     19  C   UNL     1      45.899   5.063  13.202  0.00  0.00    +0.000 A 
ATOM     20  C   UNL     1      45.915   6.488  12.886  0.00  0.00    +0.000 A 
BRANCH  12  22
ATOM     21  C   UNL     1      48.978   7.128  13.471  0.00  0.00    +0.000 C 
ATOM     22  O   UNL     1      47.757   7.450  14.141  0.00  0.00    +0.000 OA
ENDBRANCH  12  22
ENDBRANCH   8  19
ENDBRANCH   7  10
ENDBRANCH   1   7
BRANCH   4  23
ATOM     23  O   UNL     1      50.423   6.834  20.130  0.00  0.00    +0.000 OA
BRANCH  23  24
ATOM     24  C   UNL     1      51.739   7.112  19.622  0.00  0.00    +0.000 C 
BRANCH  24  25
ATOM     25  C   UNL     1      52.624   5.866  19.847  0.00  0.00    +0.000 C 
BRANCH  25  26
ATOM     26  N   UNL     1      53.311   5.357  18.646  0.00  0.00    +0.000 NA
ATOM     27  C   UNL     1      52.415   4.869  17.575  0.00  0.00    +0.000 C 
ATOM     28  C   UNL     1      51.801   3.465  17.766  0.00  0.00    +0.000 C 
ATOM     29  N   UNL     1      52.782   2.468  18.211  0.00  0.00    +0.000 N 
ATOM     30  C   UNL     1      52.682   1.173  17.731  0.00  0.00    +0.000 C 
ATOM     31  C   UNL     1      53.660   0.122  18.203  0.00  0.00    +0.000 C 
ATOM     32  O   UNL     1      51.841   0.855  16.887  0.00  0.00    +0.000 OA
ATOM     33  C   UNL     1      53.641   2.920  19.307  0.00  0.00    +0.000 C 
ATOM     34  C   UNL     1      54.275   4.287  18.986  0.00  0.00    +0.000 C 
ENDBRANCH  25  26
ENDBRANCH  24  25
ENDBRANCH  23  24
ENDBRANCH   4  23
TORSDOF 8
ENDMDL
MODEL 7
REMARK VINA RESULT:    -6.473      4.270      9.230
REMARK INTER + INTRA:         -10.373
REMARK INTER:                  -8.369
REMARK INTRA:                  -2.004
REMARK UNBOUND:                -0.873
REMARK  Name = 
REMARK  10 active torsions:
REMARK  status: ('A' for Active; 'I' for Inactive)
REMARK    1  A    between atoms: C_1  and  O_2
REMARK    2  A    between atoms: O_2  and  C_3
REMARK    3  A    between atoms: C_10  and  C_11
REMARK    4  A    between atoms: N_13  and  C_14
REMARK    5  A    between atoms: C_14  and  C_15
REMARK    6  A    between atoms: C_18  and  O_19
REMARK    7  A    between atoms: O_19  and  C_20
REMARK    8  A    between atoms: C_20  and  C_21
REMARK    9  A    between atoms: C_21  and  N_22
REMARK   10  A    between atoms: C_26  and  C_27
REMARK                            x       y       z     vdW  Elec       q    Type
REMARK                         _______ _______ _______ _____ _____    ______ ____
ROOT
ATOM      1  C   UNL     1      48.703   3.328  17.328  0.00  0.00    +0.000 A 
ATOM      2  C   UNL     1      49.306   2.140  16.889  0.00  0.00    +0.000 A 
ATOM      3  C   UNL     1      50.676   1.916  17.087  0.00  0.00    +0.000 A 
ATOM      4  C   UNL     1      51.460   2.883  17.715  0.00  0.00    +0.000 A 
ATOM      5  C   UNL     1      50.844   4.016  18.249  0.00  0.00    +0.000 A 
ATOM      6  C   UNL     1      49.475   4.235  18.066  0.00  0.00    +0.000 A 
ENDROOT
BRANCH   1   7
ATOM      7  C   UNL     1      47.273   3.655  16.981  0.00  0.00    +0.000 C 
BRANCH   7  10
ATOM      8  C   UNL     1      47.140   4.247  14.615  0.00  0.00    +0.000 C 
ATOM      9  O   UNL     1      47.221   3.065  14.303  0.00  0.00    +0.000 OA
ATOM     10  N   UNL     1      47.155   4.634  15.931  0.00  0.00    +0.000 N 
ATOM     11  H   UNL     1      47.095   5.609  16.186  0.00  0.00    +0.000 HD
BRANCH   8  19
ATOM     12  C   UNL     1      48.852   7.188  14.024  0.00  0.00    +0.000 A 
ATOM     13  N   UNL     1      49.322   8.370  13.572  0.00  0.00    +0.000 NA
ATOM     14  C   UNL     1      48.753   8.905  12.489  0.00  0.00    +0.000 A 
ATOM     15  N   UNL     1      47.753   8.395  11.782  0.00  0.00    +0.000 NA
ATOM     16  C   UNL     1      47.305   7.225  12.270  0.00  0.00    +0.000 A 
ATOM     17  S   UNL     1      46.025   6.435  11.485  0.00  0.00    +0.000 S 
ATOM     18  C   UNL     1      46.057   5.166  12.610  0.00  0.00    +0.000 A 
ATOM     19  C   UNL     1      47.037   5.302  13.592  0.00  0.00    +0.000 A 
ATOM     20  C   UNL     1      47.781   6.541  13.384  0.00  0.00    +0.000 A 
BRANCH  12  22
ATOM     21  C   UNL     1      49.219   7.433  16.312  0.00  0.00    +0.000 C 
ATOM     22  O   UNL     1      49.451   6.644  15.143  0.00  0.00    +0.000 OA
ENDBRANCH  12  22
ENDBRANCH   8  19
ENDBRANCH   7  10
ENDBRANCH   1   7
BRANCH   4  23
ATOM     23  O   UNL     1      52.819   2.823  17.872  0.00  0.00    +0.000 OA
BRANCH  23  24
ATOM     24  C   UNL     1      53.458   4.019  18.354  0.00  0.00    +0.000 C 
BRANCH  24  25
ATOM     25  C   UNL     1      54.526   4.453  17.325  0.00  0.00    +0.000 C 
BRANCH  25  26
ATOM     26  N   UNL     1      54.961   5.858  17.424  0.00  0.00    +0.000 NA
ATOM     27  C   UNL     1      53.926   6.798  17.908  0.00  0.00    +0.000 C 
ATOM     28  C   UNL     1      52.859   7.246  16.884  0.00  0.00    +0.000 C 
ATOM     29  N   UNL     1      53.434   7.620  15.586  0.00  0.00    +0.000 N 
ATOM     30  C   UNL     1      52.871   8.674  14.887  0.00  0.00    +0.000 C 
ATOM     31  C   UNL     1      53.424   9.053  13.532  0.00  0.00    +0.000 C 
ATOM     32  O   UNL     1      51.953   9.351  15.356  0.00  0.00    +0.000 OA
ATOM     33  C   UNL     1      54.422   6.669  15.072  0.00  0.00    +0.000 C 
ATOM     34  C   UNL     1      55.491   6.353  16.134  0.00  0.00    +0.000 C 
ENDBRANCH  25  26
ENDBRANCH  24  25
ENDBRANCH  23  24
ENDBRANCH   4  23
TORSDOF 8
ENDMDL
MODEL 8
REMARK VINA RESULT:    -6.397      4.195      9.207
REMARK INTER + INTRA:         -10.262
REMARK INTER:                  -8.793
REMARK INTRA:                  -1.469
REMARK UNBOUND:                -0.873
REMARK  Name = 
REMARK  10 active torsions:
REMARK  status: ('A' for Active; 'I' for Inactive)
REMARK    1  A    between atoms: C_1  and  O_2
REMARK    2  A    between atoms: O_2  and  C_3
REMARK    3  A    between atoms: C_10  and  C_11
REMARK    4  A    between atoms: N_13  and  C_14
REMARK    5  A    between atoms: C_14  and  C_15
REMARK    6  A    between atoms: C_18  and  O_19
REMARK    7  A    between atoms: O_19  and  C_20
REMARK    8  A    between atoms: C_20  and  C_21
REMARK    9  A    between atoms: C_21  and  N_22
REMARK   10  A    between atoms: C_26  and  C_27
REMARK                            x       y       z     vdW  Elec       q    Type
REMARK                         _______ _______ _______ _____ _____    ______ ____
ROOT
ATOM      1  C   UNL     1      48.164   4.218  17.537  0.00  0.00    +0.000 A 
ATOM      2  C   UNL     1      49.553   4.084  17.683  0.00  0.00    +0.000 A 
ATOM      3  C   UNL     1      50.241   4.797  18.676  0.00  0.00    +0.000 A 
ATOM      4  C   UNL     1      49.550   5.661  19.524  0.00  0.00    +0.000 A 
ATOM      5  C   UNL     1      48.157   5.714  19.452  0.00  0.00    +0.000 A 
ATOM      6  C   UNL     1      47.467   4.992  18.473  0.00  0.00    +0.000 A 
ENDROOT
BRANCH   1   7
ATOM      7  C   UNL     1      47.434   3.588  16.378  0.00  0.00    +0.000 C 
BRANCH   7  10
ATOM      8  C   UNL     1      46.847   4.422  14.159  0.00  0.00    +0.000 C 
ATOM      9  O   UNL     1      47.437   3.483  13.637  0.00  0.00    +0.000 OA
ATOM     10  N   UNL     1      46.792   4.552  15.523  0.00  0.00    +0.000 N 
ATOM     11  H   UNL     1      46.310   5.330  15.951  0.00  0.00    +0.000 HD
BRANCH   8  19
ATOM     12  C   UNL     1      43.740   4.675  12.672  0.00  0.00    +0.000 A 
ATOM     13  N   UNL     1      42.634   5.031  11.984  0.00  0.00    +0.000 NA
ATOM     14  C   UNL     1      42.628   6.214  11.367  0.00  0.00    +0.000 A 
ATOM     15  N   UNL     1      43.607   7.109  11.351  0.00  0.00    +0.000 NA
ATOM     16  C   UNL     1      44.694   6.713  12.035  0.00  0.00    +0.000 A 
ATOM     17  S   UNL     1      46.043   7.738  12.114  0.00  0.00    +0.000 S 
ATOM     18  C   UNL     1      46.898   6.618  13.058  0.00  0.00    +0.000 A 
ATOM     19  C   UNL     1      46.184   5.455  13.344  0.00  0.00    +0.000 A 
ATOM     20  C   UNL     1      44.864   5.516  12.725  0.00  0.00    +0.000 A 
BRANCH  12  22
ATOM     21  C   UNL     1      43.627   2.365  12.385  0.00  0.00    +0.000 C 
ATOM     22  O   UNL     1      43.733   3.450  13.309  0.00  0.00    +0.000 OA
ENDBRANCH  12  22
ENDBRANCH   8  19
ENDBRANCH   7  10
ENDBRANCH   1   7
BRANCH   4  23
ATOM     23  O   UNL     1      50.123   6.484  20.457  0.00  0.00    +0.000 OA
BRANCH  23  24
ATOM     24  C   UNL     1      51.007   7.500  19.952  0.00  0.00    +0.000 C 
BRANCH  24  25
ATOM     25  C   UNL     1      50.159   8.563  19.217  0.00  0.00    +0.000 C 
BRANCH  25  26
ATOM     26  N   UNL     1      50.891   9.376  18.227  0.00  0.00    +0.000 NA
ATOM     27  C   UNL     1      50.073  10.390  17.526  0.00  0.00    +0.000 C 
ATOM     28  C   UNL     1      49.170   9.885  16.379  0.00  0.00    +0.000 C 
ATOM     29  N   UNL     1      49.860   8.957  15.474  0.00  0.00    +0.000 N 
ATOM     30  C   UNL     1      49.571   9.006  14.121  0.00  0.00    +0.000 C 
ATOM     31  C   UNL     1      50.243   8.037  13.177  0.00  0.00    +0.000 C 
ATOM     32  O   UNL     1      48.809   9.853  13.649  0.00  0.00    +0.000 OA
ATOM     33  C   UNL     1      50.631   7.917  16.157  0.00  0.00    +0.000 C 
ATOM     34  C   UNL     1      51.565   8.526  17.220  0.00  0.00    +0.000 C 
ENDBRANCH  25  26
ENDBRANCH  24  25
ENDBRANCH  23  24
ENDBRANCH   4  23
TORSDOF 8
ENDMDL
MODEL 9
REMARK VINA RESULT:    -6.038      4.528      7.721
REMARK INTER + INTRA:          -9.735
REMARK INTER:                  -8.939
REMARK INTRA:                  -0.796
REMARK UNBOUND:                -0.873
REMARK  Name = 
REMARK  10 active torsions:
REMARK  status: ('A' for Active; 'I' for Inactive)
REMARK    1  A    between atoms: C_1  and  O_2
REMARK    2  A    between atoms: O_2  and  C_3
REMARK    3  A    between atoms: C_10  and  C_11
REMARK    4  A    between atoms: N_13  and  C_14
REMARK    5  A    between atoms: C_14  and  C_15
REMARK    6  A    between atoms: C_18  and  O_19
REMARK    7  A    between atoms: O_19  and  C_20
REMARK    8  A    between atoms: C_20  and  C_21
REMARK    9  A    between atoms: C_21  and  N_22
REMARK   10  A    between atoms: C_26  and  C_27
REMARK                            x       y       z     vdW  Elec       q    Type
REMARK                         _______ _______ _______ _____ _____    ______ ____
ROOT
ATOM      1  C   UNL     1      52.454   1.759  17.824  0.00  0.00    +0.000 A 
ATOM      2  C   UNL     1      52.558   3.124  18.130  0.00  0.00    +0.000 A 
ATOM      3  C   UNL     1      51.483   3.995  17.899  0.00  0.00    +0.000 A 
ATOM      4  C   UNL     1      50.297   3.512  17.345  0.00  0.00    +0.000 A 
ATOM      5  C   UNL     1      50.153   2.139  17.141  0.00  0.00    +0.000 A 
ATOM      6  C   UNL     1      51.218   1.266  17.386  0.00  0.00    +0.000 A 
ENDROOT
BRANCH   1   7
ATOM      7  C   UNL     1      53.647   0.843  17.914  0.00  0.00    +0.000 C 
BRANCH   7  10
ATOM      8  C   UNL     1      54.191  -1.329  18.889  0.00  0.00    +0.000 C 
ATOM      9  O   UNL     1      55.304  -0.924  19.202  0.00  0.00    +0.000 OA
ATOM     10  N   UNL     1      53.296  -0.514  18.245  0.00  0.00    +0.000 N 
ATOM     11  H   UNL     1      52.381  -0.852  17.982  0.00  0.00    +0.000 HD
BRANCH   8  19
ATOM     12  C   UNL     1      54.388  -4.308  17.153  0.00  0.00    +0.000 A 
ATOM     13  N   UNL     1      54.313  -5.580  16.707  0.00  0.00    +0.000 NA
ATOM     14  C   UNL     1      53.745  -6.494  17.498  0.00  0.00    +0.000 A 
ATOM     15  N   UNL     1      53.234  -6.295  18.706  0.00  0.00    +0.000 NA
ATOM     16  C   UNL     1      53.316  -5.015  19.108  0.00  0.00    +0.000 A 
ATOM     17  S   UNL     1      52.706  -4.583  20.631  0.00  0.00    +0.000 S 
ATOM     18  C   UNL     1      53.146  -2.962  20.400  0.00  0.00    +0.000 A 
ATOM     19  C   UNL     1      53.772  -2.712  19.180  0.00  0.00    +0.000 A 
ATOM     20  C   UNL     1      53.868  -3.947  18.408  0.00  0.00    +0.000 A 
BRANCH  12  22
ATOM     21  C   UNL     1      54.532  -3.490  14.976  0.00  0.00    +0.000 C 
ATOM     22  O   UNL     1      54.980  -3.373  16.328  0.00  0.00    +0.000 OA
ENDBRANCH  12  22
ENDBRANCH   8  19
ENDBRANCH   7  10
ENDBRANCH   1   7
BRANCH   4  23
ATOM     23  O   UNL     1      49.223   4.278  16.979  0.00  0.00    +0.000 OA
BRANCH  23  24
ATOM     24  C   UNL     1      48.038   3.565  16.584  0.00  0.00    +0.000 C 
BRANCH  24  25
ATOM     25  C   UNL     1      47.189   4.489  15.681  0.00  0.00    +0.000 C 
BRANCH  25  26
ATOM     26  N   UNL     1      47.554   4.479  14.253  0.00  0.00    +0.000 NA
ATOM     27  C   UNL     1      47.659   5.815  13.627  0.00  0.00    +0.000 C 
ATOM     28  C   UNL     1      46.335   6.510  13.240  0.00  0.00    +0.000 C 
ATOM     29  N   UNL     1      45.397   5.612  12.555  0.00  0.00    +0.000 N 
ATOM     30  C   UNL     1      44.612   6.120  11.534  0.00  0.00    +0.000 C 
ATOM     31  C   UNL     1      43.615   5.222  10.839  0.00  0.00    +0.000 C 
ATOM     32  O   UNL     1      44.731   7.282  11.138  0.00  0.00    +0.000 OA
ATOM     33  C   UNL     1      45.245   4.304  13.195  0.00  0.00    +0.000 C 
ATOM     34  C   UNL     1      46.615   3.653  13.460  0.00  0.00    +0.000 C 
ENDBRANCH  25  26
ENDBRANCH  24  25
ENDBRANCH  23  24
ENDBRANCH   4  23
TORSDOF 8
ENDMDL
