MODEL 1
REMARK VINA RESULT:    -8.109      0.000      0.000
REMARK INTER + INTRA:         -13.754
REMARK INTER:                 -12.612
REMARK INTRA:                  -1.141
REMARK UNBOUND:                -1.141
REMARK  Name = 
REMARK  10 active torsions:
REMARK  status: ('A' for Active; 'I' for Inactive)
REMARK    1  A    between atoms: N_1  and  C_2
REMARK    2  A    between atoms: C_2  and  C_3
REMARK    3  A    between atoms: C_3  and  N_4
REMARK    4  A    between atoms: N_4  and  C_5
REMARK    5  A    between atoms: N_4  and  C_26
REMARK    6  A    between atoms: C_5  and  C_6
REMARK    7  A    between atoms: C_9  and  C_10
REMARK    8  A    between atoms: C_10  and  N_11
REMARK    9  A    between atoms: C_12  and  C_14
REMARK   10  A    between atoms: C_26  and  C_27
REMARK                            x       y       z     vdW  Elec       q    Type
REMARK                         _______ _______ _______ _____ _____    ______ ____
ROOT
ATOM      1  C   UNL     1      46.333   4.290  12.997  0.00  0.00    +0.000 A 
ATOM      2  C   UNL     1      46.663   5.549  12.493  0.00  0.00    +0.000 A 
ATOM      3  C   UNL     1      47.419   6.426  13.270  0.00  0.00    +0.000 A 
ATOM      4  C   UNL     1      47.830   6.023  14.538  0.00  0.00    +0.000 A 
ATOM      5  N   UNL     1      47.499   4.816  15.060  0.00  0.00    +0.000 NA
ATOM      6  C   UNL     1      46.759   3.992  14.289  0.00  0.00    +0.000 A 
ENDROOT
BRANCH   1   7
ATOM      7  C   UNL     1      45.588   3.264  12.178  0.00  0.00    +0.000 C 
BRANCH   7   8
ATOM      8  N   UNL     1      44.488   3.813  11.355  0.00  0.00    +0.000 NA
BRANCH   8   9
ATOM      9  C   UNL     1      43.326   4.159  12.210  0.00  0.00    +0.000 C 
BRANCH   9  10
ATOM     10  C   UNL     1      42.599   5.491  11.898  0.00  0.00    +0.000 C 
BRANCH  10  11
ATOM     11  N   UNL     1      43.260   6.253  10.837  0.00  0.00    +0.000 NA
ATOM     12  H   UNL     1      43.341   5.659  10.011  0.00  0.00    +0.000 HD
ATOM     13  H   UNL     1      44.219   6.448  11.126  0.00  0.00    +0.000 HD
ENDBRANCH  10  11
ENDBRANCH   9  10
ENDBRANCH   8   9
BRANCH   8  14
ATOM     14  C   UNL     1      44.114   2.885  10.261  0.00  0.00    +0.000 C 
BRANCH  14  15
ATOM     15  C   UNL     1      45.090   2.783   9.102  0.00  0.00    +0.000 A 
ATOM     16  C   UNL     1      45.482   3.928   8.410  0.00  0.00    +0.000 A 
ATOM     17  C   UNL     1      46.450   3.813   7.417  0.00  0.00    +0.000 A 
ATOM     18  C   UNL     1      46.998   2.566   7.142  0.00  0.00    +0.000 A 
ATOM     19  C   UNL     1      46.544   1.477   7.865  0.00  0.00    +0.000 A 
ATOM     20  N   UNL     1      45.604   1.555   8.832  0.00  0.00    +0.000 NA
ENDBRANCH  14  15
ENDBRANCH   8  14
ENDBRANCH   7   8
ENDBRANCH   1   7
BRANCH   4  21
ATOM     21  C   UNL     1      48.736   6.900  15.367  0.00  0.00    +0.000 C 
BRANCH  21  22
ATOM     22  N   UNL     1      49.821   6.148  15.960  0.00  0.00    +0.000 N 
ATOM     23  C   UNL     1      49.795   5.724  17.261  0.00  0.00    +0.000 C 
ATOM     24  O   UNL     1      48.841   5.948  17.998  0.00  0.00    +0.000 OA
ATOM     25  H   UNL     1      50.700   6.170  15.451  0.00  0.00    +0.000 HD
BRANCH  23  26
ATOM     26  C   UNL     1      50.940   4.919  17.714  0.00  0.00    +0.000 A 
ATOM     27  C   UNL     1      52.017   5.552  18.318  0.00  0.00    +0.000 A 
ATOM     28  S   UNL     1      53.245   4.485  18.827  0.00  0.00    +0.000 S 
ATOM     29  C   UNL     1      52.404   3.140  18.216  0.00  0.00    +0.000 A 
ATOM     30  N   UNL     1      52.929   1.890  18.300  0.00  0.00    +0.000 NA
ATOM     31  C   UNL     1      52.201   0.964  17.768  0.00  0.00    +0.000 A 
ATOM     32  N   UNL     1      50.988   1.179  17.167  0.00  0.00    +0.000 N 
ATOM     33  C   UNL     1      50.394   2.417  17.103  0.00  0.00    +0.000 A 
ATOM     34  O   UNL     1      49.270   2.560  16.634  0.00  0.00    +0.000 OA
ATOM     35  C   UNL     1      51.187   3.497  17.655  0.00  0.00    +0.000 A 
ATOM     36  H   UNL     1      50.453   0.410  16.789  0.00  0.00    +0.000 HD
ENDBRANCH  23  26
ENDBRANCH  21  22
ENDBRANCH   4  21
TORSDOF 10
ENDMDL
MODEL 2
REMARK VINA RESULT:    -8.106      2.349      2.677
REMARK INTER + INTRA:         -13.749
REMARK INTER:                 -12.658
REMARK INTRA:                  -1.091
REMARK UNBOUND:                -1.141
REMARK  Name = 
REMARK  10 active torsions:
REMARK  status: ('A' for Active; 'I' for Inactive)
REMARK    1  A    between atoms: N_1  and  C_2
REMARK    2  A    between atoms: C_2  and  C_3
REMARK    3  A    between atoms: C_3  and  N_4
REMARK    4  A    between atoms: N_4  and  C_5
REMARK    5  A    between atoms: N_4  and  C_26
REMARK    6  A    between atoms: C_5  and  C_6
REMARK    7  A    between atoms: C_9  and  C_10
REMARK    8  A    between atoms: C_10  and  N_11
REMARK    9  A    between atoms: C_12  and  C_14
REMARK   10  A    between atoms: C_26  and  C_27
REMARK                            x       y       z     vdW  Elec       q    Type
REMARK                         _______ _______ _______ _____ _____    ______ ____
ROOT
ATOM      1  C   UNL     1      46.012   4.473  12.440  0.00  0.00    +0.000 A 
ATOM      2  C   UNL     1      46.193   5.639  11.695  0.00  0.00    +0.000 A 
ATOM      3  C   UNL     1      46.921   6.698  12.236  0.00  0.00    +0.000 A 
ATOM      4  C   UNL     1      47.454   6.567  13.516  0.00  0.00    +0.000 A 
ATOM      5  N   UNL     1      47.268   5.456  14.271  0.00  0.00    +0.000 NA
ATOM      6  C   UNL     1      46.553   4.452  13.724  0.00  0.00    +0.000 A 
ENDROOT
BRANCH   1   7
ATOM      7  C   UNL     1      45.306   3.261  11.883  0.00  0.00    +0.000 C 
BRANCH   7   8
ATOM      8  N   UNL     1      44.318   3.557  10.822  0.00  0.00    +0.000 NA
BRANCH   8   9
ATOM      9  C   UNL     1      42.980   3.804  11.416  0.00  0.00    +0.000 C 
BRANCH   9  10
ATOM     10  C   UNL     1      42.639   5.268  11.789  0.00  0.00    +0.000 C 
BRANCH  10  11
ATOM     11  N   UNL     1      42.643   5.491  13.236  0.00  0.00    +0.000 NA
ATOM     12  H   UNL     1      42.157   6.367  13.431  0.00  0.00    +0.000 HD
ATOM     13  H   UNL     1      43.605   5.640  13.540  0.00  0.00    +0.000 HD
ENDBRANCH  10  11
ENDBRANCH   9  10
ENDBRANCH   8   9
BRANCH   8  14
ATOM     14  C   UNL     1      44.281   2.484   9.802  0.00  0.00    +0.000 C 
BRANCH  14  15
ATOM     15  C   UNL     1      45.340   2.551   8.715  0.00  0.00    +0.000 A 
ATOM     16  C   UNL     1      45.677   3.775   8.137  0.00  0.00    +0.000 A 
ATOM     17  C   UNL     1      46.719   3.815   7.214  0.00  0.00    +0.000 A 
ATOM     18  C   UNL     1      47.392   2.643   6.895  0.00  0.00    +0.000 A 
ATOM     19  C   UNL     1      46.986   1.468   7.503  0.00  0.00    +0.000 A 
ATOM     20  N   UNL     1      45.978   1.394   8.399  0.00  0.00    +0.000 NA
ENDBRANCH  14  15
ENDBRANCH   8  14
ENDBRANCH   7   8
ENDBRANCH   1   7
BRANCH   4  21
ATOM     21  C   UNL     1      48.334   7.647  14.096  0.00  0.00    +0.000 C 
BRANCH  21  22
ATOM     22  N   UNL     1      48.370   7.595  15.542  0.00  0.00    +0.000 N 
ATOM     23  C   UNL     1      49.363   6.949  16.229  0.00  0.00    +0.000 C 
ATOM     24  O   UNL     1      50.288   6.386  15.655  0.00  0.00    +0.000 OA
ATOM     25  H   UNL     1      47.502   7.836  16.012  0.00  0.00    +0.000 HD
BRANCH  23  26
ATOM     26  C   UNL     1      49.305   7.027  17.696  0.00  0.00    +0.000 A 
ATOM     27  C   UNL     1      49.524   8.248  18.320  0.00  0.00    +0.000 A 
ATOM     28  S   UNL     1      49.382   8.188  20.018  0.00  0.00    +0.000 S 
ATOM     29  C   UNL     1      49.067   6.518  19.986  0.00  0.00    +0.000 A 
ATOM     30  N   UNL     1      48.876   5.822  21.137  0.00  0.00    +0.000 NA
ATOM     31  C   UNL     1      48.677   4.555  20.972  0.00  0.00    +0.000 A 
ATOM     32  N   UNL     1      48.646   3.926  19.755  0.00  0.00    +0.000 N 
ATOM     33  C   UNL     1      48.784   4.596  18.562  0.00  0.00    +0.000 A 
ATOM     34  O   UNL     1      48.665   4.016  17.489  0.00  0.00    +0.000 OA
ATOM     35  C   UNL     1      49.043   6.016  18.694  0.00  0.00    +0.000 A 
ATOM     36  H   UNL     1      48.463   2.935  19.687  0.00  0.00    +0.000 HD
ENDBRANCH  23  26
ENDBRANCH  21  22
ENDBRANCH   4  21
TORSDOF 10
ENDMDL
MODEL 3
REMARK VINA RESULT:    -7.504      2.507      3.216
REMARK INTER + INTRA:         -12.813
REMARK INTER:                 -11.813
REMARK INTRA:                  -1.000
REMARK UNBOUND:                -1.141
REMARK  Name = 
REMARK  10 active torsions:
REMARK  status: ('A' for Active; 'I' for Inactive)
REMARK    1  A    between atoms: N_1  and  C_2
REMARK    2  A    between atoms: C_2  and  C_3
REMARK    3  A    between atoms: C_3  and  N_4
REMARK    4  A    between atoms: N_4  and  C_5
REMARK    5  A    between atoms: N_4  and  C_26
REMARK    6  A    between atoms: C_5  and  C_6
REMARK    7  A    between atoms: C_9  and  C_10
REMARK    8  A    between atoms: C_10  and  N_11
REMARK    9  A    between atoms: C_12  and  C_14
REMARK   10  A    between atoms: C_26  and  C_27
REMARK                            x       y       z     vdW  Elec       q    Type
REMARK                         _______ _______ _______ _____ _____    ______ ____
ROOT
ATOM      1  C   UNL     1      44.593   5.698  10.541  0.00  0.00    +0.000 A 
ATOM      2  C   UNL     1      45.986   5.662  10.485  0.00  0.00    +0.000 A 
ATOM      3  C   UNL     1      46.732   6.496  11.318  0.00  0.00    +0.000 A 
ATOM      4  C   UNL     1      46.063   7.351  12.191  0.00  0.00    +0.000 A 
ATOM      5  N   UNL     1      44.710   7.424  12.244  0.00  0.00    +0.000 NA
ATOM      6  C   UNL     1      44.016   6.611  11.420  0.00  0.00    +0.000 A 
ENDROOT
BRANCH   1   7
ATOM      7  C   UNL     1      43.729   4.765   9.726  0.00  0.00    +0.000 C 
BRANCH   7   8
ATOM      8  N   UNL     1      43.939   3.328  10.008  0.00  0.00    +0.000 NA
BRANCH   8   9
ATOM      9  C   UNL     1      43.329   2.963  11.312  0.00  0.00    +0.000 C 
BRANCH   9  10
ATOM     10  C   UNL     1      44.276   2.911  12.537  0.00  0.00    +0.000 C 
BRANCH  10  11
ATOM     11  N   UNL     1      43.882   3.852  13.587  0.00  0.00    +0.000 NA
ATOM     12  H   UNL     1      44.152   4.793  13.298  0.00  0.00    +0.000 HD
ATOM     13  H   UNL     1      44.434   3.656  14.423  0.00  0.00    +0.000 HD
ENDBRANCH  10  11
ENDBRANCH   9  10
ENDBRANCH   8   9
BRANCH   8  14
ATOM     14  C   UNL     1      45.375   2.969   9.949  0.00  0.00    +0.000 C 
BRANCH  14  15
ATOM     15  C   UNL     1      45.916   2.581   8.584  0.00  0.00    +0.000 A 
ATOM     16  C   UNL     1      46.089   3.548   7.595  0.00  0.00    +0.000 A 
ATOM     17  C   UNL     1      46.677   3.177   6.389  0.00  0.00    +0.000 A 
ATOM     18  C   UNL     1      47.074   1.858   6.203  0.00  0.00    +0.000 A 
ATOM     19  C   UNL     1      46.854   0.957   7.230  0.00  0.00    +0.000 A 
ATOM     20  N   UNL     1      46.283   1.284   8.410  0.00  0.00    +0.000 NA
ENDBRANCH  14  15
ENDBRANCH   8  14
ENDBRANCH   7   8
ENDBRANCH   1   7
BRANCH   4  21
ATOM     21  C   UNL     1      46.831   8.192  13.181  0.00  0.00    +0.000 C 
BRANCH  21  22
ATOM     22  N   UNL     1      47.293   7.413  14.309  0.00  0.00    +0.000 N 
ATOM     23  C   UNL     1      48.608   7.069  14.474  0.00  0.00    +0.000 C 
ATOM     24  O   UNL     1      49.474   7.415  13.678  0.00  0.00    +0.000 OA
ATOM     25  H   UNL     1      46.571   6.921  14.828  0.00  0.00    +0.000 HD
BRANCH  23  26
ATOM     26  C   UNL     1      48.944   6.325  15.698  0.00  0.00    +0.000 A 
ATOM     27  C   UNL     1      50.005   6.754  16.483  0.00  0.00    +0.000 A 
ATOM     28  S   UNL     1      50.245   5.818  17.887  0.00  0.00    +0.000 S 
ATOM     29  C   UNL     1      48.967   4.775  17.475  0.00  0.00    +0.000 A 
ATOM     30  N   UNL     1      48.651   3.712  18.260  0.00  0.00    +0.000 NA
ATOM     31  C   UNL     1      47.681   2.984  17.814  0.00  0.00    +0.000 A 
ATOM     32  N   UNL     1      46.993   3.232  16.655  0.00  0.00    +0.000 N 
ATOM     33  C   UNL     1      47.243   4.322  15.855  0.00  0.00    +0.000 A 
ATOM     34  O   UNL     1      46.552   4.561  14.871  0.00  0.00    +0.000 OA
ATOM     35  C   UNL     1      48.346   5.153  16.294  0.00  0.00    +0.000 A 
ATOM     36  H   UNL     1      46.226   2.639  16.369  0.00  0.00    +0.000 HD
ENDBRANCH  23  26
ENDBRANCH  21  22
ENDBRANCH   4  21
TORSDOF 10
ENDMDL
MODEL 4
REMARK VINA RESULT:    -7.264      2.005      2.154
REMARK INTER + INTRA:         -12.439
REMARK INTER:                 -11.529
REMARK INTRA:                  -0.910
REMARK UNBOUND:                -1.141
REMARK  Name = 
REMARK  10 active torsions:
REMARK  status: ('A' for Active; 'I' for Inactive)
REMARK    1  A    between atoms: N_1  and  C_2
REMARK    2  A    between atoms: C_2  and  C_3
REMARK    3  A    between atoms: C_3  and  N_4
REMARK    4  A    between atoms: N_4  and  C_5
REMARK    5  A    between atoms: N_4  and  C_26
REMARK    6  A    between atoms: C_5  and  C_6
REMARK    7  A    between atoms: C_9  and  C_10
REMARK    8  A    between atoms: C_10  and  N_11
REMARK    9  A    between atoms: C_12  and  C_14
REMARK   10  A    between atoms: C_26  and  C_27
REMARK                            x       y       z     vdW  Elec       q    Type
REMARK                         _______ _______ _______ _____ _____    ______ ____
ROOT
ATOM      1  C   UNL     1      46.199   4.738  12.685  0.00  0.00    +0.000 A 
ATOM      2  C   UNL     1      46.587   5.926  12.064  0.00  0.00    +0.000 A 
ATOM      3  C   UNL     1      47.493   6.773  12.702  0.00  0.00    +0.000 A 
ATOM      4  C   UNL     1      47.992   6.411  13.951  0.00  0.00    +0.000 A 
ATOM      5  N   UNL     1      47.609   5.276  14.586  0.00  0.00    +0.000 NA
ATOM      6  C   UNL     1      46.725   4.481  13.948  0.00  0.00    +0.000 A 
ENDROOT
BRANCH   1   7
ATOM      7  C   UNL     1      45.286   3.739  12.015  0.00  0.00    +0.000 C 
BRANCH   7   8
ATOM      8  N   UNL     1      44.726   4.188  10.721  0.00  0.00    +0.000 NA
BRANCH   8   9
ATOM      9  C   UNL     1      43.580   5.105  10.943  0.00  0.00    +0.000 C 
BRANCH   9  10
ATOM     10  C   UNL     1      42.659   4.794  12.148  0.00  0.00    +0.000 C 
BRANCH  10  11
ATOM     11  N   UNL     1      42.844   5.736  13.253  0.00  0.00    +0.000 NA
ATOM     12  H   UNL     1      43.743   5.545  13.696  0.00  0.00    +0.000 HD
ATOM     13  H   UNL     1      42.142   5.543  13.967  0.00  0.00    +0.000 HD
ENDBRANCH  10  11
ENDBRANCH   9  10
ENDBRANCH   8   9
BRANCH   8  14
ATOM     14  C   UNL     1      44.356   3.038   9.863  0.00  0.00    +0.000 C 
BRANCH  14  15
ATOM     15  C   UNL     1      45.312   2.708   8.730  0.00  0.00    +0.000 A 
ATOM     16  C   UNL     1      45.724   3.703   7.845  0.00  0.00    +0.000 A 
ATOM     17  C   UNL     1      46.675   3.389   6.878  0.00  0.00    +0.000 A 
ATOM     18  C   UNL     1      47.186   2.099   6.820  0.00  0.00    +0.000 A 
ATOM     19  C   UNL     1      46.714   1.166   7.726  0.00  0.00    +0.000 A 
ATOM     20  N   UNL     1      45.790   1.437   8.674  0.00  0.00    +0.000 NA
ENDBRANCH  14  15
ENDBRANCH   8  14
ENDBRANCH   7   8
ENDBRANCH   1   7
BRANCH   4  21
ATOM     21  C   UNL     1      49.052   7.246  14.626  0.00  0.00    +0.000 C 
BRANCH  21  22
ATOM     22  N   UNL     1      49.572   6.602  15.812  0.00  0.00    +0.000 N 
ATOM     23  C   UNL     1      49.392   7.119  17.068  0.00  0.00    +0.000 C 
ATOM     24  O   UNL     1      48.767   8.156  17.259  0.00  0.00    +0.000 OA
ATOM     25  H   UNL     1      50.286   5.897  15.652  0.00  0.00    +0.000 HD
BRANCH  23  26
ATOM     26  C   UNL     1      49.925   6.329  18.187  0.00  0.00    +0.000 A 
ATOM     27  C   UNL     1      49.118   6.084  19.290  0.00  0.00    +0.000 A 
ATOM     28  S   UNL     1      49.859   5.119  20.484  0.00  0.00    +0.000 S 
ATOM     29  C   UNL     1      51.303   5.031  19.593  0.00  0.00    +0.000 A 
ATOM     30  N   UNL     1      52.382   4.360  20.076  0.00  0.00    +0.000 NA
ATOM     31  C   UNL     1      53.425   4.399  19.313  0.00  0.00    +0.000 A 
ATOM     32  N   UNL     1      53.479   5.043  18.104  0.00  0.00    +0.000 N 
ATOM     33  C   UNL     1      52.399   5.690  17.552  0.00  0.00    +0.000 A 
ATOM     34  O   UNL     1      52.457   6.183  16.430  0.00  0.00    +0.000 OA
ATOM     35  C   UNL     1      51.214   5.706  18.385  0.00  0.00    +0.000 A 
ATOM     36  H   UNL     1      54.317   5.018  17.540  0.00  0.00    +0.000 HD
ENDBRANCH  23  26
ENDBRANCH  21  22
ENDBRANCH   4  21
TORSDOF 10
ENDMDL
MODEL 5
REMARK VINA RESULT:    -7.190      3.535      8.896
REMARK INTER + INTRA:         -12.325
REMARK INTER:                 -10.717
REMARK INTRA:                  -1.608
REMARK UNBOUND:                -1.141
REMARK  Name = 
REMARK  10 active torsions:
REMARK  status: ('A' for Active; 'I' for Inactive)
REMARK    1  A    between atoms: N_1  and  C_2
REMARK    2  A    between atoms: C_2  and  C_3
REMARK    3  A    between atoms: C_3  and  N_4
REMARK    4  A    between atoms: N_4  and  C_5
REMARK    5  A    between atoms: N_4  and  C_26
REMARK    6  A    between atoms: C_5  and  C_6
REMARK    7  A    between atoms: C_9  and  C_10
REMARK    8  A    between atoms: C_10  and  N_11
REMARK    9  A    between atoms: C_12  and  C_14
REMARK   10  A    between atoms: C_26  and  C_27
REMARK                            x       y       z     vdW  Elec       q    Type
REMARK                         _______ _______ _______ _____ _____    ______ ____
ROOT
ATOM      1  C   UNL     1      49.108   7.929  15.781  0.00  0.00    +0.000 A 
ATOM      2  C   UNL     1      48.558   9.085  15.227  0.00  0.00    +0.000 A 
ATOM      3  C   UNL     1      48.059   9.056  13.925  0.00  0.00    +0.000 A 
ATOM      4  C   UNL     1      48.122   7.866  13.203  0.00  0.00    +0.000 A 
ATOM      5  N   UNL     1      48.677   6.737  13.710  0.00  0.00    +0.000 NA
ATOM      6  C   UNL     1      49.159   6.799  14.969  0.00  0.00    +0.000 A 
ENDROOT
BRANCH   1   7
ATOM      7  C   UNL     1      49.591   7.870  17.210  0.00  0.00    +0.000 C 
BRANCH   7   8
ATOM      8  N   UNL     1      49.097   6.707  17.979  0.00  0.00    +0.000 NA
BRANCH   8   9
ATOM      9  C   UNL     1      48.175   7.152  19.055  0.00  0.00    +0.000 C 
BRANCH   9  10
ATOM     10  C   UNL     1      47.298   6.062  19.720  0.00  0.00    +0.000 C 
BRANCH  10  11
ATOM     11  N   UNL     1      46.452   5.360  18.754  0.00  0.00    +0.000 NA
ATOM     12  H   UNL     1      45.781   6.024  18.365  0.00  0.00    +0.000 HD
ATOM     13  H   UNL     1      45.891   4.669  19.254  0.00  0.00    +0.000 HD
ENDBRANCH  10  11
ENDBRANCH   9  10
ENDBRANCH   8   9
BRANCH   8  14
ATOM     14  C   UNL     1      50.217   5.894  18.511  0.00  0.00    +0.000 C 
BRANCH  14  15
ATOM     15  C   UNL     1      50.345   4.484  17.962  0.00  0.00    +0.000 A 
ATOM     16  C   UNL     1      51.563   3.809  18.036  0.00  0.00    +0.000 A 
ATOM     17  C   UNL     1      51.622   2.485  17.612  0.00  0.00    +0.000 A 
ATOM     18  C   UNL     1      50.472   1.873  17.128  0.00  0.00    +0.000 A 
ATOM     19  C   UNL     1      49.307   2.617  17.075  0.00  0.00    +0.000 A 
ATOM     20  N   UNL     1      49.217   3.905  17.475  0.00  0.00    +0.000 NA
ENDBRANCH  14  15
ENDBRANCH   8  14
ENDBRANCH   7   8
ENDBRANCH   1   7
BRANCH   4  21
ATOM     21  C   UNL     1      47.501   7.765  11.832  0.00  0.00    +0.000 C 
BRANCH  21  22
ATOM     22  N   UNL     1      46.803   6.511  11.647  0.00  0.00    +0.000 N 
ATOM     23  C   UNL     1      45.437   6.420  11.680  0.00  0.00    +0.000 C 
ATOM     24  O   UNL     1      44.725   7.402  11.859  0.00  0.00    +0.000 OA
ATOM     25  H   UNL     1      47.369   5.674  11.746  0.00  0.00    +0.000 HD
BRANCH  23  26
ATOM     26  C   UNL     1      44.860   5.093  11.418  0.00  0.00    +0.000 A 
ATOM     27  C   UNL     1      44.128   4.463  12.415  0.00  0.00    +0.000 A 
ATOM     28  S   UNL     1      43.487   2.953  11.949  0.00  0.00    +0.000 S 
ATOM     29  C   UNL     1      44.204   3.064  10.411  0.00  0.00    +0.000 A 
ATOM     30  N   UNL     1      44.069   2.062   9.504  0.00  0.00    +0.000 NA
ATOM     31  C   UNL     1      44.690   2.260   8.387  0.00  0.00    +0.000 A 
ATOM     32  N   UNL     1      45.428   3.379   8.097  0.00  0.00    +0.000 N 
ATOM     33  C   UNL     1      45.551   4.439   8.964  0.00  0.00    +0.000 A 
ATOM     34  O   UNL     1      46.147   5.460   8.639  0.00  0.00    +0.000 OA
ATOM     35  C   UNL     1      44.901   4.251  10.245  0.00  0.00    +0.000 A 
ATOM     36  H   UNL     1      45.873   3.488   7.197  0.00  0.00    +0.000 HD
ENDBRANCH  23  26
ENDBRANCH  21  22
ENDBRANCH   4  21
TORSDOF 10
ENDMDL
MODEL 6
REMARK VINA RESULT:    -6.826      2.068      3.501
REMARK INTER + INTRA:         -11.758
REMARK INTER:                 -11.352
REMARK INTRA:                  -0.406
REMARK UNBOUND:                -1.141
REMARK  Name = 
REMARK  10 active torsions:
REMARK  status: ('A' for Active; 'I' for Inactive)
REMARK    1  A    between atoms: N_1  and  C_2
REMARK    2  A    between atoms: C_2  and  C_3
REMARK    3  A    between atoms: C_3  and  N_4
REMARK    4  A    between atoms: N_4  and  C_5
REMARK    5  A    between atoms: N_4  and  C_26
REMARK    6  A    between atoms: C_5  and  C_6
REMARK    7  A    between atoms: C_9  and  C_10
REMARK    8  A    between atoms: C_10  and  N_11
REMARK    9  A    between atoms: C_12  and  C_14
REMARK   10  A    between atoms: C_26  and  C_27
REMARK                            x       y       z     vdW  Elec       q    Type
REMARK                         _______ _______ _______ _____ _____    ______ ____
ROOT
ATOM      1  C   UNL     1      47.549   5.749  13.924  0.00  0.00    +0.000 A 
ATOM      2  C   UNL     1      48.164   6.231  15.080  0.00  0.00    +0.000 A 
ATOM      3  C   UNL     1      48.199   5.436  16.225  0.00  0.00    +0.000 A 
ATOM      4  C   UNL     1      47.616   4.172  16.188  0.00  0.00    +0.000 A 
ATOM      5  N   UNL     1      46.988   3.693  15.086  0.00  0.00    +0.000 NA
ATOM      6  C   UNL     1      46.963   4.488  13.997  0.00  0.00    +0.000 A 
ENDROOT
BRANCH   1   7
ATOM      7  C   UNL     1      47.547   6.524  12.628  0.00  0.00    +0.000 C 
BRANCH   7   8
ATOM      8  N   UNL     1      46.240   7.116  12.267  0.00  0.00    +0.000 NA
BRANCH   8   9
ATOM      9  C   UNL     1      46.001   8.356  13.048  0.00  0.00    +0.000 C 
BRANCH   9  10
ATOM     10  C   UNL     1      45.628   9.627  12.245  0.00  0.00    +0.000 C 
BRANCH  10  11
ATOM     11  N   UNL     1      44.274  10.098  12.541  0.00  0.00    +0.000 NA
ATOM     12  H   UNL     1      44.245  10.416  13.510  0.00  0.00    +0.000 HD
ATOM     13  H   UNL     1      43.636   9.303  12.497  0.00  0.00    +0.000 HD
ENDBRANCH  10  11
ENDBRANCH   9  10
ENDBRANCH   8   9
BRANCH   8  14
ATOM     14  C   UNL     1      45.139   6.137  12.430  0.00  0.00    +0.000 C 
BRANCH  14  15
ATOM     15  C   UNL     1      44.895   5.198  11.262  0.00  0.00    +0.000 A 
ATOM     16  C   UNL     1      45.477   5.453  10.021  0.00  0.00    +0.000 A 
ATOM     17  C   UNL     1      45.314   4.521   9.000  0.00  0.00    +0.000 A 
ATOM     18  C   UNL     1      44.579   3.367   9.242  0.00  0.00    +0.000 A 
ATOM     19  C   UNL     1      44.022   3.197  10.497  0.00  0.00    +0.000 A 
ATOM     20  N   UNL     1      44.160   4.083  11.508  0.00  0.00    +0.000 NA
ENDBRANCH  14  15
ENDBRANCH   8  14
ENDBRANCH   7   8
ENDBRANCH   1   7
BRANCH   4  21
ATOM     21  C   UNL     1      47.723   3.241  17.371  0.00  0.00    +0.000 C 
BRANCH  21  22
ATOM     22  N   UNL     1      49.098   3.033  17.771  0.00  0.00    +0.000 N 
ATOM     23  C   UNL     1      49.965   2.261  17.045  0.00  0.00    +0.000 C 
ATOM     24  O   UNL     1      49.626   1.710  16.004  0.00  0.00    +0.000 OA
ATOM     25  H   UNL     1      49.317   3.271  18.735  0.00  0.00    +0.000 HD
BRANCH  23  26
ATOM     26  C   UNL     1      51.349   2.184  17.538  0.00  0.00    +0.000 A 
ATOM     27  C   UNL     1      52.009   0.964  17.519  0.00  0.00    +0.000 A 
ATOM     28  S   UNL     1      53.617   1.042  18.079  0.00  0.00    +0.000 S 
ATOM     29  C   UNL     1      53.476   2.703  18.413  0.00  0.00    +0.000 A 
ATOM     30  N   UNL     1      54.511   3.397  18.953  0.00  0.00    +0.000 NA
ATOM     31  C   UNL     1      54.260   4.644  19.185  0.00  0.00    +0.000 A 
ATOM     32  N   UNL     1      53.064   5.258  18.916  0.00  0.00    +0.000 N 
ATOM     33  C   UNL     1      52.007   4.609  18.324  0.00  0.00    +0.000 A 
ATOM     34  O   UNL     1      50.982   5.210  18.019  0.00  0.00    +0.000 OA
ATOM     35  C   UNL     1      52.226   3.199  18.074  0.00  0.00    +0.000 A 
ATOM     36  H   UNL     1      52.934   6.243  19.098  0.00  0.00    +0.000 HD
ENDBRANCH  23  26
ENDBRANCH  21  22
ENDBRANCH   4  21
TORSDOF 10
ENDMDL
MODEL 7
REMARK VINA RESULT:    -6.501      3.824      8.815
REMARK INTER + INTRA:         -11.253
REMARK INTER:                  -9.590
REMARK INTRA:                  -1.663
REMARK UNBOUND:                -1.141
REMARK  Name = 
REMARK  10 active torsions:
REMARK  status: ('A' for Active; 'I' for Inactive)
REMARK    1  A    between atoms: N_1  and  C_2
REMARK    2  A    between atoms: C_2  and  C_3
REMARK    3  A    between atoms: C_3  and  N_4
REMARK    4  A    between atoms: N_4  and  C_5
REMARK    5  A    between atoms: N_4  and  C_26
REMARK    6  A    between atoms: C_5  and  C_6
REMARK    7  A    between atoms: C_9  and  C_10
REMARK    8  A    between atoms: C_10  and  N_11
REMARK    9  A    between atoms: C_12  and  C_14
REMARK   10  A    between atoms: C_26  and  C_27
REMARK                            x       y       z     vdW  Elec       q    Type
REMARK                         _______ _______ _______ _____ _____    ______ ____
ROOT
ATOM      1  C   UNL     1      48.874   7.972  16.299  0.00  0.00    +0.000 A 
ATOM      2  C   UNL     1      49.170   6.857  15.514  0.00  0.00    +0.000 A 
ATOM      3  C   UNL     1      48.899   6.885  14.147  0.00  0.00    +0.000 A 
ATOM      4  C   UNL     1      48.335   8.031  13.593  0.00  0.00    +0.000 A 
ATOM      5  N   UNL     1      48.012   9.116  14.339  0.00  0.00    +0.000 NA
ATOM      6  C   UNL     1      48.278   9.057  15.660  0.00  0.00    +0.000 A 
ENDROOT
BRANCH   1   7
ATOM      7  C   UNL     1      49.217   8.038  17.768  0.00  0.00    +0.000 C 
BRANCH   7   8
ATOM      8  N   UNL     1      48.239   7.376  18.659  0.00  0.00    +0.000 NA
BRANCH   8   9
ATOM      9  C   UNL     1      47.778   8.316  19.711  0.00  0.00    +0.000 C 
BRANCH   9  10
ATOM     10  C   UNL     1      48.593   8.347  21.028  0.00  0.00    +0.000 C 
BRANCH  10  11
ATOM     11  N   UNL     1      49.528   9.472  21.081  0.00  0.00    +0.000 NA
ATOM     12  H   UNL     1      49.714   9.695  22.059  0.00  0.00    +0.000 HD
ATOM     13  H   UNL     1      49.067  10.297  20.697  0.00  0.00    +0.000 HD
ENDBRANCH  10  11
ENDBRANCH   9  10
ENDBRANCH   8   9
BRANCH   8  14
ATOM     14  C   UNL     1      48.791   6.127  19.235  0.00  0.00    +0.000 C 
BRANCH  14  15
ATOM     15  C   UNL     1      48.595   4.863  18.417  0.00  0.00    +0.000 A 
ATOM     16  C   UNL     1      47.366   4.601  17.812  0.00  0.00    +0.000 A 
ATOM     17  C   UNL     1      47.249   3.485  16.989  0.00  0.00    +0.000 A 
ATOM     18  C   UNL     1      48.353   2.664  16.793  0.00  0.00    +0.000 A 
ATOM     19  C   UNL     1      49.532   2.987  17.442  0.00  0.00    +0.000 A 
ATOM     20  N   UNL     1      49.678   4.061  18.249  0.00  0.00    +0.000 NA
ENDBRANCH  14  15
ENDBRANCH   8  14
ENDBRANCH   7   8
ENDBRANCH   1   7
BRANCH   4  21
ATOM     21  C   UNL     1      48.122   8.140  12.103  0.00  0.00    +0.000 C 
BRANCH  21  22
ATOM     22  N   UNL     1      47.445   6.979  11.568  0.00  0.00    +0.000 N 
ATOM     23  C   UNL     1      46.091   6.947  11.365  0.00  0.00    +0.000 C 
ATOM     24  O   UNL     1      45.375   7.910  11.615  0.00  0.00    +0.000 OA
ATOM     25  H   UNL     1      47.974   6.112  11.590  0.00  0.00    +0.000 HD
BRANCH  23  26
ATOM     26  C   UNL     1      45.545   5.723  10.760  0.00  0.00    +0.000 A 
ATOM     27  C   UNL     1      45.734   5.493   9.405  0.00  0.00    +0.000 A 
ATOM     28  S   UNL     1      45.084   4.014   8.860  0.00  0.00    +0.000 S 
ATOM     29  C   UNL     1      44.483   3.647  10.407  0.00  0.00    +0.000 A 
ATOM     30  N   UNL     1      43.779   2.507  10.631  0.00  0.00    +0.000 NA
ATOM     31  C   UNL     1      43.354   2.367  11.844  0.00  0.00    +0.000 A 
ATOM     32  N   UNL     1      43.579   3.265  12.854  0.00  0.00    +0.000 N 
ATOM     33  C   UNL     1      44.328   4.406  12.688  0.00  0.00    +0.000 A 
ATOM     34  O   UNL     1      44.581   5.144  13.634  0.00  0.00    +0.000 OA
ATOM     35  C   UNL     1      44.799   4.627  11.336  0.00  0.00    +0.000 A 
ATOM     36  H   UNL     1      43.241   3.090  13.790  0.00  0.00    +0.000 HD
ENDBRANCH  23  26
ENDBRANCH  21  22
ENDBRANCH   4  21
TORSDOF 10
ENDMDL
MODEL 8
REMARK VINA RESULT:    -6.457      3.489      9.914
REMARK INTER + INTRA:         -11.184
REMARK INTER:                 -10.011
REMARK INTRA:                  -1.174
REMARK UNBOUND:                -1.141
REMARK  Name = 
REMARK  10 active torsions:
REMARK  status: ('A' for Active; 'I' for Inactive)
REMARK    1  A    between atoms: N_1  and  C_2
REMARK    2  A    between atoms: C_2  and  C_3
REMARK    3  A    between atoms: C_3  and  N_4
REMARK    4  A    between atoms: N_4  and  C_5
REMARK    5  A    between atoms: N_4  and  C_26
REMARK    6  A    between atoms: C_5  and  C_6
REMARK    7  A    between atoms: C_9  and  C_10
REMARK    8  A    between atoms: C_10  and  N_11
REMARK    9  A    between atoms: C_12  and  C_14
REMARK   10  A    between atoms: C_26  and  C_27
REMARK                            x       y       z     vdW  Elec       q    Type
REMARK                         _______ _______ _______ _____ _____    ______ ____
ROOT
ATOM      1  C   UNL     1      51.379   4.041  17.605  0.00  0.00    +0.000 A 
ATOM      2  C   UNL     1      50.912   2.734  17.465  0.00  0.00    +0.000 A 
ATOM      3  C   UNL     1      49.558   2.507  17.220  0.00  0.00    +0.000 A 
ATOM      4  C   UNL     1      48.698   3.598  17.120  0.00  0.00    +0.000 A 
ATOM      5  N   UNL     1      49.122   4.876  17.280  0.00  0.00    +0.000 NA
ATOM      6  C   UNL     1      50.436   5.063  17.524  0.00  0.00    +0.000 A 
ENDROOT
BRANCH   1   7
ATOM      7  C   UNL     1      52.843   4.359  17.790  0.00  0.00    +0.000 C 
BRANCH   7   8
ATOM      8  N   UNL     1      53.449   3.781  19.009  0.00  0.00    +0.000 NA
BRANCH   8   9
ATOM      9  C   UNL     1      53.602   4.824  20.055  0.00  0.00    +0.000 C 
BRANCH   9  10
ATOM     10  C   UNL     1      54.621   5.955  19.772  0.00  0.00    +0.000 C 
BRANCH  10  11
ATOM     11  N   UNL     1      53.996   7.279  19.754  0.00  0.00    +0.000 NA
ATOM     12  H   UNL     1      54.224   7.758  20.625  0.00  0.00    +0.000 HD
ATOM     13  H   UNL     1      52.982   7.161  19.766  0.00  0.00    +0.000 HD
ENDBRANCH  10  11
ENDBRANCH   9  10
ENDBRANCH   8   9
BRANCH   8  14
ATOM     14  C   UNL     1      54.734   3.108  18.708  0.00  0.00    +0.000 C 
BRANCH  14  15
ATOM     15  C   UNL     1      54.640   1.707  18.127  0.00  0.00    +0.000 A 
ATOM     16  C   UNL     1      55.058   1.458  16.820  0.00  0.00    +0.000 A 
ATOM     17  C   UNL     1      55.049   0.147  16.353  0.00  0.00    +0.000 A 
ATOM     18  C   UNL     1      54.627  -0.874  17.195  0.00  0.00    +0.000 A 
ATOM     19  C   UNL     1      54.215  -0.540  18.473  0.00  0.00    +0.000 A 
ATOM     20  N   UNL     1      54.208   0.722  18.956  0.00  0.00    +0.000 NA
ENDBRANCH  14  15
ENDBRANCH   8  14
ENDBRANCH   7   8
ENDBRANCH   1   7
BRANCH   4  21
ATOM     21  C   UNL     1      47.248   3.402  16.753  0.00  0.00    +0.000 C 
BRANCH  21  22
ATOM     22  N   UNL     1      46.796   4.385  15.793  0.00  0.00    +0.000 N 
ATOM     23  C   UNL     1      46.809   4.153  14.443  0.00  0.00    +0.000 C 
ATOM     24  O   UNL     1      47.197   3.090  13.971  0.00  0.00    +0.000 OA
ATOM     25  H   UNL     1      46.710   5.335  16.143  0.00  0.00    +0.000 HD
BRANCH  23  26
ATOM     26  C   UNL     1      46.267   5.219  13.587  0.00  0.00    +0.000 A 
ATOM     27  C   UNL     1      47.023   6.361  13.364  0.00  0.00    +0.000 A 
ATOM     28  S   UNL     1      46.281   7.484  12.318  0.00  0.00    +0.000 S 
ATOM     29  C   UNL     1      44.899   6.507  12.162  0.00  0.00    +0.000 A 
ATOM     30  N   UNL     1      43.841   6.908  11.410  0.00  0.00    +0.000 NA
ATOM     31  C   UNL     1      42.844   6.085  11.402  0.00  0.00    +0.000 A 
ATOM     32  N   UNL     1      42.817   4.892  12.076  0.00  0.00    +0.000 N 
ATOM     33  C   UNL     1      43.881   4.422  12.808  0.00  0.00    +0.000 A 
ATOM     34  O   UNL     1      43.855   3.311  13.328  0.00  0.00    +0.000 OA
ATOM     35  C   UNL     1      45.013   5.324  12.877  0.00  0.00    +0.000 A 
ATOM     36  H   UNL     1      42.017   4.278  12.014  0.00  0.00    +0.000 HD
ENDBRANCH  23  26
ENDBRANCH  21  22
ENDBRANCH   4  21
TORSDOF 10
ENDMDL
MODEL 9
REMARK VINA RESULT:    -6.363      2.842      3.938
REMARK INTER + INTRA:         -11.038
REMARK INTER:                 -10.686
REMARK INTRA:                  -0.352
REMARK UNBOUND:                -1.141
REMARK  Name = 
REMARK  10 active torsions:
REMARK  status: ('A' for Active; 'I' for Inactive)
REMARK    1  A    between atoms: N_1  and  C_2
REMARK    2  A    between atoms: C_2  and  C_3
REMARK    3  A    between atoms: C_3  and  N_4
REMARK    4  A    between atoms: N_4  and  C_5
REMARK    5  A    between atoms: N_4  and  C_26
REMARK    6  A    between atoms: C_5  and  C_6
REMARK    7  A    between atoms: C_9  and  C_10
REMARK    8  A    between atoms: C_10  and  N_11
REMARK    9  A    between atoms: C_12  and  C_14
REMARK   10  A    between atoms: C_26  and  C_27
REMARK                            x       y       z     vdW  Elec       q    Type
REMARK                         _______ _______ _______ _____ _____    ______ ____
ROOT
ATOM      1  C   UNL     1      46.252   5.174  12.195  0.00  0.00    +0.000 A 
ATOM      2  C   UNL     1      46.849   6.134  13.013  0.00  0.00    +0.000 A 
ATOM      3  C   UNL     1      47.251   5.786  14.303  0.00  0.00    +0.000 A 
ATOM      4  C   UNL     1      47.046   4.482  14.746  0.00  0.00    +0.000 A 
ATOM      5  N   UNL     1      46.443   3.540  13.980  0.00  0.00    +0.000 NA
ATOM      6  C   UNL     1      46.057   3.908  12.741  0.00  0.00    +0.000 A 
ENDROOT
BRANCH   1   7
ATOM      7  C   UNL     1      45.868   5.461  10.764  0.00  0.00    +0.000 C 
BRANCH   7   8
ATOM      8  N   UNL     1      44.430   5.284  10.464  0.00  0.00    +0.000 NA
BRANCH   8   9
ATOM      9  C   UNL     1      43.610   5.601  11.661  0.00  0.00    +0.000 C 
BRANCH   9  10
ATOM     10  C   UNL     1      42.326   6.435  11.429  0.00  0.00    +0.000 C 
BRANCH  10  11
ATOM     11  N   UNL     1      42.619   7.827  11.084  0.00  0.00    +0.000 NA
ATOM     12  H   UNL     1      43.490   8.099  11.542  0.00  0.00    +0.000 HD
ATOM     13  H   UNL     1      41.899   8.423  11.494  0.00  0.00    +0.000 HD
ENDBRANCH  10  11
ENDBRANCH   9  10
ENDBRANCH   8   9
BRANCH   8  14
ATOM     14  C   UNL     1      44.149   3.925   9.944  0.00  0.00    +0.000 C 
BRANCH  14  15
ATOM     15  C   UNL     1      45.140   3.371   8.937  0.00  0.00    +0.000 A 
ATOM     16  C   UNL     1      45.453   2.012   8.931  0.00  0.00    +0.000 A 
ATOM     17  C   UNL     1      46.290   1.522   7.933  0.00  0.00    +0.000 A 
ATOM     18  C   UNL     1      46.790   2.393   6.974  0.00  0.00    +0.000 A 
ATOM     19  C   UNL     1      46.443   3.730   7.059  0.00  0.00    +0.000 A 
ATOM     20  N   UNL     1      45.636   4.238   8.016  0.00  0.00    +0.000 NA
ENDBRANCH  14  15
ENDBRANCH   8  14
ENDBRANCH   7   8
ENDBRANCH   1   7
BRANCH   4  21
ATOM     21  C   UNL     1      47.560   4.039  16.094  0.00  0.00    +0.000 C 
BRANCH  21  22
ATOM     22  N   UNL     1      47.702   5.150  17.010  0.00  0.00    +0.000 N 
ATOM     23  C   UNL     1      48.185   4.996  18.282  0.00  0.00    +0.000 C 
ATOM     24  O   UNL     1      48.537   3.904  18.714  0.00  0.00    +0.000 OA
ATOM     25  H   UNL     1      47.194   5.994  16.759  0.00  0.00    +0.000 HD
BRANCH  23  26
ATOM     26  C   UNL     1      48.330   6.221  19.083  0.00  0.00    +0.000 A 
ATOM     27  C   UNL     1      47.684   6.310  20.309  0.00  0.00    +0.000 A 
ATOM     28  S   UNL     1      47.982   7.769  21.139  0.00  0.00    +0.000 S 
ATOM     29  C   UNL     1      48.948   8.356  19.869  0.00  0.00    +0.000 A 
ATOM     30  N   UNL     1      49.505   9.594  19.930  0.00  0.00    +0.000 NA
ATOM     31  C   UNL     1      50.189   9.927  18.886  0.00  0.00    +0.000 A 
ATOM     32  N   UNL     1      50.372   9.126  17.789  0.00  0.00    +0.000 N 
ATOM     33  C   UNL     1      49.871   7.849  17.704  0.00  0.00    +0.000 A 
ATOM     34  O   UNL     1      50.125   7.128  16.744  0.00  0.00    +0.000 OA
ATOM     35  C   UNL     1      49.066   7.439  18.836  0.00  0.00    +0.000 A 
ATOM     36  H   UNL     1      50.938   9.433  17.010  0.00  0.00    +0.000 HD
ENDBRANCH  23  26
ENDBRANCH  21  22
ENDBRANCH   4  21
TORSDOF 10
ENDMDL
