MODEL 1
REMARK VINA RESULT:    -9.241      0.000      0.000
REMARK INTER + INTRA:         -14.016
REMARK INTER:                 -13.023
REMARK INTRA:                  -0.993
REMARK UNBOUND:                -0.993
REMARK  Name = 
REMARK  9 active torsions:
REMARK  status: ('A' for Active; 'I' for Inactive)
REMARK    1  A    between atoms: C_1  and  C_2
REMARK    2  A    between atoms: C_2  and  C_3
REMARK    3  A    between atoms: C_6  and  O_7
REMARK    4  A    between atoms: O_7  and  C_8
REMARK    5  A    between atoms: C_10  and  C_11
REMARK    6  A    between atoms: C_11  and  C_14
REMARK    7  A    between atoms: C_14  and  N_15
REMARK    8  A    between atoms: C_19  and  C_20
REMARK    9  A    between atoms: C_27  and  C_28
REMARK                            x       y       z     vdW  Elec       q    Type
REMARK                         _______ _______ _______ _____ _____    ______ ____
ROOT
ATOM      1  C   UNL     1      46.918   5.359  13.923  0.00  0.00    +0.000 A 
ATOM      2  C   UNL     1      45.728   4.697  13.566  0.00  0.00    +0.000 A 
ATOM      3  C   UNL     1      44.683   5.363  12.892  0.00  0.00    +0.000 A 
ATOM      4  C   UNL     1      44.867   6.704  12.537  0.00  0.00    +0.000 A 
ATOM      5  C   UNL     1      46.077   7.345  12.820  0.00  0.00    +0.000 A 
ATOM      6  C   UNL     1      47.122   6.680  13.499  0.00  0.00    +0.000 A 
ENDROOT
BRANCH   6   7
ATOM      7  C   UNL     1      48.413   7.436  13.713  0.00  0.00    +0.000 C 
ATOM      8  F   UNL     1      49.555   6.779  13.374  0.00  0.00    +0.000 F 
ATOM      9  F   UNL     1      48.438   8.598  12.995  0.00  0.00    +0.000 F 
ATOM     10  F   UNL     1      48.576   7.814  15.013  0.00  0.00    +0.000 F 
ENDBRANCH   6   7
BRANCH   3  11
ATOM     11  C   UNL     1      43.360   4.660  12.599  0.00  0.00    +0.000 C 
ATOM     12  F   UNL     1      43.081   3.690  13.519  0.00  0.00    +0.000 F 
ATOM     13  F   UNL     1      42.301   5.526  12.657  0.00  0.00    +0.000 F 
BRANCH  11  14
ATOM     14  C   UNL     1      43.383   4.026  11.183  0.00  0.00    +0.000 C 
BRANCH  14  15
ATOM     15  N   UNL     1      44.073   4.835  10.141  0.00  0.00    +0.000 N 
ATOM     16  C   UNL     1      44.924   4.061   9.329  0.00  0.00    +0.000 A 
ATOM     17  C   UNL     1      45.658   4.641   8.281  0.00  0.00    +0.000 A 
ATOM     18  N   UNL     1      46.491   3.950   7.447  0.00  0.00    +0.000 NA
ATOM     19  C   UNL     1      46.548   2.614   7.695  0.00  0.00    +0.000 A 
ATOM     20  C   UNL     1      45.817   2.023   8.710  0.00  0.00    +0.000 A 
ATOM     21  N   UNL     1      45.000   2.728   9.534  0.00  0.00    +0.000 NA
ATOM     22  H   UNL     1      44.582   5.625  10.542  0.00  0.00    +0.000 HD
BRANCH  19  23
ATOM     23  C   UNL     1      47.443   1.762   6.858  0.00  0.00    +0.000 C 
ATOM     24  N   UNL     1      48.575   2.347   6.375  0.00  0.00    +0.000 N 
ATOM     25  O   UNL     1      47.172   0.590   6.609  0.00  0.00    +0.000 OA
ATOM     26  H   UNL     1      48.786   3.318   6.600  0.00  0.00    +0.000 HD
ATOM     27  H   UNL     1      49.215   1.802   5.816  0.00  0.00    +0.000 HD
ENDBRANCH  19  23
ENDBRANCH  14  15
ENDBRANCH  11  14
ENDBRANCH   3  11
BRANCH   1  28
ATOM     28  O   UNL     1      47.907   4.764  14.686  0.00  0.00    +0.000 OA
BRANCH  28  34
ATOM     29  C   UNL     1      47.017   2.856  17.745  0.00  0.00    +0.000 C 
ATOM     30  C   UNL     1      48.165   3.464  16.938  0.00  0.00    +0.000 C 
ATOM     31  C   UNL     1      49.038   2.374  16.328  0.00  0.00    +0.000 C 
ATOM     32  O   UNL     1      48.983   4.285  17.823  0.00  0.00    +0.000 OA
ATOM     33  C   UNL     1      48.791   5.443  16.985  0.00  0.00    +0.000 C 
ATOM     34  C   UNL     1      47.736   4.731  16.127  0.00  0.00    +0.000 C 
ENDBRANCH  28  34
ENDBRANCH   1  28
TORSDOF 7
ENDMDL
MODEL 2
REMARK VINA RESULT:    -8.927      0.865      1.120
REMARK INTER + INTRA:         -13.572
REMARK INTER:                 -12.308
REMARK INTRA:                  -1.264
REMARK UNBOUND:                -0.993
REMARK  Name = 
REMARK  9 active torsions:
REMARK  status: ('A' for Active; 'I' for Inactive)
REMARK    1  A    between atoms: C_1  and  C_2
REMARK    2  A    between atoms: C_2  and  C_3
REMARK    3  A    between atoms: C_6  and  O_7
REMARK    4  A    between atoms: O_7  and  C_8
REMARK    5  A    between atoms: C_10  and  C_11
REMARK    6  A    between atoms: C_11  and  C_14
REMARK    7  A    between atoms: C_14  and  N_15
REMARK    8  A    between atoms: C_19  and  C_20
REMARK    9  A    between atoms: C_27  and  C_28
REMARK                            x       y       z     vdW  Elec       q    Type
REMARK                         _______ _______ _______ _____ _____    ______ ____
ROOT
ATOM      1  C   UNL     1      47.014   5.365  13.907  0.00  0.00    +0.000 A 
ATOM      2  C   UNL     1      45.825   4.691  13.569  0.00  0.00    +0.000 A 
ATOM      3  C   UNL     1      44.811   5.313  12.812  0.00  0.00    +0.000 A 
ATOM      4  C   UNL     1      45.026   6.618  12.355  0.00  0.00    +0.000 A 
ATOM      5  C   UNL     1      46.235   7.265  12.623  0.00  0.00    +0.000 A 
ATOM      6  C   UNL     1      47.251   6.644  13.385  0.00  0.00    +0.000 A 
ENDROOT
BRANCH   6   7
ATOM      7  C   UNL     1      48.546   7.399  13.576  0.00  0.00    +0.000 C 
ATOM      8  F   UNL     1      49.677   6.756  13.181  0.00  0.00    +0.000 F 
ATOM      9  F   UNL     1      48.544   8.580  12.890  0.00  0.00    +0.000 F 
ATOM     10  F   UNL     1      48.751   7.742  14.880  0.00  0.00    +0.000 F 
ENDBRANCH   6   7
BRANCH   3  11
ATOM     11  C   UNL     1      43.487   4.605  12.536  0.00  0.00    +0.000 C 
ATOM     12  F   UNL     1      43.349   3.470  13.283  0.00  0.00    +0.000 F 
ATOM     13  F   UNL     1      42.414   5.388  12.869  0.00  0.00    +0.000 F 
BRANCH  11  14
ATOM     14  C   UNL     1      43.367   4.241  11.032  0.00  0.00    +0.000 C 
BRANCH  14  15
ATOM     15  N   UNL     1      43.826   2.871  10.676  0.00  0.00    +0.000 N 
ATOM     16  C   UNL     1      44.687   2.860   9.561  0.00  0.00    +0.000 A 
ATOM     17  C   UNL     1      45.235   1.662   9.075  0.00  0.00    +0.000 A 
ATOM     18  N   UNL     1      46.085   1.579   8.008  0.00  0.00    +0.000 NA
ATOM     19  C   UNL     1      46.392   2.778   7.443  0.00  0.00    +0.000 A 
ATOM     20  C   UNL     1      45.877   3.969   7.921  0.00  0.00    +0.000 A 
ATOM     21  N   UNL     1      45.027   4.031   8.979  0.00  0.00    +0.000 NA
ATOM     22  H   UNL     1      43.044   2.230  10.530  0.00  0.00    +0.000 HD
BRANCH  19  23
ATOM     23  C   UNL     1      47.299   2.806   6.257  0.00  0.00    +0.000 C 
ATOM     24  N   UNL     1      48.617   2.545   6.485  0.00  0.00    +0.000 N 
ATOM     25  O   UNL     1      46.881   3.056   5.130  0.00  0.00    +0.000 OA
ATOM     26  H   UNL     1      48.942   2.331   7.426  0.00  0.00    +0.000 HD
ATOM     27  H   UNL     1      49.262   2.539   5.709  0.00  0.00    +0.000 HD
ENDBRANCH  19  23
ENDBRANCH  14  15
ENDBRANCH  11  14
ENDBRANCH   3  11
BRANCH   1  28
ATOM     28  O   UNL     1      47.971   4.821  14.745  0.00  0.00    +0.000 OA
BRANCH  28  34
ATOM     29  C   UNL     1      46.970   2.804  17.698  0.00  0.00    +0.000 C 
ATOM     30  C   UNL     1      48.134   3.508  16.999  0.00  0.00    +0.000 C 
ATOM     31  C   UNL     1      49.135   2.496  16.457  0.00  0.00    +0.000 C 
ATOM     32  O   UNL     1      48.808   4.374  17.960  0.00  0.00    +0.000 OA
ATOM     33  C   UNL     1      48.601   5.527  17.119  0.00  0.00    +0.000 C 
ATOM     34  C   UNL     1      47.680   4.752  16.166  0.00  0.00    +0.000 C 
ENDBRANCH  28  34
ENDBRANCH   1  28
TORSDOF 7
ENDMDL
MODEL 3
REMARK VINA RESULT:    -8.009      2.365      4.232
REMARK INTER + INTRA:         -12.279
REMARK INTER:                 -11.148
REMARK INTRA:                  -1.131
REMARK UNBOUND:                -0.993
REMARK  Name = 
REMARK  9 active torsions:
REMARK  status: ('A' for Active; 'I' for Inactive)
REMARK    1  A    between atoms: C_1  and  C_2
REMARK    2  A    between atoms: C_2  and  C_3
REMARK    3  A    between atoms: C_6  and  O_7
REMARK    4  A    between atoms: O_7  and  C_8
REMARK    5  A    between atoms: C_10  and  C_11
REMARK    6  A    between atoms: C_11  and  C_14
REMARK    7  A    between atoms: C_14  and  N_15
REMARK    8  A    between atoms: C_19  and  C_20
REMARK    9  A    between atoms: C_27  and  C_28
REMARK                            x       y       z     vdW  Elec       q    Type
REMARK                         _______ _______ _______ _____ _____    ______ ____
ROOT
ATOM      1  C   UNL     1      46.532   7.167  12.484  0.00  0.00    +0.000 A 
ATOM      2  C   UNL     1      45.249   6.848  11.999  0.00  0.00    +0.000 A 
ATOM      3  C   UNL     1      44.560   5.696  12.431  0.00  0.00    +0.000 A 
ATOM      4  C   UNL     1      45.161   4.883  13.398  0.00  0.00    +0.000 A 
ATOM      5  C   UNL     1      46.401   5.236  13.939  0.00  0.00    +0.000 A 
ATOM      6  C   UNL     1      47.094   6.388  13.504  0.00  0.00    +0.000 A 
ENDROOT
BRANCH   6   7
ATOM      7  C   UNL     1      48.401   6.719  14.185  0.00  0.00    +0.000 C 
ATOM      8  F   UNL     1      49.501   6.757  13.386  0.00  0.00    +0.000 F 
ATOM      9  F   UNL     1      48.354   7.943  14.792  0.00  0.00    +0.000 F 
ATOM     10  F   UNL     1      48.698   5.837  15.182  0.00  0.00    +0.000 F 
ENDBRANCH   6   7
BRANCH   3  11
ATOM     11  C   UNL     1      43.213   5.310  11.824  0.00  0.00    +0.000 C 
ATOM     12  F   UNL     1      42.538   4.415  12.604  0.00  0.00    +0.000 F 
ATOM     13  F   UNL     1      42.379   6.391  11.713  0.00  0.00    +0.000 F 
BRANCH  11  14
ATOM     14  C   UNL     1      43.406   4.707  10.408  0.00  0.00    +0.000 C 
BRANCH  14  15
ATOM     15  N   UNL     1      43.903   3.304  10.382  0.00  0.00    +0.000 N 
ATOM     16  C   UNL     1      44.792   3.063   9.317  0.00  0.00    +0.000 A 
ATOM     17  C   UNL     1      45.377   1.801   9.127  0.00  0.00    +0.000 A 
ATOM     18  N   UNL     1      46.257   1.500   8.125  0.00  0.00    +0.000 NA
ATOM     19  C   UNL     1      46.553   2.547   7.308  0.00  0.00    +0.000 A 
ATOM     20  C   UNL     1      46.001   3.802   7.492  0.00  0.00    +0.000 A 
ATOM     21  N   UNL     1      45.123   4.080   8.491  0.00  0.00    +0.000 NA
ATOM     22  H   UNL     1      43.139   2.626  10.370  0.00  0.00    +0.000 HD
BRANCH  19  23
ATOM     23  C   UNL     1      47.489   2.329   6.166  0.00  0.00    +0.000 C 
ATOM     24  N   UNL     1      47.500   3.280   5.190  0.00  0.00    +0.000 N 
ATOM     25  O   UNL     1      48.213   1.339   6.104  0.00  0.00    +0.000 OA
ATOM     26  H   UNL     1      46.898   4.098   5.264  0.00  0.00    +0.000 HD
ATOM     27  H   UNL     1      48.129   3.179   4.407  0.00  0.00    +0.000 HD
ENDBRANCH  19  23
ENDBRANCH  14  15
ENDBRANCH  11  14
ENDBRANCH   3  11
BRANCH   1  28
ATOM     28  O   UNL     1      47.277   8.224  11.992  0.00  0.00    +0.000 OA
BRANCH  28  34
ATOM     29  C   UNL     1      48.407  11.512  13.296  0.00  0.00    +0.000 C 
ATOM     30  C   UNL     1      47.878  10.767  12.070  0.00  0.00    +0.000 C 
ATOM     31  C   UNL     1      48.954  10.651  10.998  0.00  0.00    +0.000 C 
ATOM     32  O   UNL     1      46.741  11.499  11.524  0.00  0.00    +0.000 OA
ATOM     33  C   UNL     1      45.889  10.342  11.650  0.00  0.00    +0.000 C 
ATOM     34  C   UNL     1      46.949   9.565  12.443  0.00  0.00    +0.000 C 
ENDBRANCH  28  34
ENDBRANCH   1  28
TORSDOF 7
ENDMDL
MODEL 4
REMARK VINA RESULT:    -7.726      2.565      3.569
REMARK INTER + INTRA:         -11.881
REMARK INTER:                 -10.623
REMARK INTRA:                  -1.258
REMARK UNBOUND:                -0.993
REMARK  Name = 
REMARK  9 active torsions:
REMARK  status: ('A' for Active; 'I' for Inactive)
REMARK    1  A    between atoms: C_1  and  C_2
REMARK    2  A    between atoms: C_2  and  C_3
REMARK    3  A    between atoms: C_6  and  O_7
REMARK    4  A    between atoms: O_7  and  C_8
REMARK    5  A    between atoms: C_10  and  C_11
REMARK    6  A    between atoms: C_11  and  C_14
REMARK    7  A    between atoms: C_14  and  N_15
REMARK    8  A    between atoms: C_19  and  C_20
REMARK    9  A    between atoms: C_27  and  C_28
REMARK                            x       y       z     vdW  Elec       q    Type
REMARK                         _______ _______ _______ _____ _____    ______ ____
ROOT
ATOM      1  C   UNL     1      45.760   8.193  12.665  0.00  0.00    +0.000 A 
ATOM      2  C   UNL     1      44.990   7.014  12.654  0.00  0.00    +0.000 A 
ATOM      3  C   UNL     1      43.817   6.902  11.880  0.00  0.00    +0.000 A 
ATOM      4  C   UNL     1      43.445   7.983  11.073  0.00  0.00    +0.000 A 
ATOM      5  C   UNL     1      44.246   9.127  11.021  0.00  0.00    +0.000 A 
ATOM      6  C   UNL     1      45.420   9.242  11.799  0.00  0.00    +0.000 A 
ENDROOT
BRANCH   6   7
ATOM      7  C   UNL     1      46.251  10.493  11.636  0.00  0.00    +0.000 C 
ATOM      8  F   UNL     1      46.521  11.186  12.774  0.00  0.00    +0.000 F 
ATOM      9  F   UNL     1      47.470  10.217  11.084  0.00  0.00    +0.000 F 
ATOM     10  F   UNL     1      45.669  11.388  10.787  0.00  0.00    +0.000 F 
ENDBRANCH   6   7
BRANCH   3  11
ATOM     11  C   UNL     1      42.941   5.654  11.953  0.00  0.00    +0.000 C 
ATOM     12  F   UNL     1      42.979   5.074  13.189  0.00  0.00    +0.000 F 
ATOM     13  F   UNL     1      41.621   5.947  11.733  0.00  0.00    +0.000 F 
BRANCH  11  14
ATOM     14  C   UNL     1      43.384   4.614  10.890  0.00  0.00    +0.000 C 
BRANCH  14  15
ATOM     15  N   UNL     1      44.319   5.131   9.853  0.00  0.00    +0.000 N 
ATOM     16  C   UNL     1      45.025   4.104   9.198  0.00  0.00    +0.000 A 
ATOM     17  C   UNL     1      45.949   4.388   8.180  0.00  0.00    +0.000 A 
ATOM     18  N   UNL     1      46.658   3.443   7.494  0.00  0.00    +0.000 NA
ATOM     19  C   UNL     1      46.383   2.162   7.861  0.00  0.00    +0.000 A 
ATOM     20  C   UNL     1      45.461   1.862   8.848  0.00  0.00    +0.000 A 
ATOM     21  N   UNL     1      44.771   2.817   9.524  0.00  0.00    +0.000 NA
ATOM     22  H   UNL     1      44.967   5.824  10.232  0.00  0.00    +0.000 HD
BRANCH  19  23
ATOM     23  C   UNL     1      47.113   1.046   7.191  0.00  0.00    +0.000 C 
ATOM     24  N   UNL     1      46.871  -0.213   7.653  0.00  0.00    +0.000 N 
ATOM     25  O   UNL     1      47.899   1.250   6.270  0.00  0.00    +0.000 OA
ATOM     26  H   UNL     1      46.208  -0.361   8.413  0.00  0.00    +0.000 HD
ATOM     27  H   UNL     1      47.332  -0.998   7.218  0.00  0.00    +0.000 HD
ENDBRANCH  19  23
ENDBRANCH  14  15
ENDBRANCH  11  14
ENDBRANCH   3  11
BRANCH   1  28
ATOM     28  O   UNL     1      46.846   8.372  13.502  0.00  0.00    +0.000 OA
BRANCH  28  34
ATOM     29  C   UNL     1      50.056   7.688  11.764  0.00  0.00    +0.000 C 
ATOM     30  C   UNL     1      49.415   8.147  13.074  0.00  0.00    +0.000 C 
ATOM     31  C   UNL     1      49.690   9.625  13.325  0.00  0.00    +0.000 C 
ATOM     32  O   UNL     1      49.973   7.368  14.173  0.00  0.00    +0.000 OA
ATOM     33  C   UNL     1      48.660   6.924  14.572  0.00  0.00    +0.000 C 
ATOM     34  C   UNL     1      48.004   7.516  13.316  0.00  0.00    +0.000 C 
ENDBRANCH  28  34
ENDBRANCH   1  28
TORSDOF 7
ENDMDL
MODEL 5
REMARK VINA RESULT:    -7.275      2.076      3.831
REMARK INTER + INTRA:         -11.246
REMARK INTER:                 -10.392
REMARK INTRA:                  -0.853
REMARK UNBOUND:                -0.993
REMARK  Name = 
REMARK  9 active torsions:
REMARK  status: ('A' for Active; 'I' for Inactive)
REMARK    1  A    between atoms: C_1  and  C_2
REMARK    2  A    between atoms: C_2  and  C_3
REMARK    3  A    between atoms: C_6  and  O_7
REMARK    4  A    between atoms: O_7  and  C_8
REMARK    5  A    between atoms: C_10  and  C_11
REMARK    6  A    between atoms: C_11  and  C_14
REMARK    7  A    between atoms: C_14  and  N_15
REMARK    8  A    between atoms: C_19  and  C_20
REMARK    9  A    between atoms: C_27  and  C_28
REMARK                            x       y       z     vdW  Elec       q    Type
REMARK                         _______ _______ _______ _____ _____    ______ ____
ROOT
ATOM      1  C   UNL     1      46.487   5.831  13.268  0.00  0.00    +0.000 A 
ATOM      2  C   UNL     1      45.455   6.231  12.399  0.00  0.00    +0.000 A 
ATOM      3  C   UNL     1      44.227   5.540  12.339  0.00  0.00    +0.000 A 
ATOM      4  C   UNL     1      44.029   4.458  13.204  0.00  0.00    +0.000 A 
ATOM      5  C   UNL     1      45.020   4.103  14.123  0.00  0.00    +0.000 A 
ATOM      6  C   UNL     1      46.253   4.793  14.180  0.00  0.00    +0.000 A 
ENDROOT
BRANCH   6   7
ATOM      7  C   UNL     1      47.242   4.375  15.243  0.00  0.00    +0.000 C 
ATOM      8  F   UNL     1      46.738   4.191  16.492  0.00  0.00    +0.000 F 
ATOM      9  F   UNL     1      47.853   3.195  14.923  0.00  0.00    +0.000 F 
ATOM     10  F   UNL     1      48.256   5.276  15.383  0.00  0.00    +0.000 F 
ENDBRANCH   6   7
BRANCH   3  11
ATOM     11  C   UNL     1      43.155   5.925  11.322  0.00  0.00    +0.000 C 
ATOM     12  F   UNL     1      41.901   5.597  11.752  0.00  0.00    +0.000 F 
ATOM     13  F   UNL     1      43.120   7.277  11.110  0.00  0.00    +0.000 F 
BRANCH  11  14
ATOM     14  C   UNL     1      43.423   5.233   9.960  0.00  0.00    +0.000 C 
BRANCH  14  15
ATOM     15  N   UNL     1      43.771   3.787  10.044  0.00  0.00    +0.000 N 
ATOM     16  C   UNL     1      44.756   3.412   9.110  0.00  0.00    +0.000 A 
ATOM     17  C   UNL     1      45.226   2.090   9.038  0.00  0.00    +0.000 A 
ATOM     18  N   UNL     1      46.187   1.658   8.167  0.00  0.00    +0.000 NA
ATOM     19  C   UNL     1      46.689   2.632   7.361  0.00  0.00    +0.000 A 
ATOM     20  C   UNL     1      46.252   3.943   7.432  0.00  0.00    +0.000 A 
ATOM     21  N   UNL     1      45.290   4.351   8.300  0.00  0.00    +0.000 NA
ATOM     22  H   UNL     1      42.948   3.189   9.957  0.00  0.00    +0.000 HD
BRANCH  19  23
ATOM     23  C   UNL     1      47.731   2.271   6.356  0.00  0.00    +0.000 C 
ATOM     24  N   UNL     1      47.701   2.942   5.170  0.00  0.00    +0.000 N 
ATOM     25  O   UNL     1      48.575   1.407   6.582  0.00  0.00    +0.000 OA
ATOM     26  H   UNL     1      46.999   3.661   5.006  0.00  0.00    +0.000 HD
ATOM     27  H   UNL     1      48.398   2.739   4.468  0.00  0.00    +0.000 HD
ENDBRANCH  19  23
ENDBRANCH  14  15
ENDBRANCH  11  14
ENDBRANCH   3  11
BRANCH   1  28
ATOM     28  O   UNL     1      47.740   6.417  13.263  0.00  0.00    +0.000 OA
BRANCH  28  34
ATOM     29  C   UNL     1      47.176   9.895  12.089  0.00  0.00    +0.000 C 
ATOM     30  C   UNL     1      48.171   8.946  12.759  0.00  0.00    +0.000 C 
ATOM     31  C   UNL     1      48.368   9.310  14.225  0.00  0.00    +0.000 C 
ATOM     32  O   UNL     1      49.453   9.040  12.070  0.00  0.00    +0.000 OA
ATOM     33  C   UNL     1      49.450   7.624  11.797  0.00  0.00    +0.000 C 
ATOM     34  C   UNL     1      48.006   7.462  12.290  0.00  0.00    +0.000 C 
ENDBRANCH  28  34
ENDBRANCH   1  28
TORSDOF 7
ENDMDL
MODEL 6
REMARK VINA RESULT:    -7.152      5.196      8.268
REMARK INTER + INTRA:         -11.071
REMARK INTER:                  -9.874
REMARK INTRA:                  -1.198
REMARK UNBOUND:                -0.993
REMARK  Name = 
REMARK  9 active torsions:
REMARK  status: ('A' for Active; 'I' for Inactive)
REMARK    1  A    between atoms: C_1  and  C_2
REMARK    2  A    between atoms: C_2  and  C_3
REMARK    3  A    between atoms: C_6  and  O_7
REMARK    4  A    between atoms: O_7  and  C_8
REMARK    5  A    between atoms: C_10  and  C_11
REMARK    6  A    between atoms: C_11  and  C_14
REMARK    7  A    between atoms: C_14  and  N_15
REMARK    8  A    between atoms: C_19  and  C_20
REMARK    9  A    between atoms: C_27  and  C_28
REMARK                            x       y       z     vdW  Elec       q    Type
REMARK                         _______ _______ _______ _____ _____    ______ ____
ROOT
ATOM      1  C   UNL     1      46.593   4.900  13.466  0.00  0.00    +0.000 A 
ATOM      2  C   UNL     1      46.728   4.226  14.695  0.00  0.00    +0.000 A 
ATOM      3  C   UNL     1      47.542   4.731  15.731  0.00  0.00    +0.000 A 
ATOM      4  C   UNL     1      48.188   5.955  15.533  0.00  0.00    +0.000 A 
ATOM      5  C   UNL     1      47.997   6.667  14.345  0.00  0.00    +0.000 A 
ATOM      6  C   UNL     1      47.186   6.160  13.305  0.00  0.00    +0.000 A 
ENDROOT
BRANCH   6   7
ATOM      7  C   UNL     1      46.993   7.024  12.081  0.00  0.00    +0.000 C 
ATOM      8  F   UNL     1      47.379   6.479  10.896  0.00  0.00    +0.000 F 
ATOM      9  F   UNL     1      45.682   7.367  11.910  0.00  0.00    +0.000 F 
ATOM     10  F   UNL     1      47.663   8.208  12.178  0.00  0.00    +0.000 F 
ENDBRANCH   6   7
BRANCH   3  11
ATOM     11  C   UNL     1      47.756   3.941  17.019  0.00  0.00    +0.000 C 
ATOM     12  F   UNL     1      47.821   4.755  18.114  0.00  0.00    +0.000 F 
ATOM     13  F   UNL     1      46.717   3.084  17.269  0.00  0.00    +0.000 F 
BRANCH  11  14
ATOM     14  C   UNL     1      49.058   3.101  16.933  0.00  0.00    +0.000 C 
BRANCH  14  15
ATOM     15  N   UNL     1      50.277   3.768  17.468  0.00  0.00    +0.000 N 
ATOM     16  C   UNL     1      51.345   2.872  17.662  0.00  0.00    +0.000 A 
ATOM     17  C   UNL     1      52.585   3.311  18.152  0.00  0.00    +0.000 A 
ATOM     18  N   UNL     1      53.668   2.501  18.352  0.00  0.00    +0.000 NA
ATOM     19  C   UNL     1      53.462   1.200  18.014  0.00  0.00    +0.000 A 
ATOM     20  C   UNL     1      52.253   0.753  17.511  0.00  0.00    +0.000 A 
ATOM     21  N   UNL     1      51.186   1.573  17.326  0.00  0.00    +0.000 NA
ATOM     22  H   UNL     1      50.084   4.287  18.326  0.00  0.00    +0.000 HD
BRANCH  19  23
ATOM     23  C   UNL     1      54.570   0.219  18.209  0.00  0.00    +0.000 C 
ATOM     24  N   UNL     1      54.489  -0.592  19.301  0.00  0.00    +0.000 N 
ATOM     25  O   UNL     1      55.514   0.147  17.427  0.00  0.00    +0.000 OA
ATOM     26  H   UNL     1      53.694  -0.522  19.933  0.00  0.00    +0.000 HD
ATOM     27  H   UNL     1      55.210  -1.279  19.463  0.00  0.00    +0.000 HD
ENDBRANCH  19  23
ENDBRANCH  14  15
ENDBRANCH  11  14
ENDBRANCH   3  11
BRANCH   1  28
ATOM     28  O   UNL     1      45.898   4.370  12.394  0.00  0.00    +0.000 OA
BRANCH  28  34
ATOM     29  C   UNL     1      42.543   5.688  11.503  0.00  0.00    +0.000 C 
ATOM     30  C   UNL     1      43.557   4.573  11.248  0.00  0.00    +0.000 C 
ATOM     31  C   UNL     1      44.139   4.677   9.844  0.00  0.00    +0.000 C 
ATOM     32  O   UNL     1      42.890   3.284  11.390  0.00  0.00    +0.000 OA
ATOM     33  C   UNL     1      43.830   2.869  12.403  0.00  0.00    +0.000 C 
ATOM     34  C   UNL     1      44.453   4.269  12.495  0.00  0.00    +0.000 C 
ENDBRANCH  28  34
ENDBRANCH   1  28
TORSDOF 7
ENDMDL
MODEL 7
REMARK VINA RESULT:    -7.117      4.236      6.543
REMARK INTER + INTRA:         -11.023
REMARK INTER:                  -9.882
REMARK INTRA:                  -1.141
REMARK UNBOUND:                -0.993
REMARK  Name = 
REMARK  9 active torsions:
REMARK  status: ('A' for Active; 'I' for Inactive)
REMARK    1  A    between atoms: C_1  and  C_2
REMARK    2  A    between atoms: C_2  and  C_3
REMARK    3  A    between atoms: C_6  and  O_7
REMARK    4  A    between atoms: O_7  and  C_8
REMARK    5  A    between atoms: C_10  and  C_11
REMARK    6  A    between atoms: C_11  and  C_14
REMARK    7  A    between atoms: C_14  and  N_15
REMARK    8  A    between atoms: C_19  and  C_20
REMARK    9  A    between atoms: C_27  and  C_28
REMARK                            x       y       z     vdW  Elec       q    Type
REMARK                         _______ _______ _______ _____ _____    ______ ____
ROOT
ATOM      1  C   UNL     1      51.653   3.861  17.978  0.00  0.00    +0.000 A 
ATOM      2  C   UNL     1      50.427   4.540  17.845  0.00  0.00    +0.000 A 
ATOM      3  C   UNL     1      49.272   3.895  17.354  0.00  0.00    +0.000 A 
ATOM      4  C   UNL     1      49.353   2.534  17.038  0.00  0.00    +0.000 A 
ATOM      5  C   UNL     1      50.547   1.836  17.241  0.00  0.00    +0.000 A 
ATOM      6  C   UNL     1      51.705   2.483  17.729  0.00  0.00    +0.000 A 
ENDROOT
BRANCH   6   7
ATOM      7  C   UNL     1      52.934   1.636  17.969  0.00  0.00    +0.000 C 
ATOM      8  F   UNL     1      53.612   1.878  19.122  0.00  0.00    +0.000 F 
ATOM      9  F   UNL     1      52.626   0.305  18.004  0.00  0.00    +0.000 F 
ATOM     10  F   UNL     1      53.849   1.766  16.967  0.00  0.00    +0.000 F 
ENDBRANCH   6   7
BRANCH   3  11
ATOM     11  C   UNL     1      47.977   4.668  17.122  0.00  0.00    +0.000 C 
ATOM     12  F   UNL     1      47.077   4.473  18.131  0.00  0.00    +0.000 F 
ATOM     13  F   UNL     1      48.192   6.020  17.087  0.00  0.00    +0.000 F 
BRANCH  11  14
ATOM     14  C   UNL     1      47.328   4.252  15.775  0.00  0.00    +0.000 C 
BRANCH  14  15
ATOM     15  N   UNL     1      47.085   5.368  14.820  0.00  0.00    +0.000 N 
ATOM     16  C   UNL     1      46.395   4.953  13.665  0.00  0.00    +0.000 A 
ATOM     17  C   UNL     1      46.063   5.863  12.648  0.00  0.00    +0.000 A 
ATOM     18  N   UNL     1      45.384   5.534  11.509  0.00  0.00    +0.000 NA
ATOM     19  C   UNL     1      45.021   4.225  11.433  0.00  0.00    +0.000 A 
ATOM     20  C   UNL     1      45.323   3.319  12.434  0.00  0.00    +0.000 A 
ATOM     21  N   UNL     1      46.005   3.664  13.556  0.00  0.00    +0.000 NA
ATOM     22  H   UNL     1      47.949   5.851  14.567  0.00  0.00    +0.000 HD
BRANCH  19  23
ATOM     23  C   UNL     1      44.291   3.748  10.221  0.00  0.00    +0.000 C 
ATOM     24  N   UNL     1      44.175   4.627   9.187  0.00  0.00    +0.000 N 
ATOM     25  O   UNL     1      43.813   2.618  10.158  0.00  0.00    +0.000 OA
ATOM     26  H   UNL     1      44.586   5.557   9.256  0.00  0.00    +0.000 HD
ATOM     27  H   UNL     1      43.701   4.340   8.343  0.00  0.00    +0.000 HD
ENDBRANCH  19  23
ENDBRANCH  14  15
ENDBRANCH  11  14
ENDBRANCH   3  11
BRANCH   1  28
ATOM     28  O   UNL     1      52.825   4.498  18.344  0.00  0.00    +0.000 OA
BRANCH  28  34
ATOM     29  C   UNL     1      52.821   7.189  15.786  0.00  0.00    +0.000 C 
ATOM     30  C   UNL     1      53.292   6.794  17.186  0.00  0.00    +0.000 C 
ATOM     31  C   UNL     1      52.561   7.598  18.254  0.00  0.00    +0.000 C 
ATOM     32  O   UNL     1      54.723   7.053  17.295  0.00  0.00    +0.000 OA
ATOM     33  C   UNL     1      54.982   5.678  17.647  0.00  0.00    +0.000 C 
ATOM     34  C   UNL     1      53.540   5.256  17.333  0.00  0.00    +0.000 C 
ENDBRANCH  28  34
ENDBRANCH   1  28
TORSDOF 7
ENDMDL
MODEL 8
REMARK VINA RESULT:    -6.862      4.040      6.242
REMARK INTER + INTRA:         -10.664
REMARK INTER:                  -9.464
REMARK INTRA:                  -1.200
REMARK UNBOUND:                -0.993
REMARK  Name = 
REMARK  9 active torsions:
REMARK  status: ('A' for Active; 'I' for Inactive)
REMARK    1  A    between atoms: C_1  and  C_2
REMARK    2  A    between atoms: C_2  and  C_3
REMARK    3  A    between atoms: C_6  and  O_7
REMARK    4  A    between atoms: O_7  and  C_8
REMARK    5  A    between atoms: C_10  and  C_11
REMARK    6  A    between atoms: C_11  and  C_14
REMARK    7  A    between atoms: C_14  and  N_15
REMARK    8  A    between atoms: C_19  and  C_20
REMARK    9  A    between atoms: C_27  and  C_28
REMARK                            x       y       z     vdW  Elec       q    Type
REMARK                         _______ _______ _______ _____ _____    ______ ____
ROOT
ATOM      1  C   UNL     1      50.945   4.429  18.497  0.00  0.00    +0.000 A 
ATOM      2  C   UNL     1      49.554   4.448  18.279  0.00  0.00    +0.000 A 
ATOM      3  C   UNL     1      48.904   3.429  17.553  0.00  0.00    +0.000 A 
ATOM      4  C   UNL     1      49.668   2.356  17.082  0.00  0.00    +0.000 A 
ATOM      5  C   UNL     1      51.036   2.292  17.361  0.00  0.00    +0.000 A 
ATOM      6  C   UNL     1      51.689   3.315  18.085  0.00  0.00    +0.000 A 
ENDROOT
BRANCH   6   7
ATOM      7  C   UNL     1      53.159   3.134  18.386  0.00  0.00    +0.000 C 
ATOM      8  F   UNL     1      53.509   3.157  19.700  0.00  0.00    +0.000 F 
ATOM      9  F   UNL     1      53.625   1.941  17.910  0.00  0.00    +0.000 F 
ATOM     10  F   UNL     1      53.927   4.085  17.782  0.00  0.00    +0.000 F 
ENDBRANCH   6   7
BRANCH   3  11
ATOM     11  C   UNL     1      47.412   3.513  17.241  0.00  0.00    +0.000 C 
ATOM     12  F   UNL     1      46.715   2.475  17.789  0.00  0.00    +0.000 F 
ATOM     13  F   UNL     1      46.847   4.644  17.768  0.00  0.00    +0.000 F 
BRANCH  11  14
ATOM     14  C   UNL     1      47.177   3.531  15.707  0.00  0.00    +0.000 C 
BRANCH  14  15
ATOM     15  N   UNL     1      47.057   4.886  15.103  0.00  0.00    +0.000 N 
ATOM     16  C   UNL     1      46.434   4.864  13.840  0.00  0.00    +0.000 A 
ATOM     17  C   UNL     1      46.220   6.045  13.112  0.00  0.00    +0.000 A 
ATOM     18  N   UNL     1      45.611   6.099  11.889  0.00  0.00    +0.000 NA
ATOM     19  C   UNL     1      45.194   4.893  11.419  0.00  0.00    +0.000 A 
ATOM     20  C   UNL     1      45.379   3.722  12.132  0.00  0.00    +0.000 A 
ATOM     21  N   UNL     1      45.993   3.688  13.343  0.00  0.00    +0.000 NA
ATOM     22  H   UNL     1      47.958   5.364  15.048  0.00  0.00    +0.000 HD
BRANCH  19  23
ATOM     23  C   UNL     1      44.532   4.829  10.082  0.00  0.00    +0.000 C 
ATOM     24  N   UNL     1      45.340   4.939   8.990  0.00  0.00    +0.000 N 
ATOM     25  O   UNL     1      43.318   4.689   9.969  0.00  0.00    +0.000 OA
ATOM     26  H   UNL     1      46.346   5.047   9.106  0.00  0.00    +0.000 HD
ATOM     27  H   UNL     1      44.935   4.886   8.067  0.00  0.00    +0.000 HD
ENDBRANCH  19  23
ENDBRANCH  14  15
ENDBRANCH  11  14
ENDBRANCH   3  11
BRANCH   1  28
ATOM     28  O   UNL     1      51.623   5.472  19.103  0.00  0.00    +0.000 OA
BRANCH  28  34
ATOM     29  C   UNL     1      49.235   8.215  18.353  0.00  0.00    +0.000 C 
ATOM     30  C   UNL     1      50.322   7.729  19.312  0.00  0.00    +0.000 C 
ATOM     31  C   UNL     1      49.730   7.380  20.672  0.00  0.00    +0.000 C 
ATOM     32  O   UNL     1      51.310   8.787  19.483  0.00  0.00    +0.000 OA
ATOM     33  C   UNL     1      52.372   7.914  19.047  0.00  0.00    +0.000 C 
ATOM     34  C   UNL     1      51.387   6.819  18.615  0.00  0.00    +0.000 C 
ENDBRANCH  28  34
ENDBRANCH   1  28
TORSDOF 7
ENDMDL
MODEL 9
REMARK VINA RESULT:    -6.748      3.431      5.042
REMARK INTER + INTRA:         -10.503
REMARK INTER:                  -8.866
REMARK INTRA:                  -1.637
REMARK UNBOUND:                -0.993
REMARK  Name = 
REMARK  9 active torsions:
REMARK  status: ('A' for Active; 'I' for Inactive)
REMARK    1  A    between atoms: C_1  and  C_2
REMARK    2  A    between atoms: C_2  and  C_3
REMARK    3  A    between atoms: C_6  and  O_7
REMARK    4  A    between atoms: O_7  and  C_8
REMARK    5  A    between atoms: C_10  and  C_11
REMARK    6  A    between atoms: C_11  and  C_14
REMARK    7  A    between atoms: C_14  and  N_15
REMARK    8  A    between atoms: C_19  and  C_20
REMARK    9  A    between atoms: C_27  and  C_28
REMARK                            x       y       z     vdW  Elec       q    Type
REMARK                         _______ _______ _______ _____ _____    ______ ____
ROOT
ATOM      1  C   UNL     1      49.334   6.611  15.976  0.00  0.00    +0.000 A 
ATOM      2  C   UNL     1      48.638   7.263  14.940  0.00  0.00    +0.000 A 
ATOM      3  C   UNL     1      49.280   8.168  14.070  0.00  0.00    +0.000 A 
ATOM      4  C   UNL     1      50.655   8.380  14.226  0.00  0.00    +0.000 A 
ATOM      5  C   UNL     1      51.367   7.678  15.203  0.00  0.00    +0.000 A 
ATOM      6  C   UNL     1      50.723   6.774  16.077  0.00  0.00    +0.000 A 
ENDROOT
BRANCH   6   7
ATOM      7  C   UNL     1      51.583   6.020  17.065  0.00  0.00    +0.000 C 
ATOM      8  F   UNL     1      51.532   4.663  16.991  0.00  0.00    +0.000 F 
ATOM      9  F   UNL     1      52.904   6.340  16.926  0.00  0.00    +0.000 F 
ATOM     10  F   UNL     1      51.273   6.332  18.357  0.00  0.00    +0.000 F 
ENDBRANCH   6   7
BRANCH   3  11
ATOM     11  C   UNL     1      48.493   8.940  13.015  0.00  0.00    +0.000 C 
ATOM     12  F   UNL     1      48.878  10.248  12.945  0.00  0.00    +0.000 F 
ATOM     13  F   UNL     1      48.699   8.436  11.758  0.00  0.00    +0.000 F 
BRANCH  11  14
ATOM     14  C   UNL     1      46.972   8.873  13.314  0.00  0.00    +0.000 C 
BRANCH  14  15
ATOM     15  N   UNL     1      46.109   8.590  12.134  0.00  0.00    +0.000 N 
ATOM     16  C   UNL     1      45.671   7.252  12.090  0.00  0.00    +0.000 A 
ATOM     17  C   UNL     1      44.840   6.791  11.057  0.00  0.00    +0.000 A 
ATOM     18  N   UNL     1      44.367   5.512  10.959  0.00  0.00    +0.000 NA
ATOM     19  C   UNL     1      44.754   4.694  11.975  0.00  0.00    +0.000 A 
ATOM     20  C   UNL     1      45.556   5.137  13.011  0.00  0.00    +0.000 A 
ATOM     21  N   UNL     1      46.022   6.410  13.087  0.00  0.00    +0.000 NA
ATOM     22  H   UNL     1      46.563   8.846  11.256  0.00  0.00    +0.000 HD
BRANCH  19  23
ATOM     23  C   UNL     1      44.312   3.268  11.961  0.00  0.00    +0.000 C 
ATOM     24  N   UNL     1      44.647   2.531  10.864  0.00  0.00    +0.000 N 
ATOM     25  O   UNL     1      43.674   2.780  12.889  0.00  0.00    +0.000 OA
ATOM     26  H   UNL     1      45.185   2.952  10.109  0.00  0.00    +0.000 HD
ATOM     27  H   UNL     1      44.381   1.558  10.821  0.00  0.00    +0.000 HD
ENDBRANCH  19  23
ENDBRANCH  14  15
ENDBRANCH  11  14
ENDBRANCH   3  11
BRANCH   1  28
ATOM     28  O   UNL     1      48.706   5.811  16.914  0.00  0.00    +0.000 OA
BRANCH  28  34
ATOM     29  C   UNL     1      49.158   2.127  16.809  0.00  0.00    +0.000 C 
ATOM     30  C   UNL     1      48.368   3.274  17.441  0.00  0.00    +0.000 C 
ATOM     31  C   UNL     1      48.719   3.428  18.916  0.00  0.00    +0.000 C 
ATOM     32  O   UNL     1      46.943   2.990  17.321  0.00  0.00    +0.000 OA
ATOM     33  C   UNL     1      46.719   4.232  16.622  0.00  0.00    +0.000 C 
ATOM     34  C   UNL     1      48.223   4.509  16.492  0.00  0.00    +0.000 C 
ENDBRANCH  28  34
ENDBRANCH   1  28
TORSDOF 7
ENDMDL
