MODEL 1
REMARK VINA RESULT:    -7.461      0.000      0.000
REMARK INTER + INTRA:          -9.886
REMARK INTER:                  -9.424
REMARK INTRA:                  -0.461
REMARK UNBOUND:                -0.461
REMARK  Name = 
REMARK  5 active torsions:
REMARK  status: ('A' for Active; 'I' for Inactive)
REMARK    1  A    between atoms: N_1  and  C_2
REMARK    2  A    between atoms: C_2  and  C_3
REMARK    3  A    between atoms: C_3  and  C_4
REMARK    4  A    between atoms: N_10  and  C_11
REMARK    5  A    between atoms: C_11  and  C_12
REMARK                            x       y       z     vdW  Elec       q    Type
REMARK                         _______ _______ _______ _____ _____    ______ ____
ROOT
ATOM      1  C   UNL     1      46.990   6.387  12.200  0.00  0.00    +0.000 A 
ATOM      2  C   UNL     1      46.947   6.016  13.551  0.00  0.00    +0.000 A 
ATOM      3  N   UNL     1      46.075   5.127  14.083  0.00  0.00    +0.000 NA
ATOM      4  C   UNL     1      45.222   4.622  13.158  0.00  0.00    +0.000 A 
ATOM      5  N   UNL     1      44.251   3.683  13.368  0.00  0.00    +0.000 NA
ATOM      6  C   UNL     1      43.688   3.517  12.191  0.00  0.00    +0.000 A 
ATOM      7  N   UNL     1      44.242   4.327  11.233  0.00  0.00    +0.000 N 
ATOM      8  C   UNL     1      45.260   5.024  11.824  0.00  0.00    +0.000 A 
ATOM      9  N   UNL     1      46.119   5.908  11.268  0.00  0.00    +0.000 NA
ENDROOT
BRANCH   1  10
ATOM     10  C   UNL     1      48.044   7.356  11.723  0.00  0.00    +0.000 C 
BRANCH  10  11
ATOM     11  C   UNL     1      49.282   7.330  12.621  0.00  0.00    +0.000 C 
BRANCH  11  12
ATOM     12  N   UNL     1      50.506   7.279  11.820  0.00  0.00    +0.000 NA
ATOM     13  H   UNL     1      50.947   8.199  11.822  0.00  0.00    +0.000 HD
ATOM     14  H   UNL     1      50.272   7.084  10.847  0.00  0.00    +0.000 HD
ENDBRANCH  11  12
ENDBRANCH  10  11
ENDBRANCH   1  10
BRANCH   7  15
ATOM     15  C   UNL     1      43.831   4.417   9.848  0.00  0.00    +0.000 C 
BRANCH  15  16
ATOM     16  C   UNL     1      44.793   3.671   8.955  0.00  0.00    +0.000 A 
ATOM     17  C   UNL     1      44.949   2.283   9.089  0.00  0.00    +0.000 A 
ATOM     18  C   UNL     1      45.910   1.600   8.341  0.00  0.00    +0.000 A 
ATOM     19  C   UNL     1      46.722   2.300   7.452  0.00  0.00    +0.000 A 
ATOM     20 CL   UNL     1      47.944   1.470   6.572  0.00  0.00    +0.000 Cl
ATOM     21  C   UNL     1      46.560   3.674   7.284  0.00  0.00    +0.000 A 
ATOM     22  C   UNL     1      45.598   4.359   8.032  0.00  0.00    +0.000 A 
ENDBRANCH  15  16
ENDBRANCH   7  15
TORSDOF 5
ENDMDL
MODEL 2
REMARK VINA RESULT:    -7.290      1.537      2.007
REMARK INTER + INTRA:          -9.669
REMARK INTER:                  -9.036
REMARK INTRA:                  -0.633
REMARK UNBOUND:                -0.461
REMARK  Name = 
REMARK  5 active torsions:
REMARK  status: ('A' for Active; 'I' for Inactive)
REMARK    1  A    between atoms: N_1  and  C_2
REMARK    2  A    between atoms: C_2  and  C_3
REMARK    3  A    between atoms: C_3  and  C_4
REMARK    4  A    between atoms: N_10  and  C_11
REMARK    5  A    between atoms: C_11  and  C_12
REMARK                            x       y       z     vdW  Elec       q    Type
REMARK                         _______ _______ _______ _____ _____    ______ ____
ROOT
ATOM      1  C   UNL     1      47.078   7.408  12.677  0.00  0.00    +0.000 A 
ATOM      2  C   UNL     1      47.742   6.906  13.804  0.00  0.00    +0.000 A 
ATOM      3  N   UNL     1      47.644   5.633  14.258  0.00  0.00    +0.000 NA
ATOM      4  C   UNL     1      46.815   4.876  13.500  0.00  0.00    +0.000 A 
ATOM      5  N   UNL     1      46.532   3.550  13.674  0.00  0.00    +0.000 NA
ATOM      6  C   UNL     1      45.687   3.260  12.709  0.00  0.00    +0.000 A 
ATOM      7  N   UNL     1      45.396   4.351  11.931  0.00  0.00    +0.000 N 
ATOM      8  C   UNL     1      46.141   5.399  12.399  0.00  0.00    +0.000 A 
ATOM      9  N   UNL     1      46.220   6.663  11.924  0.00  0.00    +0.000 NA
ENDROOT
BRANCH   1  10
ATOM     10  C   UNL     1      47.309   8.835  12.247  0.00  0.00    +0.000 C 
BRANCH  10  11
ATOM     11  C   UNL     1      46.000   9.529  11.865  0.00  0.00    +0.000 C 
BRANCH  11  12
ATOM     12  N   UNL     1      44.987   9.340  12.905  0.00  0.00    +0.000 NA
ATOM     13  H   UNL     1      44.573   8.413  12.807  0.00  0.00    +0.000 HD
ATOM     14  H   UNL     1      44.225  10.002  12.767  0.00  0.00    +0.000 HD
ENDBRANCH  11  12
ENDBRANCH  10  11
ENDBRANCH   1  10
BRANCH   7  15
ATOM     15  C   UNL     1      44.476   4.383  10.813  0.00  0.00    +0.000 C 
BRANCH  15  16
ATOM     16  C   UNL     1      45.103   3.762   9.587  0.00  0.00    +0.000 A 
ATOM     17  C   UNL     1      45.141   2.366   9.444  0.00  0.00    +0.000 A 
ATOM     18  C   UNL     1      45.809   1.780   8.368  0.00  0.00    +0.000 A 
ATOM     19  C   UNL     1      46.444   2.585   7.426  0.00  0.00    +0.000 A 
ATOM     20 CL   UNL     1      47.316   1.863   6.131  0.00  0.00    +0.000 Cl
ATOM     21  C   UNL     1      46.392   3.973   7.536  0.00  0.00    +0.000 A 
ATOM     22  C   UNL     1      45.722   4.561   8.613  0.00  0.00    +0.000 A 
ENDBRANCH  15  16
ENDBRANCH   7  15
TORSDOF 5
ENDMDL
MODEL 3
REMARK VINA RESULT:    -7.198      3.048      5.623
REMARK INTER + INTRA:          -9.553
REMARK INTER:                  -9.172
REMARK INTRA:                  -0.382
REMARK UNBOUND:                -0.461
REMARK  Name = 
REMARK  5 active torsions:
REMARK  status: ('A' for Active; 'I' for Inactive)
REMARK    1  A    between atoms: N_1  and  C_2
REMARK    2  A    between atoms: C_2  and  C_3
REMARK    3  A    between atoms: C_3  and  C_4
REMARK    4  A    between atoms: N_10  and  C_11
REMARK    5  A    between atoms: C_11  and  C_12
REMARK                            x       y       z     vdW  Elec       q    Type
REMARK                         _______ _______ _______ _____ _____    ______ ____
ROOT
ATOM      1  C   UNL     1      45.989   3.278   8.090  0.00  0.00    +0.000 A 
ATOM      2  C   UNL     1      45.425   2.011   8.296  0.00  0.00    +0.000 A 
ATOM      3  N   UNL     1      44.538   1.707   9.273  0.00  0.00    +0.000 NA
ATOM      4  C   UNL     1      44.246   2.772  10.057  0.00  0.00    +0.000 A 
ATOM      5  N   UNL     1      43.366   2.801  11.103  0.00  0.00    +0.000 NA
ATOM      6  C   UNL     1      43.423   4.036  11.552  0.00  0.00    +0.000 A 
ATOM      7  N   UNL     1      44.319   4.801  10.851  0.00  0.00    +0.000 N 
ATOM      8  C   UNL     1      44.838   4.018   9.857  0.00  0.00    +0.000 A 
ATOM      9  N   UNL     1      45.724   4.349   8.890  0.00  0.00    +0.000 NA
ENDROOT
BRANCH   1  10
ATOM     10  C   UNL     1      46.931   3.499   6.933  0.00  0.00    +0.000 C 
BRANCH  10  11
ATOM     11  C   UNL     1      47.981   2.391   6.841  0.00  0.00    +0.000 C 
BRANCH  11  12
ATOM     12  N   UNL     1      48.399   2.183   5.454  0.00  0.00    +0.000 NA
ATOM     13  H   UNL     1      47.690   2.565   4.828  0.00  0.00    +0.000 HD
ATOM     14  H   UNL     1      48.441   1.185   5.253  0.00  0.00    +0.000 HD
ENDBRANCH  11  12
ENDBRANCH  10  11
ENDBRANCH   1  10
BRANCH   7  15
ATOM     15  C   UNL     1      44.647   6.188  11.112  0.00  0.00    +0.000 C 
BRANCH  15  16
ATOM     16  C   UNL     1      45.920   6.293  11.918  0.00  0.00    +0.000 A 
ATOM     17  C   UNL     1      46.049   5.597  13.130  0.00  0.00    +0.000 A 
ATOM     18  C   UNL     1      47.178   5.769  13.932  0.00  0.00    +0.000 A 
ATOM     19  C   UNL     1      48.188   6.638  13.528  0.00  0.00    +0.000 A 
ATOM     20 CL   UNL     1      49.553   6.894  14.542  0.00  0.00    +0.000 Cl
ATOM     21  C   UNL     1      48.092   7.314  12.313  0.00  0.00    +0.000 A 
ATOM     22  C   UNL     1      46.962   7.142  11.509  0.00  0.00    +0.000 A 
ENDBRANCH  15  16
ENDBRANCH   7  15
TORSDOF 5
ENDMDL
MODEL 4
REMARK VINA RESULT:    -7.092      1.743      2.998
REMARK INTER + INTRA:          -9.419
REMARK INTER:                  -9.215
REMARK INTRA:                  -0.204
REMARK UNBOUND:                -0.461
REMARK  Name = 
REMARK  5 active torsions:
REMARK  status: ('A' for Active; 'I' for Inactive)
REMARK    1  A    between atoms: N_1  and  C_2
REMARK    2  A    between atoms: C_2  and  C_3
REMARK    3  A    between atoms: C_3  and  C_4
REMARK    4  A    between atoms: N_10  and  C_11
REMARK    5  A    between atoms: C_11  and  C_12
REMARK                            x       y       z     vdW  Elec       q    Type
REMARK                         _______ _______ _______ _____ _____    ______ ____
ROOT
ATOM      1  C   UNL     1      46.955   4.390  14.169  0.00  0.00    +0.000 A 
ATOM      2  C   UNL     1      47.431   5.699  14.328  0.00  0.00    +0.000 A 
ATOM      3  N   UNL     1      47.040   6.762  13.585  0.00  0.00    +0.000 NA
ATOM      4  C   UNL     1      46.124   6.427  12.645  0.00  0.00    +0.000 A 
ATOM      5  N   UNL     1      45.511   7.273  11.763  0.00  0.00    +0.000 NA
ATOM      6  C   UNL     1      44.716   6.498  11.057  0.00  0.00    +0.000 A 
ATOM      7  N   UNL     1      44.807   5.183  11.433  0.00  0.00    +0.000 N 
ATOM      8  C   UNL     1      45.682   5.115  12.481  0.00  0.00    +0.000 A 
ATOM      9  N   UNL     1      46.055   4.037  13.208  0.00  0.00    +0.000 NA
ENDROOT
BRANCH   1  10
ATOM     10  C   UNL     1      47.436   3.301  15.095  0.00  0.00    +0.000 C 
BRANCH  10  11
ATOM     11  C   UNL     1      47.586   3.806  16.531  0.00  0.00    +0.000 C 
BRANCH  11  12
ATOM     12  N   UNL     1      46.617   3.156  17.416  0.00  0.00    +0.000 NA
ATOM     13  H   UNL     1      46.232   2.336  16.947  0.00  0.00    +0.000 HD
ATOM     14  H   UNL     1      45.828   3.781  17.579  0.00  0.00    +0.000 HD
ENDBRANCH  11  12
ENDBRANCH  10  11
ENDBRANCH   1  10
BRANCH   7  15
ATOM     15  C   UNL     1      44.096   4.072  10.834  0.00  0.00    +0.000 C 
BRANCH  15  16
ATOM     16  C   UNL     1      44.849   3.538   9.639  0.00  0.00    +0.000 A 
ATOM     17  C   UNL     1      45.032   2.155   9.479  0.00  0.00    +0.000 A 
ATOM     18  C   UNL     1      45.814   1.658   8.436  0.00  0.00    +0.000 A 
ATOM     19  C   UNL     1      46.419   2.538   7.543  0.00  0.00    +0.000 A 
ATOM     20 CL   UNL     1      47.429   1.929   6.291  0.00  0.00    +0.000 Cl
ATOM     21  C   UNL     1      46.224   3.913   7.668  0.00  0.00    +0.000 A 
ATOM     22  C   UNL     1      45.440   4.412   8.712  0.00  0.00    +0.000 A 
ENDBRANCH  15  16
ENDBRANCH   7  15
TORSDOF 5
ENDMDL
MODEL 5
REMARK VINA RESULT:    -6.027      2.959      6.126
REMARK INTER + INTRA:          -8.074
REMARK INTER:                  -7.379
REMARK INTRA:                  -0.696
REMARK UNBOUND:                -0.461
REMARK  Name = 
REMARK  5 active torsions:
REMARK  status: ('A' for Active; 'I' for Inactive)
REMARK    1  A    between atoms: N_1  and  C_2
REMARK    2  A    between atoms: C_2  and  C_3
REMARK    3  A    between atoms: C_3  and  C_4
REMARK    4  A    between atoms: N_10  and  C_11
REMARK    5  A    between atoms: C_11  and  C_12
REMARK                            x       y       z     vdW  Elec       q    Type
REMARK                         _______ _______ _______ _____ _____    ______ ____
ROOT
ATOM      1  C   UNL     1      44.912   4.550  11.415  0.00  0.00    +0.000 A 
ATOM      2  C   UNL     1      45.170   3.357  12.104  0.00  0.00    +0.000 A 
ATOM      3  N   UNL     1      46.003   3.240  13.166  0.00  0.00    +0.000 NA
ATOM      4  C   UNL     1      46.582   4.418  13.501  0.00  0.00    +0.000 A 
ATOM      5  N   UNL     1      47.442   4.639  14.541  0.00  0.00    +0.000 NA
ATOM      6  C   UNL     1      47.735   5.919  14.464  0.00  0.00    +0.000 A 
ATOM      7  N   UNL     1      47.116   6.529  13.403  0.00  0.00    +0.000 N 
ATOM      8  C   UNL     1      46.336   5.589  12.787  0.00  0.00    +0.000 A 
ATOM      9  N   UNL     1      45.511   5.734  11.726  0.00  0.00    +0.000 NA
ENDROOT
BRANCH   1  10
ATOM     10  C   UNL     1      43.924   4.557  10.275  0.00  0.00    +0.000 C 
BRANCH  10  11
ATOM     11  C   UNL     1      44.583   4.155   8.954  0.00  0.00    +0.000 C 
BRANCH  11  12
ATOM     12  N   UNL     1      45.667   5.077   8.612  0.00  0.00    +0.000 NA
ATOM     13  H   UNL     1      45.442   6.008   8.963  0.00  0.00    +0.000 HD
ATOM     14  H   UNL     1      45.732   5.169   7.599  0.00  0.00    +0.000 HD
ENDBRANCH  11  12
ENDBRANCH  10  11
ENDBRANCH   1  10
BRANCH   7  15
ATOM     15  C   UNL     1      47.256   7.917  13.016  0.00  0.00    +0.000 C 
BRANCH  15  16
ATOM     16  C   UNL     1      48.691   8.234  12.669  0.00  0.00    +0.000 A 
ATOM     17  C   UNL     1      49.282   7.671  11.527  0.00  0.00    +0.000 A 
ATOM     18  C   UNL     1      50.636   7.873  11.255  0.00  0.00    +0.000 A 
ATOM     19  C   UNL     1      51.410   8.641  12.122  0.00  0.00    +0.000 A 
ATOM     20 CL   UNL     1      53.090   8.844  11.818  0.00  0.00    +0.000 Cl
ATOM     21  C   UNL     1      50.832   9.232  13.244  0.00  0.00    +0.000 A 
ATOM     22  C   UNL     1      49.476   9.031  13.517  0.00  0.00    +0.000 A 
ENDBRANCH  15  16
ENDBRANCH   7  15
TORSDOF 5
ENDMDL
MODEL 6
REMARK VINA RESULT:    -5.858      4.208      6.135
REMARK INTER + INTRA:          -7.861
REMARK INTER:                  -7.130
REMARK INTRA:                  -0.731
REMARK UNBOUND:                -0.461
REMARK  Name = 
REMARK  5 active torsions:
REMARK  status: ('A' for Active; 'I' for Inactive)
REMARK    1  A    between atoms: N_1  and  C_2
REMARK    2  A    between atoms: C_2  and  C_3
REMARK    3  A    between atoms: C_3  and  C_4
REMARK    4  A    between atoms: N_10  and  C_11
REMARK    5  A    between atoms: C_11  and  C_12
REMARK                            x       y       z     vdW  Elec       q    Type
REMARK                         _______ _______ _______ _____ _____    ______ ____
ROOT
ATOM      1  C   UNL     1      48.982   5.242  17.212  0.00  0.00    +0.000 A 
ATOM      2  C   UNL     1      49.262   6.389  17.968  0.00  0.00    +0.000 A 
ATOM      3  N   UNL     1      49.229   7.657  17.493  0.00  0.00    +0.000 NA
ATOM      4  C   UNL     1      48.897   7.710  16.181  0.00  0.00    +0.000 A 
ATOM      5  N   UNL     1      48.747   8.836  15.420  0.00  0.00    +0.000 NA
ATOM      6  C   UNL     1      48.428   8.390  14.224  0.00  0.00    +0.000 A 
ATOM      7  N   UNL     1      48.387   7.020  14.176  0.00  0.00    +0.000 N 
ATOM      8  C   UNL     1      48.650   6.558  15.437  0.00  0.00    +0.000 A 
ATOM      9  N   UNL     1      48.675   5.282  15.885  0.00  0.00    +0.000 NA
ENDROOT
BRANCH   1  10
ATOM     10  C   UNL     1      49.007   3.887  17.873  0.00  0.00    +0.000 C 
BRANCH  10  11
ATOM     11  C   UNL     1      48.017   2.922  17.219  0.00  0.00    +0.000 C 
BRANCH  11  12
ATOM     12  N   UNL     1      46.637   3.311  17.514  0.00  0.00    +0.000 NA
ATOM     13  H   UNL     1      46.443   3.140  18.501  0.00  0.00    +0.000 HD
ATOM     14  H   UNL     1      45.993   2.715  16.996  0.00  0.00    +0.000 HD
ENDBRANCH  11  12
ENDBRANCH  10  11
ENDBRANCH   1  10
BRANCH   7  15
ATOM     15  C   UNL     1      48.106   6.214  13.007  0.00  0.00    +0.000 C 
BRANCH  15  16
ATOM     16  C   UNL     1      46.619   6.142  12.753  0.00  0.00    +0.000 A 
ATOM     17  C   UNL     1      45.832   5.197  13.428  0.00  0.00    +0.000 A 
ATOM     18  C   UNL     1      44.477   5.053  13.124  0.00  0.00    +0.000 A 
ATOM     19  C   UNL     1      43.898   5.854  12.143  0.00  0.00    +0.000 A 
ATOM     20 CL   UNL     1      42.243   5.638  11.728  0.00  0.00    +0.000 Cl
ATOM     21  C   UNL     1      44.658   6.818  11.484  0.00  0.00    +0.000 A 
ATOM     22  C   UNL     1      46.014   6.964  11.788  0.00  0.00    +0.000 A 
ENDBRANCH  15  16
ENDBRANCH   7  15
TORSDOF 5
ENDMDL
MODEL 7
REMARK VINA RESULT:    -5.441      3.837      6.133
REMARK INTER + INTRA:          -7.333
REMARK INTER:                  -7.237
REMARK INTRA:                  -0.096
REMARK UNBOUND:                -0.461
REMARK  Name = 
REMARK  5 active torsions:
REMARK  status: ('A' for Active; 'I' for Inactive)
REMARK    1  A    between atoms: N_1  and  C_2
REMARK    2  A    between atoms: C_2  and  C_3
REMARK    3  A    between atoms: C_3  and  C_4
REMARK    4  A    between atoms: N_10  and  C_11
REMARK    5  A    between atoms: C_11  and  C_12
REMARK                            x       y       z     vdW  Elec       q    Type
REMARK                         _______ _______ _______ _____ _____    ______ ____
ROOT
ATOM      1  C   UNL     1      45.656   3.592   8.455  0.00  0.00    +0.000 A 
ATOM      2  C   UNL     1      44.677   2.609   8.655  0.00  0.00    +0.000 A 
ATOM      3  N   UNL     1      43.887   2.513   9.751  0.00  0.00    +0.000 NA
ATOM      4  C   UNL     1      44.147   3.482  10.662  0.00  0.00    +0.000 A 
ATOM      5  N   UNL     1      43.503   3.680  11.852  0.00  0.00    +0.000 NA
ATOM      6  C   UNL     1      44.098   4.725  12.383  0.00  0.00    +0.000 A 
ATOM      7  N   UNL     1      45.116   5.198  11.595  0.00  0.00    +0.000 N 
ATOM      8  C   UNL     1      45.143   4.435  10.460  0.00  0.00    +0.000 A 
ATOM      9  N   UNL     1      45.944   4.553   9.376  0.00  0.00    +0.000 NA
ENDROOT
BRANCH   1  10
ATOM     10  C   UNL     1      46.438   3.617   7.166  0.00  0.00    +0.000 C 
BRANCH  10  11
ATOM     11  C   UNL     1      47.452   2.474   7.098  0.00  0.00    +0.000 C 
BRANCH  11  12
ATOM     12  N   UNL     1      48.337   2.630   5.943  0.00  0.00    +0.000 NA
ATOM     13  H   UNL     1      49.097   1.951   6.007  0.00  0.00    +0.000 HD
ATOM     14  H   UNL     1      48.781   3.547   5.971  0.00  0.00    +0.000 HD
ENDBRANCH  11  12
ENDBRANCH  10  11
ENDBRANCH   1  10
BRANCH   7  15
ATOM     15  C   UNL     1      45.992   6.309  11.905  0.00  0.00    +0.000 C 
BRANCH  15  16
ATOM     16  C   UNL     1      45.285   7.625  11.681  0.00  0.00    +0.000 A 
ATOM     17  C   UNL     1      45.820   8.811  12.205  0.00  0.00    +0.000 A 
ATOM     18  C   UNL     1      45.122  10.015  12.093  0.00  0.00    +0.000 A 
ATOM     19  C   UNL     1      43.885  10.042  11.454  0.00  0.00    +0.000 A 
ATOM     20 CL   UNL     1      42.999  11.513  11.365  0.00  0.00    +0.000 Cl
ATOM     21  C   UNL     1      43.353   8.879  10.901  0.00  0.00    +0.000 A 
ATOM     22  C   UNL     1      44.051   7.673  11.012  0.00  0.00    +0.000 A 
ENDBRANCH  15  16
ENDBRANCH   7  15
TORSDOF 5
ENDMDL
MODEL 8
REMARK VINA RESULT:    -5.266      5.452      8.544
REMARK INTER + INTRA:          -7.113
REMARK INTER:                  -6.351
REMARK INTRA:                  -0.762
REMARK UNBOUND:                -0.461
REMARK  Name = 
REMARK  5 active torsions:
REMARK  status: ('A' for Active; 'I' for Inactive)
REMARK    1  A    between atoms: N_1  and  C_2
REMARK    2  A    between atoms: C_2  and  C_3
REMARK    3  A    between atoms: C_3  and  C_4
REMARK    4  A    between atoms: N_10  and  C_11
REMARK    5  A    between atoms: C_11  and  C_12
REMARK                            x       y       z     vdW  Elec       q    Type
REMARK                         _______ _______ _______ _____ _____    ______ ____
ROOT
ATOM      1  C   UNL     1      47.560   6.072  13.495  0.00  0.00    +0.000 A 
ATOM      2  C   UNL     1      46.686   4.996  13.289  0.00  0.00    +0.000 A 
ATOM      3  N   UNL     1      46.396   4.046  14.210  0.00  0.00    +0.000 NA
ATOM      4  C   UNL     1      47.057   4.239  15.378  0.00  0.00    +0.000 A 
ATOM      5  N   UNL     1      46.956   3.478  16.510  0.00  0.00    +0.000 NA
ATOM      6  C   UNL     1      47.776   4.046  17.366  0.00  0.00    +0.000 A 
ATOM      7  N   UNL     1      48.419   5.130  16.827  0.00  0.00    +0.000 N 
ATOM      8  C   UNL     1      47.944   5.298  15.556  0.00  0.00    +0.000 A 
ATOM      9  N   UNL     1      48.251   6.259  14.655  0.00  0.00    +0.000 NA
ENDROOT
BRANCH   1  10
ATOM     10  C   UNL     1      47.762   7.092  12.402  0.00  0.00    +0.000 C 
BRANCH  10  11
ATOM     11  C   UNL     1      47.708   8.520  12.945  0.00  0.00    +0.000 C 
BRANCH  11  12
ATOM     12  N   UNL     1      46.622   8.668  13.916  0.00  0.00    +0.000 NA
ATOM     13  H   UNL     1      46.253   9.618  13.865  0.00  0.00    +0.000 HD
ATOM     14  H   UNL     1      46.990   8.563  14.861  0.00  0.00    +0.000 HD
ENDBRANCH  11  12
ENDBRANCH  10  11
ENDBRANCH   1  10
BRANCH   7  15
ATOM     15  C   UNL     1      49.412   5.952  17.489  0.00  0.00    +0.000 C 
BRANCH  15  16
ATOM     16  C   UNL     1      48.750   7.063  18.270  0.00  0.00    +0.000 A 
ATOM     17  C   UNL     1      48.347   6.850  19.597  0.00  0.00    +0.000 A 
ATOM     18  C   UNL     1      47.643   7.835  20.292  0.00  0.00    +0.000 A 
ATOM     19  C   UNL     1      47.338   9.041  19.665  0.00  0.00    +0.000 A 
ATOM     20 CL   UNL     1      46.421  10.232  20.501  0.00  0.00    +0.000 Cl
ATOM     21  C   UNL     1      47.757   9.280  18.358  0.00  0.00    +0.000 A 
ATOM     22  C   UNL     1      48.463   8.296  17.662  0.00  0.00    +0.000 A 
ENDBRANCH  15  16
ENDBRANCH   7  15
TORSDOF 5
ENDMDL
MODEL 9
REMARK VINA RESULT:    -5.211      2.059      3.077
REMARK INTER + INTRA:          -7.043
REMARK INTER:                  -6.628
REMARK INTRA:                  -0.415
REMARK UNBOUND:                -0.461
REMARK  Name = 
REMARK  5 active torsions:
REMARK  status: ('A' for Active; 'I' for Inactive)
REMARK    1  A    between atoms: N_1  and  C_2
REMARK    2  A    between atoms: C_2  and  C_3
REMARK    3  A    between atoms: C_3  and  C_4
REMARK    4  A    between atoms: N_10  and  C_11
REMARK    5  A    between atoms: C_11  and  C_12
REMARK                            x       y       z     vdW  Elec       q    Type
REMARK                         _______ _______ _______ _____ _____    ______ ____
ROOT
ATOM      1  C   UNL     1      47.837   8.669  12.714  0.00  0.00    +0.000 A 
ATOM      2  C   UNL     1      48.911   8.320  13.545  0.00  0.00    +0.000 A 
ATOM      3  N   UNL     1      49.009   7.161  14.238  0.00  0.00    +0.000 NA
ATOM      4  C   UNL     1      47.938   6.353  14.050  0.00  0.00    +0.000 A 
ATOM      5  N   UNL     1      47.751   5.107  14.580  0.00  0.00    +0.000 NA
ATOM      6  C   UNL     1      46.579   4.722  14.123  0.00  0.00    +0.000 A 
ATOM      7  N   UNL     1      45.992   5.679  13.336  0.00  0.00    +0.000 N 
ATOM      8  C   UNL     1      46.866   6.727  13.243  0.00  0.00    +0.000 A 
ATOM      9  N   UNL     1      46.743   7.876  12.540  0.00  0.00    +0.000 NA
ENDROOT
BRANCH   1  10
ATOM     10  C   UNL     1      47.870   9.973  11.957  0.00  0.00    +0.000 C 
BRANCH  10  11
ATOM     11  C   UNL     1      48.442  11.106  12.810  0.00  0.00    +0.000 C 
BRANCH  11  12
ATOM     12  N   UNL     1      49.760  11.514  12.319  0.00  0.00    +0.000 NA
ATOM     13  H   UNL     1      49.651  12.002  11.430  0.00  0.00    +0.000 HD
ATOM     14  H   UNL     1      50.322  10.688  12.117  0.00  0.00    +0.000 HD
ENDBRANCH  11  12
ENDBRANCH  10  11
ENDBRANCH   1  10
BRANCH   7  15
ATOM     15  C   UNL     1      44.689   5.589  12.709  0.00  0.00    +0.000 C 
BRANCH  15  16
ATOM     16  C   UNL     1      44.785   4.885  11.376  0.00  0.00    +0.000 A 
ATOM     17  C   UNL     1      44.381   3.547  11.253  0.00  0.00    +0.000 A 
ATOM     18  C   UNL     1      44.562   2.858  10.053  0.00  0.00    +0.000 A 
ATOM     19  C   UNL     1      45.148   3.501   8.966  0.00  0.00    +0.000 A 
ATOM     20 CL   UNL     1      45.423   2.637   7.505  0.00  0.00    +0.000 Cl
ATOM     21  C   UNL     1      45.527   4.839   9.061  0.00  0.00    +0.000 A 
ATOM     22  C   UNL     1      45.345   5.531  10.262  0.00  0.00    +0.000 A 
ENDBRANCH  15  16
ENDBRANCH   7  15
TORSDOF 5
ENDMDL
