MODEL 1
REMARK VINA RESULT:    -7.938      0.000      0.000
REMARK INTER + INTRA:         -10.070
REMARK INTER:                 -10.026
REMARK INTRA:                  -0.044
REMARK UNBOUND:                -0.044
REMARK  Name = 
REMARK  5 active torsions:
REMARK  status: ('A' for Active; 'I' for Inactive)
REMARK    1  A    between atoms: N_1  and  C_2
REMARK    2  A    between atoms: C_2  and  C_3
REMARK    3  A    between atoms: C_6  and  C_7
REMARK    4  A    between atoms: C_7  and  N_8
REMARK    5  A    between atoms: C_13  and  C_14
REMARK                            x       y       z     vdW  Elec       q    Type
REMARK                         _______ _______ _______ _____ _____    ______ ____
ROOT
ATOM      1  N   UNL     1      43.923   4.297  10.482  0.00  0.00    +0.000 N 
ATOM      2  N   UNL     1      43.309   3.221  11.009  0.00  0.00    +0.000 NA
ATOM      3  N   UNL     1      43.840   2.142  10.449  0.00  0.00    +0.000 NA
ATOM      4  C   UNL     1      44.764   2.554   9.528  0.00  0.00    +0.000 A 
ATOM      5  C   UNL     1      45.581   1.805   8.668  0.00  0.00    +0.000 A 
ATOM      6  C   UNL     1      46.422   2.488   7.775  0.00  0.00    +0.000 A 
ATOM      7  C   UNL     1      46.455   3.894   7.777  0.00  0.00    +0.000 A 
ATOM      8  C   UNL     1      45.665   4.654   8.653  0.00  0.00    +0.000 A 
ATOM      9  C   UNL     1      44.825   3.944   9.512  0.00  0.00    +0.000 A 
ENDROOT
BRANCH   6  10
ATOM     10  C   UNL     1      47.289   1.779   6.791  0.00  0.00    +0.000 C 
ATOM     11  N   UNL     1      48.288   2.477   6.173  0.00  0.00    +0.000 N 
ATOM     12  O   UNL     1      47.130   0.589   6.538  0.00  0.00    +0.000 OA
ATOM     13  H   UNL     1      48.511   3.446   6.328  0.00  0.00    +0.000 HD
ATOM     14  H   UNL     1      48.871   1.958   5.526  0.00  0.00    +0.000 HD
ENDBRANCH   6  10
BRANCH   1  15
ATOM     15  C   UNL     1      43.584   5.625  10.948  0.00  0.00    +0.000 C 
BRANCH  15  19
ATOM     16  C   UNL     1      46.996   6.450  12.252  0.00  0.00    +0.000 C 
ATOM     17  C   UNL     1      46.400   5.031  12.185  0.00  0.00    +0.000 C 
ATOM     18  C   UNL     1      45.068   4.919  12.924  0.00  0.00    +0.000 C 
ATOM     19  C   UNL     1      44.031   5.921  12.396  0.00  0.00    +0.000 C 
ATOM     20  C   UNL     1      44.595   7.347  12.516  0.00  0.00    +0.000 C 
ATOM     21  C   UNL     1      45.957   7.510  11.838  0.00  0.00    +0.000 C 
BRANCH  16  22
ATOM     22  C   UNL     1      47.601   6.755  13.638  0.00  0.00    +0.000 C 
BRANCH  22  23
ATOM     23  N   UNL     1      48.979   6.277  13.707  0.00  0.00    +0.000 NA
ATOM     24  H   UNL     1      49.065   5.384  13.225  0.00  0.00    +0.000 HD
ATOM     25  H   UNL     1      49.242   6.117  14.678  0.00  0.00    +0.000 HD
ENDBRANCH  22  23
ENDBRANCH  16  22
ENDBRANCH  15  19
ENDBRANCH   1  15
TORSDOF 5
ENDMDL
MODEL 2
REMARK VINA RESULT:    -7.836      2.944      6.464
REMARK INTER + INTRA:          -9.941
REMARK INTER:                  -9.278
REMARK INTRA:                  -0.664
REMARK UNBOUND:                -0.044
REMARK  Name = 
REMARK  5 active torsions:
REMARK  status: ('A' for Active; 'I' for Inactive)
REMARK    1  A    between atoms: N_1  and  C_2
REMARK    2  A    between atoms: C_2  and  C_3
REMARK    3  A    between atoms: C_6  and  C_7
REMARK    4  A    between atoms: C_7  and  N_8
REMARK    5  A    between atoms: C_13  and  C_14
REMARK                            x       y       z     vdW  Elec       q    Type
REMARK                         _______ _______ _______ _____ _____    ______ ____
ROOT
ATOM      1  N   UNL     1      44.344   3.927  10.775  0.00  0.00    +0.000 N 
ATOM      2  N   UNL     1      43.028   3.872  11.051  0.00  0.00    +0.000 NA
ATOM      3  N   UNL     1      42.658   5.070  11.486  0.00  0.00    +0.000 NA
ATOM      4  C   UNL     1      43.768   5.867  11.524  0.00  0.00    +0.000 A 
ATOM      5  C   UNL     1      43.909   7.205  11.923  0.00  0.00    +0.000 A 
ATOM      6  C   UNL     1      45.189   7.781  11.908  0.00  0.00    +0.000 A 
ATOM      7  C   UNL     1      46.293   7.026  11.472  0.00  0.00    +0.000 A 
ATOM      8  C   UNL     1      46.161   5.697  11.042  0.00  0.00    +0.000 A 
ATOM      9  C   UNL     1      44.879   5.150  11.090  0.00  0.00    +0.000 A 
ENDROOT
BRANCH   6  10
ATOM     10  C   UNL     1      45.443   9.179  12.360  0.00  0.00    +0.000 C 
ATOM     11  N   UNL     1      44.375  10.004  12.571  0.00  0.00    +0.000 N 
ATOM     12  O   UNL     1      46.581   9.592  12.554  0.00  0.00    +0.000 OA
ATOM     13  H   UNL     1      43.407   9.754  12.461  0.00  0.00    +0.000 HD
ATOM     14  H   UNL     1      44.583  10.941  12.897  0.00  0.00    +0.000 HD
ENDBRANCH   6  10
BRANCH   1  15
ATOM     15  C   UNL     1      45.019   2.771  10.226  0.00  0.00    +0.000 C 
BRANCH  15  19
ATOM     16  C   UNL     1      47.164   2.816   7.157  0.00  0.00    +0.000 C 
ATOM     17  C   UNL     1      46.315   4.002   7.653  0.00  0.00    +0.000 C 
ATOM     18  C   UNL     1      44.840   3.639   7.814  0.00  0.00    +0.000 C 
ATOM     19  C   UNL     1      44.639   2.450   8.764  0.00  0.00    +0.000 C 
ATOM     20  C   UNL     1      45.436   1.243   8.241  0.00  0.00    +0.000 C 
ATOM     21  C   UNL     1      46.915   1.557   8.010  0.00  0.00    +0.000 C 
BRANCH  16  22
ATOM     22  C   UNL     1      46.944   2.540   5.655  0.00  0.00    +0.000 C 
BRANCH  22  23
ATOM     23  N   UNL     1      48.223   2.334   4.983  0.00  0.00    +0.000 NA
ATOM     24  H   UNL     1      48.902   3.023   5.302  0.00  0.00    +0.000 HD
ATOM     25  H   UNL     1      48.114   2.469   3.980  0.00  0.00    +0.000 HD
ENDBRANCH  22  23
ENDBRANCH  16  22
ENDBRANCH  15  19
ENDBRANCH   1  15
TORSDOF 5
ENDMDL
MODEL 3
REMARK VINA RESULT:    -6.395      3.123      5.315
REMARK INTER + INTRA:          -8.122
REMARK INTER:                  -7.524
REMARK INTRA:                  -0.597
REMARK UNBOUND:                -0.044
REMARK  Name = 
REMARK  5 active torsions:
REMARK  status: ('A' for Active; 'I' for Inactive)
REMARK    1  A    between atoms: N_1  and  C_2
REMARK    2  A    between atoms: C_2  and  C_3
REMARK    3  A    between atoms: C_6  and  C_7
REMARK    4  A    between atoms: C_7  and  N_8
REMARK    5  A    between atoms: C_13  and  C_14
REMARK                            x       y       z     vdW  Elec       q    Type
REMARK                         _______ _______ _______ _____ _____    ______ ____
ROOT
ATOM      1  N   UNL     1      47.635   6.051  14.145  0.00  0.00    +0.000 N 
ATOM      2  N   UNL     1      47.870   4.972  14.916  0.00  0.00    +0.000 NA
ATOM      3  N   UNL     1      47.158   3.965  14.426  0.00  0.00    +0.000 NA
ATOM      4  C   UNL     1      46.436   4.435  13.364  0.00  0.00    +0.000 A 
ATOM      5  C   UNL     1      45.526   3.774  12.525  0.00  0.00    +0.000 A 
ATOM      6  C   UNL     1      44.877   4.512  11.522  0.00  0.00    +0.000 A 
ATOM      7  C   UNL     1      45.167   5.879  11.357  0.00  0.00    +0.000 A 
ATOM      8  C   UNL     1      46.096   6.544  12.171  0.00  0.00    +0.000 A 
ATOM      9  C   UNL     1      46.706   5.786  13.170  0.00  0.00    +0.000 A 
ENDROOT
BRANCH   6  10
ATOM     10  C   UNL     1      43.860   3.907  10.615  0.00  0.00    +0.000 C 
ATOM     11  N   UNL     1      43.815   4.318   9.313  0.00  0.00    +0.000 N 
ATOM     12  O   UNL     1      43.079   3.049  11.011  0.00  0.00    +0.000 OA
ATOM     13  H   UNL     1      44.424   4.998   8.889  0.00  0.00    +0.000 HD
ATOM     14  H   UNL     1      43.125   3.871   8.719  0.00  0.00    +0.000 HD
ENDBRANCH   6  10
BRANCH   1  15
ATOM     15  C   UNL     1      48.323   7.295  14.409  0.00  0.00    +0.000 C 
BRANCH  15  19
ATOM     16  C   UNL     1      49.727   9.939  12.159  0.00  0.00    +0.000 C 
ATOM     17  C   UNL     1      49.037   8.649  11.676  0.00  0.00    +0.000 C 
ATOM     18  C   UNL     1      49.693   7.389  12.236  0.00  0.00    +0.000 C 
ATOM     19  C   UNL     1      49.727   7.391  13.771  0.00  0.00    +0.000 C 
ATOM     20  C   UNL     1      50.468   8.647  14.260  0.00  0.00    +0.000 C 
ATOM     21  C   UNL     1      49.888   9.944  13.691  0.00  0.00    +0.000 C 
BRANCH  16  22
ATOM     22  C   UNL     1      51.072  10.175  11.442  0.00  0.00    +0.000 C 
BRANCH  22  23
ATOM     23  N   UNL     1      50.871  10.965  10.231  0.00  0.00    +0.000 NA
ATOM     24  H   UNL     1      51.396  11.836  10.289  0.00  0.00    +0.000 HD
ATOM     25  H   UNL     1      49.889  11.217  10.140  0.00  0.00    +0.000 HD
ENDBRANCH  22  23
ENDBRANCH  16  22
ENDBRANCH  15  19
ENDBRANCH   1  15
TORSDOF 5
ENDMDL
MODEL 4
REMARK VINA RESULT:    -6.393      4.526      8.282
REMARK INTER + INTRA:          -8.118
REMARK INTER:                  -7.623
REMARK INTRA:                  -0.496
REMARK UNBOUND:                -0.044
REMARK  Name = 
REMARK  5 active torsions:
REMARK  status: ('A' for Active; 'I' for Inactive)
REMARK    1  A    between atoms: N_1  and  C_2
REMARK    2  A    between atoms: C_2  and  C_3
REMARK    3  A    between atoms: C_6  and  C_7
REMARK    4  A    between atoms: C_7  and  N_8
REMARK    5  A    between atoms: C_13  and  C_14
REMARK                            x       y       z     vdW  Elec       q    Type
REMARK                         _______ _______ _______ _____ _____    ______ ____
ROOT
ATOM      1  N   UNL     1      48.188   6.280  14.434  0.00  0.00    +0.000 N 
ATOM      2  N   UNL     1      48.891   7.424  14.530  0.00  0.00    +0.000 NA
ATOM      3  N   UNL     1      49.379   7.494  15.762  0.00  0.00    +0.000 NA
ATOM      4  C   UNL     1      48.936   6.401  16.455  0.00  0.00    +0.000 A 
ATOM      5  C   UNL     1      49.159   6.023  17.788  0.00  0.00    +0.000 A 
ATOM      6  C   UNL     1      48.540   4.858  18.269  0.00  0.00    +0.000 A 
ATOM      7  C   UNL     1      47.741   4.081  17.411  0.00  0.00    +0.000 A 
ATOM      8  C   UNL     1      47.534   4.433  16.068  0.00  0.00    +0.000 A 
ATOM      9  C   UNL     1      48.146   5.607  15.629  0.00  0.00    +0.000 A 
ENDROOT
BRANCH   6  10
ATOM     10  C   UNL     1      48.679   4.403  19.683  0.00  0.00    +0.000 C 
ATOM     11  N   UNL     1      48.364   3.110  19.990  0.00  0.00    +0.000 N 
ATOM     12  O   UNL     1      49.078   5.159  20.562  0.00  0.00    +0.000 OA
ATOM     13  H   UNL     1      48.050   2.410  19.339  0.00  0.00    +0.000 HD
ATOM     14  H   UNL     1      48.490   2.830  20.956  0.00  0.00    +0.000 HD
ENDBRANCH   6  10
BRANCH   1  15
ATOM     15  C   UNL     1      47.580   5.906  13.176  0.00  0.00    +0.000 C 
BRANCH  15  19
ATOM     16  C   UNL     1      45.023   4.376  10.908  0.00  0.00    +0.000 C 
ATOM     17  C   UNL     1      45.770   5.694  10.628  0.00  0.00    +0.000 C 
ATOM     18  C   UNL     1      45.599   6.715  11.752  0.00  0.00    +0.000 C 
ATOM     19  C   UNL     1      46.057   6.160  13.108  0.00  0.00    +0.000 C 
ATOM     20  C   UNL     1      45.272   4.876  13.423  0.00  0.00    +0.000 C 
ATOM     21  C   UNL     1      45.362   3.831  12.309  0.00  0.00    +0.000 C 
BRANCH  16  22
ATOM     22  C   UNL     1      43.501   4.524  10.706  0.00  0.00    +0.000 C 
BRANCH  22  23
ATOM     23  N   UNL     1      42.792   3.422  11.350  0.00  0.00    +0.000 NA
ATOM     24  H   UNL     1      42.039   3.090  10.749  0.00  0.00    +0.000 HD
ATOM     25  H   UNL     1      42.361   3.745  12.214  0.00  0.00    +0.000 HD
ENDBRANCH  22  23
ENDBRANCH  16  22
ENDBRANCH  15  19
ENDBRANCH   1  15
TORSDOF 5
ENDMDL
MODEL 5
REMARK VINA RESULT:    -6.245      3.360      5.381
REMARK INTER + INTRA:          -7.931
REMARK INTER:                  -7.514
REMARK INTRA:                  -0.418
REMARK UNBOUND:                -0.044
REMARK  Name = 
REMARK  5 active torsions:
REMARK  status: ('A' for Active; 'I' for Inactive)
REMARK    1  A    between atoms: N_1  and  C_2
REMARK    2  A    between atoms: C_2  and  C_3
REMARK    3  A    between atoms: C_6  and  C_7
REMARK    4  A    between atoms: C_7  and  N_8
REMARK    5  A    between atoms: C_13  and  C_14
REMARK                            x       y       z     vdW  Elec       q    Type
REMARK                         _______ _______ _______ _____ _____    ______ ____
ROOT
ATOM      1  N   UNL     1      47.597   6.628  13.391  0.00  0.00    +0.000 N 
ATOM      2  N   UNL     1      48.011   5.890  14.439  0.00  0.00    +0.000 NA
ATOM      3  N   UNL     1      47.443   4.695  14.337  0.00  0.00    +0.000 NA
ATOM      4  C   UNL     1      46.630   4.704  13.237  0.00  0.00    +0.000 A 
ATOM      5  C   UNL     1      45.806   3.698  12.711  0.00  0.00    +0.000 A 
ATOM      6  C   UNL     1      45.028   3.989  11.579  0.00  0.00    +0.000 A 
ATOM      7  C   UNL     1      45.107   5.259  10.980  0.00  0.00    +0.000 A 
ATOM      8  C   UNL     1      45.949   6.264  11.478  0.00  0.00    +0.000 A 
ATOM      9  C   UNL     1      46.692   5.948  12.616  0.00  0.00    +0.000 A 
ENDROOT
BRANCH   6  10
ATOM     10  C   UNL     1      44.087   2.999  10.979  0.00  0.00    +0.000 C 
ATOM     11  N   UNL     1      44.526   2.220   9.947  0.00  0.00    +0.000 N 
ATOM     12  O   UNL     1      42.943   2.866  11.400  0.00  0.00    +0.000 OA
ATOM     13  H   UNL     1      45.449   2.238   9.546  0.00  0.00    +0.000 HD
ATOM     14  H   UNL     1      43.868   1.544   9.576  0.00  0.00    +0.000 HD
ENDBRANCH   6  10
BRANCH   1  15
ATOM     15  C   UNL     1      48.100   7.972  13.208  0.00  0.00    +0.000 C 
BRANCH  15  19
ATOM     16  C   UNL     1      51.123   9.905  12.135  0.00  0.00    +0.000 C 
ATOM     17  C   UNL     1      49.710  10.500  12.296  0.00  0.00    +0.000 C 
ATOM     18  C   UNL     1      48.667   9.766  11.456  0.00  0.00    +0.000 C 
ATOM     19  C   UNL     1      48.616   8.266  11.782  0.00  0.00    +0.000 C 
ATOM     20  C   UNL     1      50.010   7.653  11.565  0.00  0.00    +0.000 C 
ATOM     21  C   UNL     1      51.111   8.378  12.342  0.00  0.00    +0.000 C 
BRANCH  16  22
ATOM     22  C   UNL     1      51.760  10.294  10.785  0.00  0.00    +0.000 C 
BRANCH  22  23
ATOM     23  N   UNL     1      52.990   9.538  10.567  0.00  0.00    +0.000 NA
ATOM     24  H   UNL     1      53.429   9.827   9.694  0.00  0.00    +0.000 HD
ATOM     25  H   UNL     1      52.777   8.547  10.477  0.00  0.00    +0.000 HD
ENDBRANCH  22  23
ENDBRANCH  16  22
ENDBRANCH  15  19
ENDBRANCH   1  15
TORSDOF 5
ENDMDL
MODEL 6
REMARK VINA RESULT:    -6.125      3.123      4.993
REMARK INTER + INTRA:          -7.780
REMARK INTER:                  -7.115
REMARK INTRA:                  -0.665
REMARK UNBOUND:                -0.044
REMARK  Name = 
REMARK  5 active torsions:
REMARK  status: ('A' for Active; 'I' for Inactive)
REMARK    1  A    between atoms: N_1  and  C_2
REMARK    2  A    between atoms: C_2  and  C_3
REMARK    3  A    between atoms: C_6  and  C_7
REMARK    4  A    between atoms: C_7  and  N_8
REMARK    5  A    between atoms: C_13  and  C_14
REMARK                            x       y       z     vdW  Elec       q    Type
REMARK                         _______ _______ _______ _____ _____    ______ ____
ROOT
ATOM      1  N   UNL     1      45.743   7.963  12.609  0.00  0.00    +0.000 N 
ATOM      2  N   UNL     1      44.950   8.735  11.842  0.00  0.00    +0.000 NA
ATOM      3  N   UNL     1      44.125   7.932  11.183  0.00  0.00    +0.000 NA
ATOM      4  C   UNL     1      44.438   6.642  11.509  0.00  0.00    +0.000 A 
ATOM      5  C   UNL     1      43.874   5.434  11.071  0.00  0.00    +0.000 A 
ATOM      6  C   UNL     1      44.423   4.228  11.534  0.00  0.00    +0.000 A 
ATOM      7  C   UNL     1      45.497   4.248  12.442  0.00  0.00    +0.000 A 
ATOM      8  C   UNL     1      46.051   5.449  12.911  0.00  0.00    +0.000 A 
ATOM      9  C   UNL     1      45.496   6.628  12.414  0.00  0.00    +0.000 A 
ENDROOT
BRANCH   6  10
ATOM     10  C   UNL     1      43.921   2.897  11.087  0.00  0.00    +0.000 C 
ATOM     11  N   UNL     1      44.547   2.278  10.042  0.00  0.00    +0.000 N 
ATOM     12  O   UNL     1      42.974   2.350  11.642  0.00  0.00    +0.000 OA
ATOM     13  H   UNL     1      45.342   2.633   9.538  0.00  0.00    +0.000 HD
ATOM     14  H   UNL     1      44.193   1.365   9.778  0.00  0.00    +0.000 HD
ENDBRANCH   6  10
BRANCH   1  15
ATOM     15  C   UNL     1      46.717   8.573  13.488  0.00  0.00    +0.000 C 
BRANCH  15  19
ATOM     16  C   UNL     1      50.418   8.000  13.507  0.00  0.00    +0.000 C 
ATOM     17  C   UNL     1      49.671   8.952  14.460  0.00  0.00    +0.000 C 
ATOM     18  C   UNL     1      48.844   9.998  13.714  0.00  0.00    +0.000 C 
ATOM     19  C   UNL     1      47.830   9.355  12.757  0.00  0.00    +0.000 C 
ATOM     20  C   UNL     1      48.576   8.448  11.763  0.00  0.00    +0.000 C 
ATOM     21  C   UNL     1      49.464   7.409  12.451  0.00  0.00    +0.000 C 
BRANCH  16  22
ATOM     22  C   UNL     1      51.641   8.678  12.857  0.00  0.00    +0.000 C 
BRANCH  22  23
ATOM     23  N   UNL     1      52.164   7.853  11.773  0.00  0.00    +0.000 NA
ATOM     24  H   UNL     1      51.539   7.890  10.970  0.00  0.00    +0.000 HD
ATOM     25  H   UNL     1      52.208   6.879  12.069  0.00  0.00    +0.000 HD
ENDBRANCH  22  23
ENDBRANCH  16  22
ENDBRANCH  15  19
ENDBRANCH   1  15
TORSDOF 5
ENDMDL
MODEL 7
REMARK VINA RESULT:    -6.020      3.638      5.844
REMARK INTER + INTRA:          -7.647
REMARK INTER:                  -7.138
REMARK INTRA:                  -0.509
REMARK UNBOUND:                -0.044
REMARK  Name = 
REMARK  5 active torsions:
REMARK  status: ('A' for Active; 'I' for Inactive)
REMARK    1  A    between atoms: N_1  and  C_2
REMARK    2  A    between atoms: C_2  and  C_3
REMARK    3  A    between atoms: C_6  and  C_7
REMARK    4  A    between atoms: C_7  and  N_8
REMARK    5  A    between atoms: C_13  and  C_14
REMARK                            x       y       z     vdW  Elec       q    Type
REMARK                         _______ _______ _______ _____ _____    ______ ____
ROOT
ATOM      1  N   UNL     1      47.883   6.281  13.801  0.00  0.00    +0.000 N 
ATOM      2  N   UNL     1      48.027   7.473  13.192  0.00  0.00    +0.000 NA
ATOM      3  N   UNL     1      47.148   7.526  12.199  0.00  0.00    +0.000 NA
ATOM      4  C   UNL     1      46.480   6.333  12.161  0.00  0.00    +0.000 A 
ATOM      5  C   UNL     1      45.473   5.886  11.293  0.00  0.00    +0.000 A 
ATOM      6  C   UNL     1      44.983   4.579  11.447  0.00  0.00    +0.000 A 
ATOM      7  C   UNL     1      45.482   3.758  12.474  0.00  0.00    +0.000 A 
ATOM      8  C   UNL     1      46.468   4.203  13.367  0.00  0.00    +0.000 A 
ATOM      9  C   UNL     1      46.948   5.499  13.172  0.00  0.00    +0.000 A 
ENDROOT
BRANCH   6  10
ATOM     10  C   UNL     1      43.947   4.001  10.542  0.00  0.00    +0.000 C 
ATOM     11  N   UNL     1      43.909   4.414   9.241  0.00  0.00    +0.000 N 
ATOM     12  O   UNL     1      43.146   3.163  10.940  0.00  0.00    +0.000 OA
ATOM     13  H   UNL     1      44.534   5.079   8.815  0.00  0.00    +0.000 HD
ATOM     14  H   UNL     1      43.206   3.986   8.649  0.00  0.00    +0.000 HD
ENDBRANCH   6  10
BRANCH   1  15
ATOM     15  C   UNL     1      48.679   5.961  14.966  0.00  0.00    +0.000 C 
BRANCH  15  19
ATOM     16  C   UNL     1      49.593   4.422  18.255  0.00  0.00    +0.000 C 
ATOM     17  C   UNL     1      48.762   3.726  17.159  0.00  0.00    +0.000 C 
ATOM     18  C   UNL     1      47.526   4.531  16.762  0.00  0.00    +0.000 C 
ATOM     19  C   UNL     1      47.887   5.947  16.291  0.00  0.00    +0.000 C 
ATOM     20  C   UNL     1      48.665   6.669  17.404  0.00  0.00    +0.000 C 
ATOM     21  C   UNL     1      49.890   5.887  17.882  0.00  0.00    +0.000 C 
BRANCH  16  22
ATOM     22  C   UNL     1      48.927   4.309  19.641  0.00  0.00    +0.000 C 
BRANCH  22  23
ATOM     23  N   UNL     1      48.342   2.982  19.818  0.00  0.00    +0.000 NA
ATOM     24  H   UNL     1      47.416   2.948  19.396  0.00  0.00    +0.000 HD
ATOM     25  H   UNL     1      48.223   2.785  20.809  0.00  0.00    +0.000 HD
ENDBRANCH  22  23
ENDBRANCH  16  22
ENDBRANCH  15  19
ENDBRANCH   1  15
TORSDOF 5
ENDMDL
MODEL 8
REMARK VINA RESULT:    -5.847      5.116      8.510
REMARK INTER + INTRA:          -7.429
REMARK INTER:                  -7.154
REMARK INTRA:                  -0.275
REMARK UNBOUND:                -0.044
REMARK  Name = 
REMARK  5 active torsions:
REMARK  status: ('A' for Active; 'I' for Inactive)
REMARK    1  A    between atoms: N_1  and  C_2
REMARK    2  A    between atoms: C_2  and  C_3
REMARK    3  A    between atoms: C_6  and  C_7
REMARK    4  A    between atoms: C_7  and  N_8
REMARK    5  A    between atoms: C_13  and  C_14
REMARK                            x       y       z     vdW  Elec       q    Type
REMARK                         _______ _______ _______ _____ _____    ______ ____
ROOT
ATOM      1  N   UNL     1      47.528   4.057  15.539  0.00  0.00    +0.000 N 
ATOM      2  N   UNL     1      47.900   2.789  15.285  0.00  0.00    +0.000 NA
ATOM      3  N   UNL     1      48.789   2.439  16.207  0.00  0.00    +0.000 NA
ATOM      4  C   UNL     1      49.006   3.519  17.017  0.00  0.00    +0.000 A 
ATOM      5  C   UNL     1      49.860   3.666  18.121  0.00  0.00    +0.000 A 
ATOM      6  C   UNL     1      49.927   4.915  18.757  0.00  0.00    +0.000 A 
ATOM      7  C   UNL     1      49.126   5.979  18.304  0.00  0.00    +0.000 A 
ATOM      8  C   UNL     1      48.247   5.836  17.220  0.00  0.00    +0.000 A 
ATOM      9  C   UNL     1      48.221   4.588  16.597  0.00  0.00    +0.000 A 
ENDROOT
BRANCH   6  10
ATOM     10  C   UNL     1      50.840   5.179  19.907  0.00  0.00    +0.000 C 
ATOM     11  N   UNL     1      50.663   4.472  21.061  0.00  0.00    +0.000 N 
ATOM     12  O   UNL     1      51.745   6.004  19.829  0.00  0.00    +0.000 OA
ATOM     13  H   UNL     1      49.966   3.762  21.216  0.00  0.00    +0.000 HD
ATOM     14  H   UNL     1      51.314   4.662  21.815  0.00  0.00    +0.000 HD
ENDBRANCH   6  10
BRANCH   1  15
ATOM     15  C   UNL     1      46.519   4.694  14.721  0.00  0.00    +0.000 C 
BRANCH  15  19
ATOM     16  C   UNL     1      44.032   5.026  11.941  0.00  0.00    +0.000 C 
ATOM     17  C   UNL     1      44.370   3.709  12.666  0.00  0.00    +0.000 C 
ATOM     18  C   UNL     1      45.860   3.378  12.615  0.00  0.00    +0.000 C 
ATOM     19  C   UNL     1      46.722   4.505  13.202  0.00  0.00    +0.000 C 
ATOM     20  C   UNL     1      46.434   5.811  12.442  0.00  0.00    +0.000 C 
ATOM     21  C   UNL     1      44.947   6.172  12.414  0.00  0.00    +0.000 C 
BRANCH  16  22
ATOM     22  C   UNL     1      44.066   4.863  10.408  0.00  0.00    +0.000 C 
BRANCH  22  23
ATOM     23  N   UNL     1      43.576   3.543  10.025  0.00  0.00    +0.000 NA
ATOM     24  H   UNL     1      42.671   3.625   9.562  0.00  0.00    +0.000 HD
ATOM     25  H   UNL     1      43.432   2.972  10.855  0.00  0.00    +0.000 HD
ENDBRANCH  22  23
ENDBRANCH  16  22
ENDBRANCH  15  19
ENDBRANCH   1  15
TORSDOF 5
ENDMDL
MODEL 9
REMARK VINA RESULT:    -5.622      3.431      5.685
REMARK INTER + INTRA:          -7.145
REMARK INTER:                  -6.730
REMARK INTRA:                  -0.416
REMARK UNBOUND:                -0.044
REMARK  Name = 
REMARK  5 active torsions:
REMARK  status: ('A' for Active; 'I' for Inactive)
REMARK    1  A    between atoms: N_1  and  C_2
REMARK    2  A    between atoms: C_2  and  C_3
REMARK    3  A    between atoms: C_6  and  C_7
REMARK    4  A    between atoms: C_7  and  N_8
REMARK    5  A    between atoms: C_13  and  C_14
REMARK                            x       y       z     vdW  Elec       q    Type
REMARK                         _______ _______ _______ _____ _____    ______ ____
ROOT
ATOM      1  N   UNL     1      47.884   5.867  14.232  0.00  0.00    +0.000 N 
ATOM      2  N   UNL     1      47.892   4.869  15.135  0.00  0.00    +0.000 NA
ATOM      3  N   UNL     1      47.093   3.911  14.682  0.00  0.00    +0.000 NA
ATOM      4  C   UNL     1      46.546   4.338  13.504  0.00  0.00    +0.000 A 
ATOM      5  C   UNL     1      45.633   3.704  12.647  0.00  0.00    +0.000 A 
ATOM      6  C   UNL     1      45.191   4.393  11.506  0.00  0.00    +0.000 A 
ATOM      7  C   UNL     1      45.685   5.680  11.228  0.00  0.00    +0.000 A 
ATOM      8  C   UNL     1      46.620   6.313  12.061  0.00  0.00    +0.000 A 
ATOM      9  C   UNL     1      47.022   5.609  13.196  0.00  0.00    +0.000 A 
ENDROOT
BRANCH   6  10
ATOM     10  C   UNL     1      44.187   3.819  10.564  0.00  0.00    +0.000 C 
ATOM     11  N   UNL     1      44.041   2.463  10.508  0.00  0.00    +0.000 N 
ATOM     12  O   UNL     1      43.491   4.538   9.855  0.00  0.00    +0.000 OA
ATOM     13  H   UNL     1      44.547   1.792  11.062  0.00  0.00    +0.000 HD
ATOM     14  H   UNL     1      43.335   2.108   9.872  0.00  0.00    +0.000 HD
ENDBRANCH   6  10
BRANCH   1  15
ATOM     15  C   UNL     1      48.714   7.035  14.433  0.00  0.00    +0.000 C 
BRANCH  15  19
ATOM     16  C   UNL     1      50.746   9.817  15.900  0.00  0.00    +0.000 C 
ATOM     17  C   UNL     1      51.314   8.458  15.449  0.00  0.00    +0.000 C 
ATOM     18  C   UNL     1      50.625   7.279  16.134  0.00  0.00    +0.000 C 
ATOM     19  C   UNL     1      49.107   7.286  15.906  0.00  0.00    +0.000 C 
ATOM     20  C   UNL     1      48.524   8.618  16.410  0.00  0.00    +0.000 C 
ATOM     21  C   UNL     1      49.209   9.841  15.797  0.00  0.00    +0.000 C 
BRANCH  16  22
ATOM     22  C   UNL     1      51.230  10.201  17.313  0.00  0.00    +0.000 C 
BRANCH  22  23
ATOM     23  N   UNL     1      52.679  10.059  17.412  0.00  0.00    +0.000 NA
ATOM     24  H   UNL     1      53.132  10.958  17.250  0.00  0.00    +0.000 HD
ATOM     25  H   UNL     1      53.015   9.425  16.690  0.00  0.00    +0.000 HD
ENDBRANCH  22  23
ENDBRANCH  16  22
ENDBRANCH  15  19
ENDBRANCH   1  15
TORSDOF 5
ENDMDL
