MODEL 1
REMARK VINA RESULT:    -8.105      0.000      0.000
REMARK INTER + INTRA:         -10.288
REMARK INTER:                 -10.001
REMARK INTRA:                  -0.287
REMARK UNBOUND:                -0.287
REMARK  Name = 
REMARK  4 active torsions:
REMARK  status: ('A' for Active; 'I' for Inactive)
REMARK    1  A    between atoms: C_2  and  C_4
REMARK    2  A    between atoms: C_7  and  N_8
REMARK    3  A    between atoms: N_8  and  C_9
REMARK    4  A    between atoms: C_9  and  C_10
REMARK                            x       y       z     vdW  Elec       q    Type
REMARK                         _______ _______ _______ _____ _____    ______ ____
ROOT
ATOM      1  C   UNL     1      46.240   2.061   7.863  0.00  0.00    +0.000 A 
ATOM      2  C   UNL     1      46.343   3.398   7.521  0.00  0.00    +0.000 A 
ATOM      3  N   UNL     1      45.578   4.365   8.098  0.00  0.00    +0.000 NA
ATOM      4  C   UNL     1      44.654   3.949   8.993  0.00  0.00    +0.000 A 
ATOM      5  C   UNL     1      44.552   2.580   9.302  0.00  0.00    +0.000 A 
ATOM      6  N   UNL     1      45.332   1.609   8.770  0.00  0.00    +0.000 NA
ENDROOT
BRANCH   1   8
ATOM      7  N   UNL     1      46.922  -0.243   7.656  0.00  0.00    +0.000 N 
ATOM      8  C   UNL     1      47.182   1.055   7.311  0.00  0.00    +0.000 C 
ATOM      9  O   UNL     1      48.148   1.365   6.620  0.00  0.00    +0.000 OA
ATOM     10  H   UNL     1      47.575  -0.970   7.410  0.00  0.00    +0.000 HD
ATOM     11  H   UNL     1      46.141  -0.446   8.280  0.00  0.00    +0.000 HD
ENDBRANCH   1   8
BRANCH   4  12
ATOM     12  N   UNL     1      43.881   4.940   9.645  0.00  0.00    +0.000 N 
ATOM     13  H   UNL     1      44.105   5.827   9.203  0.00  0.00    +0.000 HD
BRANCH  12  14
ATOM     14  C   UNL     1      43.906   4.959  11.137  0.00  0.00    +0.000 C 
ATOM     15  C   UNL     1      42.986   4.083  11.963  0.00  0.00    +0.000 C 
ATOM     16  C   UNL     1      42.685   5.539  11.829  0.00  0.00    +0.000 C 
BRANCH  14  17
ATOM     17  C   UNL     1      45.326   5.201  11.648  0.00  0.00    +0.000 A 
ATOM     18  C   UNL     1      45.995   6.377  11.279  0.00  0.00    +0.000 A 
ATOM     19  N   UNL     1      47.031   6.906  11.971  0.00  0.00    +0.000 NA
ATOM     20  C   UNL     1      47.373   6.228  13.084  0.00  0.00    +0.000 A 
ATOM     21  C   UNL     1      46.781   5.023  13.425  0.00  0.00    +0.000 A 
ATOM     22  N   UNL     1      45.774   4.474  12.709  0.00  0.00    +0.000 NA
ENDBRANCH  14  17
ENDBRANCH  12  14
ENDBRANCH   4  12
TORSDOF 4
ENDMDL
MODEL 2
REMARK VINA RESULT:    -7.266      1.607      2.276
REMARK INTER + INTRA:          -9.253
REMARK INTER:                  -8.972
REMARK INTRA:                  -0.281
REMARK UNBOUND:                -0.287
REMARK  Name = 
REMARK  4 active torsions:
REMARK  status: ('A' for Active; 'I' for Inactive)
REMARK    1  A    between atoms: C_2  and  C_4
REMARK    2  A    between atoms: C_7  and  N_8
REMARK    3  A    between atoms: N_8  and  C_9
REMARK    4  A    between atoms: C_9  and  C_10
REMARK                            x       y       z     vdW  Elec       q    Type
REMARK                         _______ _______ _______ _____ _____    ______ ____
ROOT
ATOM      1  C   UNL     1      46.628   2.881   7.518  0.00  0.00    +0.000 A 
ATOM      2  C   UNL     1      45.894   2.012   8.309  0.00  0.00    +0.000 A 
ATOM      3  N   UNL     1      44.982   2.444   9.222  0.00  0.00    +0.000 NA
ATOM      4  C   UNL     1      44.863   3.782   9.370  0.00  0.00    +0.000 A 
ATOM      5  C   UNL     1      45.641   4.642   8.574  0.00  0.00    +0.000 A 
ATOM      6  N   UNL     1      46.523   4.232   7.631  0.00  0.00    +0.000 NA
ENDROOT
BRANCH   1   8
ATOM      7  N   UNL     1      47.467   3.069   5.266  0.00  0.00    +0.000 N 
ATOM      8  C   UNL     1      47.514   2.372   6.442  0.00  0.00    +0.000 C 
ATOM      9  O   UNL     1      48.217   1.375   6.582  0.00  0.00    +0.000 OA
ATOM     10  H   UNL     1      47.958   2.724   4.456  0.00  0.00    +0.000 HD
ATOM     11  H   UNL     1      46.825   3.856   5.179  0.00  0.00    +0.000 HD
ENDBRANCH   1   8
BRANCH   4  12
ATOM     12  N   UNL     1      43.885   4.256  10.277  0.00  0.00    +0.000 N 
ATOM     13  H   UNL     1      43.516   5.119   9.889  0.00  0.00    +0.000 HD
BRANCH  12  14
ATOM     14  C   UNL     1      44.264   4.330  11.719  0.00  0.00    +0.000 C 
ATOM     15  C   UNL     1      45.047   3.224  12.397  0.00  0.00    +0.000 C 
ATOM     16  C   UNL     1      43.581   3.345  12.652  0.00  0.00    +0.000 C 
BRANCH  14  17
ATOM     17  C   UNL     1      44.552   5.774  12.126  0.00  0.00    +0.000 A 
ATOM     18  C   UNL     1      45.649   6.046  12.957  0.00  0.00    +0.000 A 
ATOM     19  N   UNL     1      46.254   7.254  13.038  0.00  0.00    +0.000 NA
ATOM     20  C   UNL     1      45.739   8.200  12.228  0.00  0.00    +0.000 A 
ATOM     21  C   UNL     1      44.609   7.979  11.460  0.00  0.00    +0.000 A 
ATOM     22  N   UNL     1      43.979   6.783  11.411  0.00  0.00    +0.000 NA
ENDBRANCH  14  17
ENDBRANCH  12  14
ENDBRANCH   4  12
TORSDOF 4
ENDMDL
MODEL 3
REMARK VINA RESULT:    -6.244      2.701      6.104
REMARK INTER + INTRA:          -7.992
REMARK INTER:                  -8.024
REMARK INTRA:                   0.032
REMARK UNBOUND:                -0.287
REMARK  Name = 
REMARK  4 active torsions:
REMARK  status: ('A' for Active; 'I' for Inactive)
REMARK    1  A    between atoms: C_2  and  C_4
REMARK    2  A    between atoms: C_7  and  N_8
REMARK    3  A    between atoms: N_8  and  C_9
REMARK    4  A    between atoms: C_9  and  C_10
REMARK                            x       y       z     vdW  Elec       q    Type
REMARK                         _______ _______ _______ _____ _____    ______ ____
ROOT
ATOM      1  C   UNL     1      47.612   5.992  14.078  0.00  0.00    +0.000 A 
ATOM      2  C   UNL     1      47.224   4.800  14.666  0.00  0.00    +0.000 A 
ATOM      3  N   UNL     1      46.495   3.859  14.006  0.00  0.00    +0.000 NA
ATOM      4  C   UNL     1      46.106   4.168  12.749  0.00  0.00    +0.000 A 
ATOM      5  C   UNL     1      46.490   5.400  12.185  0.00  0.00    +0.000 A 
ATOM      6  N   UNL     1      47.251   6.330  12.811  0.00  0.00    +0.000 NA
ENDROOT
BRANCH   1   8
ATOM      7  N   UNL     1      47.963   8.136  15.124  0.00  0.00    +0.000 N 
ATOM      8  C   UNL     1      48.518   6.934  14.782  0.00  0.00    +0.000 C 
ATOM      9  O   UNL     1      49.695   6.668  15.013  0.00  0.00    +0.000 OA
ATOM     10  H   UNL     1      48.542   8.867  15.507  0.00  0.00    +0.000 HD
ATOM     11  H   UNL     1      46.999   8.333  14.859  0.00  0.00    +0.000 HD
ENDBRANCH   1   8
BRANCH   4  12
ATOM     12  N   UNL     1      45.390   3.186  12.024  0.00  0.00    +0.000 N 
ATOM     13  H   UNL     1      46.076   2.537  11.650  0.00  0.00    +0.000 HD
BRANCH  12  14
ATOM     14  C   UNL     1      44.377   3.664  11.037  0.00  0.00    +0.000 C 
ATOM     15  C   UNL     1      43.584   4.936  11.258  0.00  0.00    +0.000 C 
ATOM     16  C   UNL     1      42.924   3.614  11.478  0.00  0.00    +0.000 C 
BRANCH  14  17
ATOM     17  C   UNL     1      44.810   3.319   9.613  0.00  0.00    +0.000 A 
ATOM     18  C   UNL     1      45.199   4.351   8.747  0.00  0.00    +0.000 A 
ATOM     19  N   UNL     1      45.983   4.169   7.658  0.00  0.00    +0.000 NA
ATOM     20  C   UNL     1      46.400   2.902   7.468  0.00  0.00    +0.000 A 
ATOM     21  C   UNL     1      45.965   1.854   8.261  0.00  0.00    +0.000 A 
ATOM     22  N   UNL     1      45.148   2.031   9.324  0.00  0.00    +0.000 NA
ENDBRANCH  14  17
ENDBRANCH  12  14
ENDBRANCH   4  12
TORSDOF 4
ENDMDL
MODEL 4
REMARK VINA RESULT:    -6.139      3.448      6.528
REMARK INTER + INTRA:          -7.862
REMARK INTER:                  -7.675
REMARK INTRA:                  -0.187
REMARK UNBOUND:                -0.287
REMARK  Name = 
REMARK  4 active torsions:
REMARK  status: ('A' for Active; 'I' for Inactive)
REMARK    1  A    between atoms: C_2  and  C_4
REMARK    2  A    between atoms: C_7  and  N_8
REMARK    3  A    between atoms: N_8  and  C_9
REMARK    4  A    between atoms: C_9  and  C_10
REMARK                            x       y       z     vdW  Elec       q    Type
REMARK                         _______ _______ _______ _____ _____    ______ ____
ROOT
ATOM      1  C   UNL     1      48.281   5.753  15.360  0.00  0.00    +0.000 A 
ATOM      2  C   UNL     1      47.503   4.718  15.849  0.00  0.00    +0.000 A 
ATOM      3  N   UNL     1      46.671   3.988  15.058  0.00  0.00    +0.000 NA
ATOM      4  C   UNL     1      46.589   4.360  13.762  0.00  0.00    +0.000 A 
ATOM      5  C   UNL     1      47.370   5.434  13.296  0.00  0.00    +0.000 A 
ATOM      6  N   UNL     1      48.234   6.146  14.058  0.00  0.00    +0.000 NA
ENDROOT
BRANCH   1   8
ATOM      7  N   UNL     1      49.847   5.660  17.191  0.00  0.00    +0.000 N 
ATOM      8  C   UNL     1      49.274   6.440  16.224  0.00  0.00    +0.000 C 
ATOM      9  O   UNL     1      49.541   7.632  16.103  0.00  0.00    +0.000 OA
ATOM     10  H   UNL     1      50.449   6.078  17.883  0.00  0.00    +0.000 HD
ATOM     11  H   UNL     1      49.551   4.690  17.289  0.00  0.00    +0.000 HD
ENDBRANCH   1   8
BRANCH   4  12
ATOM     12  N   UNL     1      45.770   3.584  12.907  0.00  0.00    +0.000 N 
ATOM     13  H   UNL     1      46.387   3.125  12.243  0.00  0.00    +0.000 HD
BRANCH  12  14
ATOM     14  C   UNL     1      44.583   4.255  12.299  0.00  0.00    +0.000 C 
ATOM     15  C   UNL     1      43.965   5.495  12.911  0.00  0.00    +0.000 C 
ATOM     16  C   UNL     1      43.284   4.178  13.083  0.00  0.00    +0.000 C 
BRANCH  14  17
ATOM     17  C   UNL     1      44.625   4.143  10.775  0.00  0.00    +0.000 A 
ATOM     18  C   UNL     1      45.270   5.143  10.034  0.00  0.00    +0.000 A 
ATOM     19  N   UNL     1      45.744   4.965   8.777  0.00  0.00    +0.000 NA
ATOM     20  C   UNL     1      45.575   3.724   8.280  0.00  0.00    +0.000 A 
ATOM     21  C   UNL     1      44.871   2.746   8.961  0.00  0.00    +0.000 A 
ATOM     22  N   UNL     1      44.362   2.937  10.199  0.00  0.00    +0.000 NA
ENDBRANCH  14  17
ENDBRANCH  12  14
ENDBRANCH   4  12
TORSDOF 4
ENDMDL
MODEL 5
REMARK VINA RESULT:    -5.827      2.756      6.016
REMARK INTER + INTRA:          -7.477
REMARK INTER:                  -8.055
REMARK INTRA:                   0.578
REMARK UNBOUND:                -0.287
REMARK  Name = 
REMARK  4 active torsions:
REMARK  status: ('A' for Active; 'I' for Inactive)
REMARK    1  A    between atoms: C_2  and  C_4
REMARK    2  A    between atoms: C_7  and  N_8
REMARK    3  A    between atoms: N_8  and  C_9
REMARK    4  A    between atoms: C_9  and  C_10
REMARK                            x       y       z     vdW  Elec       q    Type
REMARK                         _______ _______ _______ _____ _____    ______ ____
ROOT
ATOM      1  C   UNL     1      46.686   7.653  12.588  0.00  0.00    +0.000 A 
ATOM      2  C   UNL     1      47.120   6.929  11.490  0.00  0.00    +0.000 A 
ATOM      3  N   UNL     1      46.296   6.118  10.773  0.00  0.00    +0.000 NA
ATOM      4  C   UNL     1      45.026   6.000  11.220  0.00  0.00    +0.000 A 
ATOM      5  C   UNL     1      44.618   6.725  12.356  0.00  0.00    +0.000 A 
ATOM      6  N   UNL     1      45.412   7.568  13.057  0.00  0.00    +0.000 NA
ENDROOT
BRANCH   1   8
ATOM      7  N   UNL     1      47.193   9.001  14.521  0.00  0.00    +0.000 N 
ATOM      8  C   UNL     1      47.578   8.628  13.263  0.00  0.00    +0.000 C 
ATOM      9  O   UNL     1      48.576   9.096  12.720  0.00  0.00    +0.000 OA
ATOM     10  H   UNL     1      47.686   9.738  15.001  0.00  0.00    +0.000 HD
ATOM     11  H   UNL     1      46.326   8.629  14.908  0.00  0.00    +0.000 HD
ENDBRANCH   1   8
BRANCH   4  12
ATOM     12  N   UNL     1      44.136   5.202  10.463  0.00  0.00    +0.000 N 
ATOM     13  H   UNL     1      43.196   5.517  10.684  0.00  0.00    +0.000 HD
BRANCH  12  14
ATOM     14  C   UNL     1      44.327   3.722  10.512  0.00  0.00    +0.000 C 
ATOM     15  C   UNL     1      43.406   2.824  11.311  0.00  0.00    +0.000 C 
ATOM     16  C   UNL     1      44.765   3.138  11.844  0.00  0.00    +0.000 C 
BRANCH  14  17
ATOM     17  C   UNL     1      44.865   3.205   9.178  0.00  0.00    +0.000 A 
ATOM     18  C   UNL     1      45.210   4.125   8.177  0.00  0.00    +0.000 A 
ATOM     19  N   UNL     1      46.064   3.852   7.162  0.00  0.00    +0.000 NA
ATOM     20  C   UNL     1      46.599   2.615   7.191  0.00  0.00    +0.000 A 
ATOM     21  C   UNL     1      46.214   1.666   8.121  0.00  0.00    +0.000 A 
ATOM     22  N   UNL     1      45.328   1.926   9.110  0.00  0.00    +0.000 NA
ENDBRANCH  14  17
ENDBRANCH  12  14
ENDBRANCH   4  12
TORSDOF 4
ENDMDL
MODEL 6
REMARK VINA RESULT:    -5.641      2.883      6.118
REMARK INTER + INTRA:          -7.248
REMARK INTER:                  -7.117
REMARK INTRA:                  -0.131
REMARK UNBOUND:                -0.287
REMARK  Name = 
REMARK  4 active torsions:
REMARK  status: ('A' for Active; 'I' for Inactive)
REMARK    1  A    between atoms: C_2  and  C_4
REMARK    2  A    between atoms: C_7  and  N_8
REMARK    3  A    between atoms: N_8  and  C_9
REMARK    4  A    between atoms: C_9  and  C_10
REMARK                            x       y       z     vdW  Elec       q    Type
REMARK                         _______ _______ _______ _____ _____    ______ ____
ROOT
ATOM      1  C   UNL     1      48.179   7.057  13.573  0.00  0.00    +0.000 A 
ATOM      2  C   UNL     1      47.076   7.729  13.075  0.00  0.00    +0.000 A 
ATOM      3  N   UNL     1      45.867   7.130  12.903  0.00  0.00    +0.000 NA
ATOM      4  C   UNL     1      45.802   5.810  13.186  0.00  0.00    +0.000 A 
ATOM      5  C   UNL     1      46.947   5.143  13.664  0.00  0.00    +0.000 A 
ATOM      6  N   UNL     1      48.146   5.733  13.881  0.00  0.00    +0.000 NA
ENDROOT
BRANCH   1   8
ATOM      7  N   UNL     1      49.597   8.979  13.241  0.00  0.00    +0.000 N 
ATOM      8  C   UNL     1      49.443   7.776  13.873  0.00  0.00    +0.000 C 
ATOM      9  O   UNL     1      50.308   7.311  14.610  0.00  0.00    +0.000 OA
ATOM     10  H   UNL     1      50.472   9.476  13.309  0.00  0.00    +0.000 HD
ATOM     11  H   UNL     1      48.877   9.298  12.593  0.00  0.00    +0.000 HD
ENDBRANCH   1   8
BRANCH   4  12
ATOM     12  N   UNL     1      44.544   5.174  13.064  0.00  0.00    +0.000 N 
ATOM     13  H   UNL     1      44.651   4.233  13.432  0.00  0.00    +0.000 HD
BRANCH  12  14
ATOM     14  C   UNL     1      43.860   5.254  11.739  0.00  0.00    +0.000 C 
ATOM     15  C   UNL     1      43.193   6.527  11.260  0.00  0.00    +0.000 C 
ATOM     16  C   UNL     1      42.349   5.402  11.762  0.00  0.00    +0.000 C 
BRANCH  14  17
ATOM     17  C   UNL     1      44.579   4.382  10.710  0.00  0.00    +0.000 A 
ATOM     18  C   UNL     1      44.242   3.024  10.609  0.00  0.00    +0.000 A 
ATOM     19  N   UNL     1      44.468   2.269   9.508  0.00  0.00    +0.000 NA
ATOM     20  C   UNL     1      45.028   2.930   8.475  0.00  0.00    +0.000 A 
ATOM     21  C   UNL     1      45.441   4.247   8.578  0.00  0.00    +0.000 A 
ATOM     22  N   UNL     1      45.253   4.988   9.693  0.00  0.00    +0.000 NA
ENDBRANCH  14  17
ENDBRANCH  12  14
ENDBRANCH   4  12
TORSDOF 4
ENDMDL
MODEL 7
REMARK VINA RESULT:    -5.494      2.412      4.428
REMARK INTER + INTRA:          -7.066
REMARK INTER:                  -6.920
REMARK INTRA:                  -0.146
REMARK UNBOUND:                -0.287
REMARK  Name = 
REMARK  4 active torsions:
REMARK  status: ('A' for Active; 'I' for Inactive)
REMARK    1  A    between atoms: C_2  and  C_4
REMARK    2  A    between atoms: C_7  and  N_8
REMARK    3  A    between atoms: N_8  and  C_9
REMARK    4  A    between atoms: C_9  and  C_10
REMARK                            x       y       z     vdW  Elec       q    Type
REMARK                         _______ _______ _______ _____ _____    ______ ____
ROOT
ATOM      1  C   UNL     1      45.074   3.795  10.178  0.00  0.00    +0.000 A 
ATOM      2  C   UNL     1      45.096   3.326  11.481  0.00  0.00    +0.000 A 
ATOM      3  N   UNL     1      45.353   4.131  12.547  0.00  0.00    +0.000 NA
ATOM      4  C   UNL     1      45.650   5.421  12.272  0.00  0.00    +0.000 A 
ATOM      5  C   UNL     1      45.648   5.865  10.936  0.00  0.00    +0.000 A 
ATOM      6  N   UNL     1      45.355   5.089   9.866  0.00  0.00    +0.000 NA
ENDROOT
BRANCH   1   8
ATOM      7  N   UNL     1      44.228   3.567   7.932  0.00  0.00    +0.000 N 
ATOM      8  C   UNL     1      44.659   2.917   9.055  0.00  0.00    +0.000 C 
ATOM      9  O   UNL     1      44.670   1.692   9.137  0.00  0.00    +0.000 OA
ATOM     10  H   UNL     1      43.830   3.043   7.168  0.00  0.00    +0.000 HD
ATOM     11  H   UNL     1      44.183   4.585   7.932  0.00  0.00    +0.000 HD
ENDBRANCH   1   8
BRANCH   4  12
ATOM     12  N   UNL     1      45.871   6.290  13.366  0.00  0.00    +0.000 N 
ATOM     13  H   UNL     1      45.000   6.786  13.530  0.00  0.00    +0.000 HD
BRANCH  12  14
ATOM     14  C   UNL     1      47.086   7.157  13.320  0.00  0.00    +0.000 C 
ATOM     15  C   UNL     1      48.424   6.633  12.842  0.00  0.00    +0.000 C 
ATOM     16  C   UNL     1      48.194   6.827  14.304  0.00  0.00    +0.000 C 
BRANCH  14  17
ATOM     17  C   UNL     1      46.706   8.596  12.971  0.00  0.00    +0.000 A 
ATOM     18  C   UNL     1      47.669   9.438  12.397  0.00  0.00    +0.000 A 
ATOM     19  N   UNL     1      47.372  10.542  11.671  0.00  0.00    +0.000 NA
ATOM     20  C   UNL     1      46.054  10.772  11.506  0.00  0.00    +0.000 A 
ATOM     21  C   UNL     1      45.087  10.001  12.129  0.00  0.00    +0.000 A 
ATOM     22  N   UNL     1      45.386   8.924  12.889  0.00  0.00    +0.000 NA
ENDBRANCH  14  17
ENDBRANCH  12  14
ENDBRANCH   4  12
TORSDOF 4
ENDMDL
MODEL 8
REMARK VINA RESULT:    -5.292      4.474      6.402
REMARK INTER + INTRA:          -6.816
REMARK INTER:                  -6.347
REMARK INTRA:                  -0.469
REMARK UNBOUND:                -0.287
REMARK  Name = 
REMARK  4 active torsions:
REMARK  status: ('A' for Active; 'I' for Inactive)
REMARK    1  A    between atoms: C_2  and  C_4
REMARK    2  A    between atoms: C_7  and  N_8
REMARK    3  A    between atoms: N_8  and  C_9
REMARK    4  A    between atoms: C_9  and  C_10
REMARK                            x       y       z     vdW  Elec       q    Type
REMARK                         _______ _______ _______ _____ _____    ______ ____
ROOT
ATOM      1  C   UNL     1      45.004   5.166  13.122  0.00  0.00    +0.000 A 
ATOM      2  C   UNL     1      45.340   6.214  12.282  0.00  0.00    +0.000 A 
ATOM      3  N   UNL     1      46.611   6.689  12.173  0.00  0.00    +0.000 NA
ATOM      4  C   UNL     1      47.538   6.126  12.979  0.00  0.00    +0.000 A 
ATOM      5  C   UNL     1      47.163   5.081  13.845  0.00  0.00    +0.000 A 
ATOM      6  N   UNL     1      45.914   4.567  13.937  0.00  0.00    +0.000 NA
ENDROOT
BRANCH   1   8
ATOM      7  N   UNL     1      42.620   5.489  12.962  0.00  0.00    +0.000 N 
ATOM      8  C   UNL     1      43.637   4.587  13.115  0.00  0.00    +0.000 C 
ATOM      9  O   UNL     1      43.429   3.387  13.270  0.00  0.00    +0.000 OA
ATOM     10  H   UNL     1      41.663   5.188  13.055  0.00  0.00    +0.000 HD
ATOM     11  H   UNL     1      42.840   6.482  12.896  0.00  0.00    +0.000 HD
ENDBRANCH   1   8
BRANCH   4  12
ATOM     12  N   UNL     1      48.876   6.567  12.848  0.00  0.00    +0.000 N 
ATOM     13  H   UNL     1      49.471   5.791  13.120  0.00  0.00    +0.000 HD
BRANCH  12  14
ATOM     14  C   UNL     1      49.230   7.877  13.471  0.00  0.00    +0.000 C 
ATOM     15  C   UNL     1      48.661   9.185  12.960  0.00  0.00    +0.000 C 
ATOM     16  C   UNL     1      50.072   8.822  12.632  0.00  0.00    +0.000 C 
BRANCH  14  17
ATOM     17  C   UNL     1      49.438   7.717  14.977  0.00  0.00    +0.000 A 
ATOM     18  C   UNL     1      48.657   8.476  15.860  0.00  0.00    +0.000 A 
ATOM     19  N   UNL     1      48.434   8.140  17.152  0.00  0.00    +0.000 NA
ATOM     20  C   UNL     1      49.004   6.982  17.541  0.00  0.00    +0.000 A 
ATOM     21  C   UNL     1      49.844   6.258  16.712  0.00  0.00    +0.000 A 
ATOM     22  N   UNL     1      50.099   6.617  15.434  0.00  0.00    +0.000 NA
ENDBRANCH  14  17
ENDBRANCH  12  14
ENDBRANCH   4  12
TORSDOF 4
ENDMDL
MODEL 9
REMARK VINA RESULT:    -5.233      2.953      5.321
REMARK INTER + INTRA:          -6.744
REMARK INTER:                  -7.242
REMARK INTRA:                   0.498
REMARK UNBOUND:                -0.287
REMARK  Name = 
REMARK  4 active torsions:
REMARK  status: ('A' for Active; 'I' for Inactive)
REMARK    1  A    between atoms: C_2  and  C_4
REMARK    2  A    between atoms: C_7  and  N_8
REMARK    3  A    between atoms: N_8  and  C_9
REMARK    4  A    between atoms: C_9  and  C_10
REMARK                            x       y       z     vdW  Elec       q    Type
REMARK                         _______ _______ _______ _____ _____    ______ ____
ROOT
ATOM      1  C   UNL     1      44.941   4.695  11.029  0.00  0.00    +0.000 A 
ATOM      2  C   UNL     1      44.904   4.466  12.393  0.00  0.00    +0.000 A 
ATOM      3  N   UNL     1      45.504   5.292  13.293  0.00  0.00    +0.000 NA
ATOM      4  C   UNL     1      46.202   6.332  12.786  0.00  0.00    +0.000 A 
ATOM      5  C   UNL     1      46.247   6.526  11.392  0.00  0.00    +0.000 A 
ATOM      6  N   UNL     1      45.621   5.740  10.484  0.00  0.00    +0.000 NA
ENDROOT
BRANCH   1   8
ATOM      7  N   UNL     1      43.992   4.370   8.836  0.00  0.00    +0.000 N 
ATOM      8  C   UNL     1      44.163   3.849  10.089  0.00  0.00    +0.000 C 
ATOM      9  O   UNL     1      43.678   2.770  10.420  0.00  0.00    +0.000 OA
ATOM     10  H   UNL     1      43.386   3.907   8.177  0.00  0.00    +0.000 HD
ATOM     11  H   UNL     1      44.364   5.296   8.626  0.00  0.00    +0.000 HD
ENDBRANCH   1   8
BRANCH   4  12
ATOM     12  N   UNL     1      46.793   7.234  13.702  0.00  0.00    +0.000 N 
ATOM     13  H   UNL     1      46.465   8.163  13.455  0.00  0.00    +0.000 HD
BRANCH  12  14
ATOM     14  C   UNL     1      48.266   7.127  13.918  0.00  0.00    +0.000 C 
ATOM     15  C   UNL     1      49.220   8.219  13.478  0.00  0.00    +0.000 C 
ATOM     16  C   UNL     1      49.125   6.963  12.676  0.00  0.00    +0.000 C 
BRANCH  14  17
ATOM     17  C   UNL     1      48.566   6.387  15.221  0.00  0.00    +0.000 A 
ATOM     18  C   UNL     1      48.952   7.120  16.352  0.00  0.00    +0.000 A 
ATOM     19  N   UNL     1      48.831   6.670  17.623  0.00  0.00    +0.000 NA
ATOM     20  C   UNL     1      48.275   5.448  17.739  0.00  0.00    +0.000 A 
ATOM     21  C   UNL     1      47.960   4.673  16.636  0.00  0.00    +0.000 A 
ATOM     22  N   UNL     1      48.120   5.107  15.365  0.00  0.00    +0.000 NA
ENDBRANCH  14  17
ENDBRANCH  12  14
ENDBRANCH   4  12
TORSDOF 4
ENDMDL
