MODEL 1
REMARK VINA RESULT:    -8.352      0.000      0.000
REMARK INTER + INTRA:         -13.219
REMARK INTER:                 -12.013
REMARK INTRA:                  -1.205
REMARK UNBOUND:                -1.205
REMARK  Name = 
REMARK  8 active torsions:
REMARK  status: ('A' for Active; 'I' for Inactive)
REMARK    1  A    between atoms: C_2  and  C_21
REMARK    2  A    between atoms: N_3  and  C_4
REMARK    3  A    between atoms: C_4  and  C_5
REMARK    4  A    between atoms: C_8  and  C_9
REMARK    5  A    between atoms: C_9  and  C_10
REMARK    6  A    between atoms: C_9  and  C_12
REMARK    7  A    between atoms: C_10  and  O_11
REMARK    8  A    between atoms: C_12  and  C_13
REMARK                            x       y       z     vdW  Elec       q    Type
REMARK                         _______ _______ _______ _____ _____    ______ ____
ROOT
ATOM      1  C   UNL     1      47.250   6.138  13.047  0.00  0.00    +0.000 A 
ATOM      2  C   UNL     1      46.935   6.779  11.848  0.00  0.00    +0.000 A 
ATOM      3  C   UNL     1      45.849   6.341  11.094  0.00  0.00    +0.000 A 
ATOM      4  C   UNL     1      45.099   5.263  11.556  0.00  0.00    +0.000 A 
ATOM      5  N   UNL     1      45.352   4.658  12.747  0.00  0.00    +0.000 NA
ATOM      6  C   UNL     1      46.431   5.088  13.443  0.00  0.00    +0.000 A 
ENDROOT
BRANCH   1   7
ATOM      7  C   UNL     1      48.473   6.502  13.834  0.00  0.00    +0.000 C 
BRANCH   7  10
ATOM      8  O   UNL     1      50.320   6.246  15.904  0.00  0.00    +0.000 OA
ATOM      9  C   UNL     1      49.159   6.528  16.189  0.00  0.00    +0.000 C 
ATOM     10  N   UNL     1      48.169   6.581  15.242  0.00  0.00    +0.000 N 
ATOM     11  H   UNL     1      47.269   6.977  15.493  0.00  0.00    +0.000 HD
BRANCH   9  12
ATOM     12  C   UNL     1      48.752   6.801  17.573  0.00  0.00    +0.000 A 
ATOM     13  C   UNL     1      48.314   8.068  17.932  0.00  0.00    +0.000 A 
ATOM     14  S   UNL     1      47.872   8.196  19.575  0.00  0.00    +0.000 S 
ATOM     15  C   UNL     1      48.209   6.552  19.852  0.00  0.00    +0.000 A 
ATOM     16  N   UNL     1      47.999   5.989  21.073  0.00  0.00    +0.000 NA
ATOM     17  C   UNL     1      48.253   4.723  21.127  0.00  0.00    +0.000 A 
ATOM     18  N   UNL     1      48.712   3.973  20.077  0.00  0.00    +0.000 N 
ATOM     19  C   UNL     1      48.989   4.509  18.843  0.00  0.00    +0.000 A 
ATOM     20  O   UNL     1      49.483   3.830  17.950  0.00  0.00    +0.000 OA
ATOM     21  C   UNL     1      48.682   5.921  18.716  0.00  0.00    +0.000 A 
ATOM     22  H   UNL     1      48.906   2.989  20.195  0.00  0.00    +0.000 HD
ENDBRANCH   9  12
ENDBRANCH   7  10
ENDBRANCH   1   7
BRANCH   4  23
ATOM     23  C   UNL     1      43.985   4.680  10.704  0.00  0.00    +0.000 C 
BRANCH  23  24
ATOM     24  C   UNL     1      42.645   4.827  11.448  0.00  0.00    +0.000 C 
BRANCH  24  25
ATOM     25  O   UNL     1      42.670   5.861  12.430  0.00  0.00    +0.000 OA
ATOM     26  H   UNL     1      42.252   6.645  12.012  0.00  0.00    +0.000 HD
ENDBRANCH  24  25
ENDBRANCH  23  24
BRANCH  23  27
ATOM     27  C   UNL     1      44.253   3.205  10.324  0.00  0.00    +0.000 C 
BRANCH  27  28
ATOM     28  C   UNL     1      45.160   3.012   9.126  0.00  0.00    +0.000 A 
ATOM     29  C   UNL     1      45.664   1.737   8.828  0.00  0.00    +0.000 A 
ATOM     30  C   UNL     1      46.506   1.540   7.733  0.00  0.00    +0.000 A 
ATOM     31  C   UNL     1      46.847   2.611   6.915  0.00  0.00    +0.000 A 
ATOM     32  C   UNL     1      46.353   3.883   7.198  0.00  0.00    +0.000 A 
ATOM     33  C   UNL     1      45.518   4.085   8.302  0.00  0.00    +0.000 A 
ENDBRANCH  27  28
ENDBRANCH  23  27
ENDBRANCH   4  23
TORSDOF 8
ENDMDL
MODEL 2
REMARK VINA RESULT:    -8.278      1.371      2.264
REMARK INTER + INTRA:         -13.114
REMARK INTER:                 -11.820
REMARK INTRA:                  -1.294
REMARK UNBOUND:                -1.205
REMARK  Name = 
REMARK  8 active torsions:
REMARK  status: ('A' for Active; 'I' for Inactive)
REMARK    1  A    between atoms: C_2  and  C_21
REMARK    2  A    between atoms: N_3  and  C_4
REMARK    3  A    between atoms: C_4  and  C_5
REMARK    4  A    between atoms: C_8  and  C_9
REMARK    5  A    between atoms: C_9  and  C_10
REMARK    6  A    between atoms: C_9  and  C_12
REMARK    7  A    between atoms: C_10  and  O_11
REMARK    8  A    between atoms: C_12  and  C_13
REMARK                            x       y       z     vdW  Elec       q    Type
REMARK                         _______ _______ _______ _____ _____    ______ ____
ROOT
ATOM      1  C   UNL     1      47.102   6.292  13.120  0.00  0.00    +0.000 A 
ATOM      2  C   UNL     1      46.609   5.011  13.378  0.00  0.00    +0.000 A 
ATOM      3  C   UNL     1      45.600   4.485  12.576  0.00  0.00    +0.000 A 
ATOM      4  C   UNL     1      45.099   5.254  11.530  0.00  0.00    +0.000 A 
ATOM      5  N   UNL     1      45.600   6.480  11.225  0.00  0.00    +0.000 NA
ATOM      6  C   UNL     1      46.561   6.977  12.039  0.00  0.00    +0.000 A 
ENDROOT
BRANCH   1   7
ATOM      7  C   UNL     1      48.107   6.943  14.022  0.00  0.00    +0.000 C 
BRANCH   7  10
ATOM      8  O   UNL     1      50.207   6.320  15.743  0.00  0.00    +0.000 OA
ATOM      9  C   UNL     1      49.059   6.263  16.178  0.00  0.00    +0.000 C 
ATOM     10  N   UNL     1      47.966   6.463  15.375  0.00  0.00    +0.000 N 
ATOM     11  H   UNL     1      47.053   6.571  15.805  0.00  0.00    +0.000 HD
BRANCH   9  12
ATOM     12  C   UNL     1      48.785   5.950  17.585  0.00  0.00    +0.000 A 
ATOM     13  C   UNL     1      49.065   4.685  18.083  0.00  0.00    +0.000 A 
ATOM     14  S   UNL     1      48.693   4.506  19.739  0.00  0.00    +0.000 S 
ATOM     15  C   UNL     1      48.186   6.126  19.857  0.00  0.00    +0.000 A 
ATOM     16  N   UNL     1      47.772   6.646  21.044  0.00  0.00    +0.000 NA
ATOM     17  C   UNL     1      47.460   7.899  20.997  0.00  0.00    +0.000 A 
ATOM     18  N   UNL     1      47.510   8.675  19.869  0.00  0.00    +0.000 N 
ATOM     19  C   UNL     1      47.869   8.179  18.640  0.00  0.00    +0.000 A 
ATOM     20  O   UNL     1      47.817   8.876  17.633  0.00  0.00    +0.000 OA
ATOM     21  C   UNL     1      48.269   6.784  18.644  0.00  0.00    +0.000 A 
ATOM     22  H   UNL     1      47.235   9.645  19.902  0.00  0.00    +0.000 HD
ENDBRANCH   9  12
ENDBRANCH   7  10
ENDBRANCH   1   7
BRANCH   4  23
ATOM     23  C   UNL     1      43.916   4.764  10.712  0.00  0.00    +0.000 C 
BRANCH  23  24
ATOM     24  C   UNL     1      42.616   5.013  11.497  0.00  0.00    +0.000 C 
BRANCH  24  25
ATOM     25  O   UNL     1      42.308   6.399  11.627  0.00  0.00    +0.000 OA
ATOM     26  H   UNL     1      41.403   6.443  12.006  0.00  0.00    +0.000 HD
ENDBRANCH  24  25
ENDBRANCH  23  24
BRANCH  23  27
ATOM     27  C   UNL     1      44.056   3.274  10.322  0.00  0.00    +0.000 C 
BRANCH  27  28
ATOM     28  C   UNL     1      45.024   3.000   9.189  0.00  0.00    +0.000 A 
ATOM     29  C   UNL     1      45.469   4.056   8.378  0.00  0.00    +0.000 A 
ATOM     30  C   UNL     1      46.355   3.824   7.327  0.00  0.00    +0.000 A 
ATOM     31  C   UNL     1      46.818   2.536   7.077  0.00  0.00    +0.000 A 
ATOM     32  C   UNL     1      46.386   1.479   7.875  0.00  0.00    +0.000 A 
ATOM     33  C   UNL     1      45.488   1.707   8.923  0.00  0.00    +0.000 A 
ENDBRANCH  27  28
ENDBRANCH  23  27
ENDBRANCH   4  23
TORSDOF 8
ENDMDL
MODEL 3
REMARK VINA RESULT:    -8.262      1.494      1.762
REMARK INTER + INTRA:         -13.089
REMARK INTER:                 -11.778
REMARK INTRA:                  -1.312
REMARK UNBOUND:                -1.205
REMARK  Name = 
REMARK  8 active torsions:
REMARK  status: ('A' for Active; 'I' for Inactive)
REMARK    1  A    between atoms: C_2  and  C_21
REMARK    2  A    between atoms: N_3  and  C_4
REMARK    3  A    between atoms: C_4  and  C_5
REMARK    4  A    between atoms: C_8  and  C_9
REMARK    5  A    between atoms: C_9  and  C_10
REMARK    6  A    between atoms: C_9  and  C_12
REMARK    7  A    between atoms: C_10  and  O_11
REMARK    8  A    between atoms: C_12  and  C_13
REMARK                            x       y       z     vdW  Elec       q    Type
REMARK                         _______ _______ _______ _____ _____    ______ ____
ROOT
ATOM      1  C   UNL     1      46.674   7.214  12.871  0.00  0.00    +0.000 A 
ATOM      2  C   UNL     1      46.662   5.820  12.944  0.00  0.00    +0.000 A 
ATOM      3  C   UNL     1      45.706   5.098  12.235  0.00  0.00    +0.000 A 
ATOM      4  C   UNL     1      44.774   5.789  11.466  0.00  0.00    +0.000 A 
ATOM      5  N   UNL     1      44.799   7.142  11.335  0.00  0.00    +0.000 NA
ATOM      6  C   UNL     1      45.722   7.817  12.058  0.00  0.00    +0.000 A 
ENDROOT
BRANCH   1   7
ATOM      7  C   UNL     1      47.612   8.037  13.703  0.00  0.00    +0.000 C 
BRANCH   7  10
ATOM      8  O   UNL     1      50.131   7.136  14.477  0.00  0.00    +0.000 OA
ATOM      9  C   UNL     1      49.204   7.034  15.276  0.00  0.00    +0.000 C 
ATOM     10  N   UNL     1      47.916   7.366  14.943  0.00  0.00    +0.000 N 
ATOM     11  H   UNL     1      47.218   7.425  15.677  0.00  0.00    +0.000 HD
BRANCH   9  12
ATOM     12  C   UNL     1      49.414   6.523  16.635  0.00  0.00    +0.000 A 
ATOM     13  C   UNL     1      50.132   7.271  17.557  0.00  0.00    +0.000 A 
ATOM     14  S   UNL     1      50.265   6.525  19.086  0.00  0.00    +0.000 S 
ATOM     15  C   UNL     1      49.329   5.197  18.582  0.00  0.00    +0.000 A 
ATOM     16  N   UNL     1      49.020   4.189  19.442  0.00  0.00    +0.000 NA
ATOM     17  C   UNL     1      48.265   3.270  18.938  0.00  0.00    +0.000 A 
ATOM     18  N   UNL     1      47.804   3.259  17.648  0.00  0.00    +0.000 N 
ATOM     19  C   UNL     1      48.134   4.226  16.730  0.00  0.00    +0.000 A 
ATOM     20  O   UNL     1      47.780   4.140  15.560  0.00  0.00    +0.000 OA
ATOM     21  C   UNL     1      48.948   5.305  17.257  0.00  0.00    +0.000 A 
ATOM     22  H   UNL     1      47.231   2.497  17.314  0.00  0.00    +0.000 HD
ENDBRANCH   9  12
ENDBRANCH   7  10
ENDBRANCH   1   7
BRANCH   4  23
ATOM     23  C   UNL     1      43.642   5.045  10.777  0.00  0.00    +0.000 C 
BRANCH  23  24
ATOM     24  C   UNL     1      42.351   5.209  11.599  0.00  0.00    +0.000 C 
BRANCH  24  25
ATOM     25  O   UNL     1      41.936   6.568  11.711  0.00  0.00    +0.000 OA
ATOM     26  H   UNL     1      42.520   7.082  11.111  0.00  0.00    +0.000 HD
ENDBRANCH  24  25
ENDBRANCH  23  24
BRANCH  23  27
ATOM     27  C   UNL     1      43.977   3.552  10.555  0.00  0.00    +0.000 C 
BRANCH  27  28
ATOM     28  C   UNL     1      44.912   3.275   9.395  0.00  0.00    +0.000 A 
ATOM     29  C   UNL     1      45.322   1.961   9.125  0.00  0.00    +0.000 A 
ATOM     30  C   UNL     1      46.187   1.686   8.066  0.00  0.00    +0.000 A 
ATOM     31  C   UNL     1      46.645   2.720   7.255  0.00  0.00    +0.000 A 
ATOM     32  C   UNL     1      46.244   4.029   7.510  0.00  0.00    +0.000 A 
ATOM     33  C   UNL     1      45.386   4.308   8.579  0.00  0.00    +0.000 A 
ENDBRANCH  27  28
ENDBRANCH  23  27
ENDBRANCH   4  23
TORSDOF 8
ENDMDL
MODEL 4
REMARK VINA RESULT:    -7.884      1.641      2.039
REMARK INTER + INTRA:         -12.547
REMARK INTER:                 -11.114
REMARK INTRA:                  -1.433
REMARK UNBOUND:                -1.205
REMARK  Name = 
REMARK  8 active torsions:
REMARK  status: ('A' for Active; 'I' for Inactive)
REMARK    1  A    between atoms: C_2  and  C_21
REMARK    2  A    between atoms: N_3  and  C_4
REMARK    3  A    between atoms: C_4  and  C_5
REMARK    4  A    between atoms: C_8  and  C_9
REMARK    5  A    between atoms: C_9  and  C_10
REMARK    6  A    between atoms: C_9  and  C_12
REMARK    7  A    between atoms: C_10  and  O_11
REMARK    8  A    between atoms: C_12  and  C_13
REMARK                            x       y       z     vdW  Elec       q    Type
REMARK                         _______ _______ _______ _____ _____    ______ ____
ROOT
ATOM      1  C   UNL     1      46.796   3.933  13.868  0.00  0.00    +0.000 A 
ATOM      2  C   UNL     1      46.986   5.244  13.430  0.00  0.00    +0.000 A 
ATOM      3  C   UNL     1      46.186   5.756  12.412  0.00  0.00    +0.000 A 
ATOM      4  C   UNL     1      45.210   4.941  11.847  0.00  0.00    +0.000 A 
ATOM      5  N   UNL     1      44.969   3.679  12.293  0.00  0.00    +0.000 NA
ATOM      6  C   UNL     1      45.781   3.200  13.264  0.00  0.00    +0.000 A 
ENDROOT
BRANCH   1   7
ATOM      7  C   UNL     1      47.704   3.303  14.881  0.00  0.00    +0.000 C 
BRANCH   7  10
ATOM      8  O   UNL     1      46.480   3.096  17.375  0.00  0.00    +0.000 OA
ATOM      9  C   UNL     1      47.336   3.962  17.215  0.00  0.00    +0.000 C 
ATOM     10  N   UNL     1      47.920   4.193  15.996  0.00  0.00    +0.000 N 
ATOM     11  H   UNL     1      48.733   4.798  15.947  0.00  0.00    +0.000 HD
BRANCH   9  12
ATOM     12  C   UNL     1      47.770   4.827  18.319  0.00  0.00    +0.000 A 
ATOM     13  C   UNL     1      46.866   5.692  18.921  0.00  0.00    +0.000 A 
ATOM     14  S   UNL     1      47.544   6.609  20.191  0.00  0.00    +0.000 S 
ATOM     15  C   UNL     1      49.055   5.849  20.008  0.00  0.00    +0.000 A 
ATOM     16  N   UNL     1      50.095   6.151  20.831  0.00  0.00    +0.000 NA
ATOM     17  C   UNL     1      51.168   5.465  20.609  0.00  0.00    +0.000 A 
ATOM     18  N   UNL     1      51.299   4.517  19.628  0.00  0.00    +0.000 N 
ATOM     19  C   UNL     1      50.294   4.219  18.741  0.00  0.00    +0.000 A 
ATOM     20  O   UNL     1      50.473   3.432  17.819  0.00  0.00    +0.000 OA
ATOM     21  C   UNL     1      49.053   4.933  18.973  0.00  0.00    +0.000 A 
ATOM     22  H   UNL     1      52.174   4.031  19.499  0.00  0.00    +0.000 HD
ENDBRANCH   9  12
ENDBRANCH   7  10
ENDBRANCH   1   7
BRANCH   4  23
ATOM     23  C   UNL     1      44.402   5.422  10.653  0.00  0.00    +0.000 C 
BRANCH  23  24
ATOM     24  C   UNL     1      43.235   6.294  11.148  0.00  0.00    +0.000 C 
BRANCH  24  25
ATOM     25  O   UNL     1      42.539   5.713  12.249  0.00  0.00    +0.000 OA
ATOM     26  H   UNL     1      42.247   4.825  11.950  0.00  0.00    +0.000 HD
ENDBRANCH  24  25
ENDBRANCH  23  24
BRANCH  23  27
ATOM     27  C   UNL     1      43.892   4.249   9.784  0.00  0.00    +0.000 C 
BRANCH  27  28
ATOM     28  C   UNL     1      44.950   3.589   8.922  0.00  0.00    +0.000 A 
ATOM     29  C   UNL     1      45.150   2.202   8.997  0.00  0.00    +0.000 A 
ATOM     30  C   UNL     1      46.122   1.578   8.217  0.00  0.00    +0.000 A 
ATOM     31  C   UNL     1      46.901   2.328   7.342  0.00  0.00    +0.000 A 
ATOM     32  C   UNL     1      46.713   3.706   7.257  0.00  0.00    +0.000 A 
ATOM     33  C   UNL     1      45.746   4.336   8.047  0.00  0.00    +0.000 A 
ENDBRANCH  27  28
ENDBRANCH  23  27
ENDBRANCH   4  23
TORSDOF 8
ENDMDL
MODEL 5
REMARK VINA RESULT:    -7.650      1.927      2.477
REMARK INTER + INTRA:         -12.209
REMARK INTER:                 -11.016
REMARK INTRA:                  -1.193
REMARK UNBOUND:                -1.205
REMARK  Name = 
REMARK  8 active torsions:
REMARK  status: ('A' for Active; 'I' for Inactive)
REMARK    1  A    between atoms: C_2  and  C_21
REMARK    2  A    between atoms: N_3  and  C_4
REMARK    3  A    between atoms: C_4  and  C_5
REMARK    4  A    between atoms: C_8  and  C_9
REMARK    5  A    between atoms: C_9  and  C_10
REMARK    6  A    between atoms: C_9  and  C_12
REMARK    7  A    between atoms: C_10  and  O_11
REMARK    8  A    between atoms: C_12  and  C_13
REMARK                            x       y       z     vdW  Elec       q    Type
REMARK                         _______ _______ _______ _____ _____    ______ ____
ROOT
ATOM      1  C   UNL     1      46.898   6.658  13.012  0.00  0.00    +0.000 A 
ATOM      2  C   UNL     1      46.585   5.315  13.230  0.00  0.00    +0.000 A 
ATOM      3  C   UNL     1      45.642   4.685  12.422  0.00  0.00    +0.000 A 
ATOM      4  C   UNL     1      45.025   5.415  11.410  0.00  0.00    +0.000 A 
ATOM      5  N   UNL     1      45.352   6.707  11.143  0.00  0.00    +0.000 NA
ATOM      6  C   UNL     1      46.252   7.301  11.963  0.00  0.00    +0.000 A 
ENDROOT
BRANCH   1   7
ATOM      7  C   UNL     1      47.822   7.408  13.924  0.00  0.00    +0.000 C 
BRANCH   7  10
ATOM      8  O   UNL     1      49.373   8.204  16.096  0.00  0.00    +0.000 OA
ATOM      9  C   UNL     1      49.059   7.020  16.006  0.00  0.00    +0.000 C 
ATOM     10  N   UNL     1      48.377   6.528  14.923  0.00  0.00    +0.000 N 
ATOM     11  H   UNL     1      47.995   5.589  14.968  0.00  0.00    +0.000 HD
BRANCH   9  12
ATOM     12  C   UNL     1      49.418   6.049  17.046  0.00  0.00    +0.000 A 
ATOM     13  C   UNL     1      48.427   5.451  17.812  0.00  0.00    +0.000 A 
ATOM     14  S   UNL     1      49.029   4.342  18.961  0.00  0.00    +0.000 S 
ATOM     15  C   UNL     1      50.631   4.590  18.444  0.00  0.00    +0.000 A 
ATOM     16  N   UNL     1      51.662   3.898  18.999  0.00  0.00    +0.000 NA
ATOM     17  C   UNL     1      52.817   4.153  18.479  0.00  0.00    +0.000 A 
ATOM     18  N   UNL     1      53.036   5.047  17.464  0.00  0.00    +0.000 N 
ATOM     19  C   UNL     1      52.034   5.805  16.910  0.00  0.00    +0.000 A 
ATOM     20  O   UNL     1      52.276   6.661  16.067  0.00  0.00    +0.000 OA
ATOM     21  C   UNL     1      50.709   5.529  17.431  0.00  0.00    +0.000 A 
ATOM     22  H   UNL     1      53.970   5.209  17.116  0.00  0.00    +0.000 HD
ENDBRANCH   9  12
ENDBRANCH   7  10
ENDBRANCH   1   7
BRANCH   4  23
ATOM     23  C   UNL     1      43.905   4.798  10.589  0.00  0.00    +0.000 C 
BRANCH  23  24
ATOM     24  C   UNL     1      42.571   4.977  11.335  0.00  0.00    +0.000 C 
BRANCH  24  25
ATOM     25  O   UNL     1      42.286   6.342  11.637  0.00  0.00    +0.000 OA
ATOM     26  H   UNL     1      42.996   6.640  12.245  0.00  0.00    +0.000 HD
ENDBRANCH  24  25
ENDBRANCH  23  24
BRANCH  23  27
ATOM     27  C   UNL     1      44.170   3.309  10.270  0.00  0.00    +0.000 C 
BRANCH  27  28
ATOM     28  C   UNL     1      45.117   3.066   9.111  0.00  0.00    +0.000 A 
ATOM     29  C   UNL     1      45.566   1.765   8.835  0.00  0.00    +0.000 A 
ATOM     30  C   UNL     1      46.442   1.522   7.778  0.00  0.00    +0.000 A 
ATOM     31  C   UNL     1      46.873   2.573   6.974  0.00  0.00    +0.000 A 
ATOM     32  C   UNL     1      46.434   3.869   7.236  0.00  0.00    +0.000 A 
ATOM     33  C   UNL     1      45.564   4.117   8.303  0.00  0.00    +0.000 A 
ENDBRANCH  27  28
ENDBRANCH  23  27
ENDBRANCH   4  23
TORSDOF 8
ENDMDL
MODEL 6
REMARK VINA RESULT:    -7.244      1.947      2.665
REMARK INTER + INTRA:         -11.626
REMARK INTER:                  -9.980
REMARK INTRA:                  -1.646
REMARK UNBOUND:                -1.205
REMARK  Name = 
REMARK  8 active torsions:
REMARK  status: ('A' for Active; 'I' for Inactive)
REMARK    1  A    between atoms: C_2  and  C_21
REMARK    2  A    between atoms: N_3  and  C_4
REMARK    3  A    between atoms: C_4  and  C_5
REMARK    4  A    between atoms: C_8  and  C_9
REMARK    5  A    between atoms: C_9  and  C_10
REMARK    6  A    between atoms: C_9  and  C_12
REMARK    7  A    between atoms: C_10  and  O_11
REMARK    8  A    between atoms: C_12  and  C_13
REMARK                            x       y       z     vdW  Elec       q    Type
REMARK                         _______ _______ _______ _____ _____    ______ ____
ROOT
ATOM      1  C   UNL     1      48.457   8.021  13.373  0.00  0.00    +0.000 A 
ATOM      2  C   UNL     1      48.652   7.239  12.234  0.00  0.00    +0.000 A 
ATOM      3  C   UNL     1      47.561   6.871  11.452  0.00  0.00    +0.000 A 
ATOM      4  C   UNL     1      46.289   7.292  11.829  0.00  0.00    +0.000 A 
ATOM      5  N   UNL     1      46.079   8.099  12.903  0.00  0.00    +0.000 NA
ATOM      6  C   UNL     1      47.156   8.417  13.659  0.00  0.00    +0.000 A 
ENDROOT
BRANCH   1   7
ATOM      7  C   UNL     1      49.585   8.347  14.306  0.00  0.00    +0.000 C 
BRANCH   7  10
ATOM      8  O   UNL     1      48.780   8.727  16.945  0.00  0.00    +0.000 OA
ATOM      9  C   UNL     1      49.176   7.613  16.610  0.00  0.00    +0.000 C 
ATOM     10  N   UNL     1      49.677   7.365  15.359  0.00  0.00    +0.000 N 
ATOM     11  H   UNL     1      49.835   6.404  15.074  0.00  0.00    +0.000 HD
BRANCH   9  12
ATOM     12  C   UNL     1      49.163   6.480  17.543  0.00  0.00    +0.000 A 
ATOM     13  C   UNL     1      49.735   6.608  18.801  0.00  0.00    +0.000 A 
ATOM     14  S   UNL     1      49.616   5.195  19.751  0.00  0.00    +0.000 S 
ATOM     15  C   UNL     1      48.757   4.379  18.530  0.00  0.00    +0.000 A 
ATOM     16  N   UNL     1      48.305   3.110  18.719  0.00  0.00    +0.000 NA
ATOM     17  C   UNL     1      47.629   2.631  17.728  0.00  0.00    +0.000 A 
ATOM     18  N   UNL     1      47.377   3.300  16.559  0.00  0.00    +0.000 N 
ATOM     19  C   UNL     1      47.858   4.561  16.304  0.00  0.00    +0.000 A 
ATOM     20  O   UNL     1      47.691   5.097  15.214  0.00  0.00    +0.000 OA
ATOM     21  C   UNL     1      48.591   5.162  17.402  0.00  0.00    +0.000 A 
ATOM     22  H   UNL     1      46.854   2.858  15.817  0.00  0.00    +0.000 HD
ENDBRANCH   9  12
ENDBRANCH   7  10
ENDBRANCH   1   7
BRANCH   4  23
ATOM     23  C   UNL     1      45.062   6.811  11.072  0.00  0.00    +0.000 C 
BRANCH  23  24
ATOM     24  C   UNL     1      43.863   7.710  11.421  0.00  0.00    +0.000 C 
BRANCH  24  25
ATOM     25  O   UNL     1      42.612   7.120  11.077  0.00  0.00    +0.000 OA
ATOM     26  H   UNL     1      42.355   6.558  11.840  0.00  0.00    +0.000 HD
ENDBRANCH  24  25
ENDBRANCH  23  24
BRANCH  23  27
ATOM     27  C   UNL     1      44.747   5.324  11.359  0.00  0.00    +0.000 C 
BRANCH  27  28
ATOM     28  C   UNL     1      45.029   4.381  10.207  0.00  0.00    +0.000 A 
ATOM     29  C   UNL     1      45.651   4.861   9.044  0.00  0.00    +0.000 A 
ATOM     30  C   UNL     1      45.913   4.009   7.971  0.00  0.00    +0.000 A 
ATOM     31  C   UNL     1      45.566   2.664   8.048  0.00  0.00    +0.000 A 
ATOM     32  C   UNL     1      44.949   2.174   9.197  0.00  0.00    +0.000 A 
ATOM     33  C   UNL     1      44.675   3.028  10.270  0.00  0.00    +0.000 A 
ENDBRANCH  27  28
ENDBRANCH  23  27
ENDBRANCH   4  23
TORSDOF 8
ENDMDL
MODEL 7
REMARK VINA RESULT:    -7.023      1.695      2.284
REMARK INTER + INTRA:         -11.307
REMARK INTER:                 -10.496
REMARK INTRA:                  -0.811
REMARK UNBOUND:                -1.205
REMARK  Name = 
REMARK  8 active torsions:
REMARK  status: ('A' for Active; 'I' for Inactive)
REMARK    1  A    between atoms: C_2  and  C_21
REMARK    2  A    between atoms: N_3  and  C_4
REMARK    3  A    between atoms: C_4  and  C_5
REMARK    4  A    between atoms: C_8  and  C_9
REMARK    5  A    between atoms: C_9  and  C_10
REMARK    6  A    between atoms: C_9  and  C_12
REMARK    7  A    between atoms: C_10  and  O_11
REMARK    8  A    between atoms: C_12  and  C_13
REMARK                            x       y       z     vdW  Elec       q    Type
REMARK                         _______ _______ _______ _____ _____    ______ ____
ROOT
ATOM      1  C   UNL     1      46.187   7.313  12.357  0.00  0.00    +0.000 A 
ATOM      2  C   UNL     1      45.166   6.635  13.024  0.00  0.00    +0.000 A 
ATOM      3  C   UNL     1      44.563   5.532  12.425  0.00  0.00    +0.000 A 
ATOM      4  C   UNL     1      44.993   5.131  11.164  0.00  0.00    +0.000 A 
ATOM      5  N   UNL     1      46.022   5.741  10.518  0.00  0.00    +0.000 NA
ATOM      6  C   UNL     1      46.570   6.826  11.113  0.00  0.00    +0.000 A 
ENDROOT
BRANCH   1   7
ATOM      7  C   UNL     1      46.789   8.570  12.912  0.00  0.00    +0.000 C 
BRANCH   7  10
ATOM      8  O   UNL     1      49.274   8.911  14.123  0.00  0.00    +0.000 OA
ATOM      9  C   UNL     1      48.300   8.699  14.840  0.00  0.00    +0.000 C 
ATOM     10  N   UNL     1      47.059   8.427  14.321  0.00  0.00    +0.000 N 
ATOM     11  H   UNL     1      46.257   8.424  14.942  0.00  0.00    +0.000 HD
BRANCH   9  12
ATOM     12  C   UNL     1      48.408   8.695  16.304  0.00  0.00    +0.000 A 
ATOM     13  C   UNL     1      48.067   9.828  17.029  0.00  0.00    +0.000 A 
ATOM     14  S   UNL     1      48.245   9.636  18.716  0.00  0.00    +0.000 S 
ATOM     15  C   UNL     1      48.741   8.019  18.536  0.00  0.00    +0.000 A 
ATOM     16  N   UNL     1      49.017   7.246  19.621  0.00  0.00    +0.000 NA
ATOM     17  C   UNL     1      49.337   6.026  19.339  0.00  0.00    +0.000 A 
ATOM     18  N   UNL     1      49.421   5.514  18.071  0.00  0.00    +0.000 N 
ATOM     19  C   UNL     1      49.204   6.271  16.946  0.00  0.00    +0.000 A 
ATOM     20  O   UNL     1      49.376   5.808  15.825  0.00  0.00    +0.000 OA
ATOM     21  C   UNL     1      48.802   7.640  17.208  0.00  0.00    +0.000 A 
ATOM     22  H   UNL     1      49.694   4.553  17.923  0.00  0.00    +0.000 HD
ENDBRANCH   9  12
ENDBRANCH   7  10
ENDBRANCH   1   7
BRANCH   4  23
ATOM     23  C   UNL     1      44.278   4.010  10.428  0.00  0.00    +0.000 C 
BRANCH  23  24
ATOM     24  C   UNL     1      43.005   3.625  11.201  0.00  0.00    +0.000 C 
BRANCH  24  25
ATOM     25  O   UNL     1      43.001   2.260  11.615  0.00  0.00    +0.000 OA
ATOM     26  H   UNL     1      43.933   2.036  11.825  0.00  0.00    +0.000 HD
ENDBRANCH  24  25
ENDBRANCH  23  24
BRANCH  23  27
ATOM     27  C   UNL     1      45.191   2.781  10.210  0.00  0.00    +0.000 C 
BRANCH  27  28
ATOM     28  C   UNL     1      45.759   2.651   8.810  0.00  0.00    +0.000 A 
ATOM     29  C   UNL     1      45.800   3.770   7.964  0.00  0.00    +0.000 A 
ATOM     30  C   UNL     1      46.313   3.669   6.671  0.00  0.00    +0.000 A 
ATOM     31  C   UNL     1      46.802   2.452   6.209  0.00  0.00    +0.000 A 
ATOM     32  C   UNL     1      46.769   1.333   7.039  0.00  0.00    +0.000 A 
ATOM     33  C   UNL     1      46.244   1.429   8.332  0.00  0.00    +0.000 A 
ENDBRANCH  27  28
ENDBRANCH  23  27
ENDBRANCH   4  23
TORSDOF 8
ENDMDL
MODEL 8
REMARK VINA RESULT:    -6.937      2.720      3.542
REMARK INTER + INTRA:         -11.184
REMARK INTER:                  -9.817
REMARK INTRA:                  -1.367
REMARK UNBOUND:                -1.205
REMARK  Name = 
REMARK  8 active torsions:
REMARK  status: ('A' for Active; 'I' for Inactive)
REMARK    1  A    between atoms: C_2  and  C_21
REMARK    2  A    between atoms: N_3  and  C_4
REMARK    3  A    between atoms: C_4  and  C_5
REMARK    4  A    between atoms: C_8  and  C_9
REMARK    5  A    between atoms: C_9  and  C_10
REMARK    6  A    between atoms: C_9  and  C_12
REMARK    7  A    between atoms: C_10  and  O_11
REMARK    8  A    between atoms: C_12  and  C_13
REMARK                            x       y       z     vdW  Elec       q    Type
REMARK                         _______ _______ _______ _____ _____    ______ ____
ROOT
ATOM      1  C   UNL     1      46.786   4.550  14.859  0.00  0.00    +0.000 A 
ATOM      2  C   UNL     1      47.574   5.520  14.237  0.00  0.00    +0.000 A 
ATOM      3  C   UNL     1      47.203   6.017  12.991  0.00  0.00    +0.000 A 
ATOM      4  C   UNL     1      46.048   5.528  12.387  0.00  0.00    +0.000 A 
ATOM      5  N   UNL     1      45.235   4.624  12.996  0.00  0.00    +0.000 NA
ATOM      6  C   UNL     1      45.637   4.140  14.195  0.00  0.00    +0.000 A 
ENDROOT
BRANCH   1   7
ATOM      7  C   UNL     1      47.204   3.907  16.148  0.00  0.00    +0.000 C 
BRANCH   7  10
ATOM      8  O   UNL     1      48.316   4.576  18.612  0.00  0.00    +0.000 OA
ATOM      9  C   UNL     1      49.073   4.374  17.666  0.00  0.00    +0.000 C 
ATOM     10  N   UNL     1      48.606   4.132  16.399  0.00  0.00    +0.000 N 
ATOM     11  H   UNL     1      49.255   3.808  15.690  0.00  0.00    +0.000 HD
BRANCH   9  12
ATOM     12  C   UNL     1      50.531   4.406  17.827  0.00  0.00    +0.000 A 
ATOM     13  C   UNL     1      51.163   5.583  18.206  0.00  0.00    +0.000 A 
ATOM     14  S   UNL     1      52.856   5.430  18.354  0.00  0.00    +0.000 S 
ATOM     15  C   UNL     1      52.798   3.776  17.961  0.00  0.00    +0.000 A 
ATOM     16  N   UNL     1      53.927   3.017  17.949  0.00  0.00    +0.000 NA
ATOM     17  C   UNL     1      53.729   1.770  17.680  0.00  0.00    +0.000 A 
ATOM     18  N   UNL     1      52.506   1.214  17.405  0.00  0.00    +0.000 N 
ATOM     19  C   UNL     1      51.348   1.951  17.353  0.00  0.00    +0.000 A 
ATOM     20  O   UNL     1      50.286   1.443  17.016  0.00  0.00    +0.000 OA
ATOM     21  C   UNL     1      51.509   3.353  17.689  0.00  0.00    +0.000 A 
ATOM     22  H   UNL     1      52.427   0.232  17.185  0.00  0.00    +0.000 HD
ENDBRANCH   9  12
ENDBRANCH   7  10
ENDBRANCH   1   7
BRANCH   4  23
ATOM     23  C   UNL     1      45.677   5.954  10.976  0.00  0.00    +0.000 C 
BRANCH  23  24
ATOM     24  C   UNL     1      45.119   7.388  11.008  0.00  0.00    +0.000 C 
BRANCH  24  25
ATOM     25  O   UNL     1      44.119   7.568  12.009  0.00  0.00    +0.000 OA
ATOM     26  H   UNL     1      43.700   8.436  11.824  0.00  0.00    +0.000 HD
ENDBRANCH  24  25
ENDBRANCH  23  24
BRANCH  23  27
ATOM     27  C   UNL     1      44.674   4.979  10.317  0.00  0.00    +0.000 C 
BRANCH  27  28
ATOM     28  C   UNL     1      45.286   4.013   9.323  0.00  0.00    +0.000 A 
ATOM     29  C   UNL     1      45.983   4.503   8.208  0.00  0.00    +0.000 A 
ATOM     30  C   UNL     1      46.547   3.630   7.278  0.00  0.00    +0.000 A 
ATOM     31  C   UNL     1      46.434   2.255   7.456  0.00  0.00    +0.000 A 
ATOM     32  C   UNL     1      45.746   1.754   8.559  0.00  0.00    +0.000 A 
ATOM     33  C   UNL     1      45.169   2.628   9.486  0.00  0.00    +0.000 A 
ENDBRANCH  27  28
ENDBRANCH  23  27
ENDBRANCH   4  23
TORSDOF 8
ENDMDL
MODEL 9
REMARK VINA RESULT:    -6.899      3.153      8.933
REMARK INTER + INTRA:         -11.130
REMARK INTER:                  -9.928
REMARK INTRA:                  -1.202
REMARK UNBOUND:                -1.205
REMARK  Name = 
REMARK  8 active torsions:
REMARK  status: ('A' for Active; 'I' for Inactive)
REMARK    1  A    between atoms: C_2  and  C_21
REMARK    2  A    between atoms: N_3  and  C_4
REMARK    3  A    between atoms: C_4  and  C_5
REMARK    4  A    between atoms: C_8  and  C_9
REMARK    5  A    between atoms: C_9  and  C_10
REMARK    6  A    between atoms: C_9  and  C_12
REMARK    7  A    between atoms: C_10  and  O_11
REMARK    8  A    between atoms: C_12  and  C_13
REMARK                            x       y       z     vdW  Elec       q    Type
REMARK                         _______ _______ _______ _____ _____    ______ ____
ROOT
ATOM      1  C   UNL     1      47.861   7.953  14.004  0.00  0.00    +0.000 A 
ATOM      2  C   UNL     1      47.915   8.796  15.115  0.00  0.00    +0.000 A 
ATOM      3  C   UNL     1      48.886   8.592  16.092  0.00  0.00    +0.000 A 
ATOM      4  C   UNL     1      49.785   7.540  15.939  0.00  0.00    +0.000 A 
ATOM      5  N   UNL     1      49.787   6.739  14.840  0.00  0.00    +0.000 NA
ATOM      6  C   UNL     1      48.815   6.946  13.922  0.00  0.00    +0.000 A 
ENDROOT
BRANCH   1   7
ATOM      7  C   UNL     1      46.767   8.065  12.985  0.00  0.00    +0.000 C 
BRANCH   7  10
ATOM      8  O   UNL     1      44.612   7.591  11.285  0.00  0.00    +0.000 OA
ATOM      9  C   UNL     1      45.118   6.635  11.866  0.00  0.00    +0.000 C 
ATOM     10  N   UNL     1      46.119   6.791  12.790  0.00  0.00    +0.000 N 
ATOM     11  H   UNL     1      46.617   5.970  13.119  0.00  0.00    +0.000 HD
BRANCH   9  12
ATOM     12  C   UNL     1      44.660   5.261  11.628  0.00  0.00    +0.000 A 
ATOM     13  C   UNL     1      43.921   4.596  12.596  0.00  0.00    +0.000 A 
ATOM     14  S   UNL     1      43.467   3.015  12.141  0.00  0.00    +0.000 S 
ATOM     15  C   UNL     1      44.206   3.181  10.617  0.00  0.00    +0.000 A 
ATOM     16  N   UNL     1      44.148   2.181   9.697  0.00  0.00    +0.000 NA
ATOM     17  C   UNL     1      44.711   2.461   8.569  0.00  0.00    +0.000 A 
ATOM     18  N   UNL     1      45.339   3.644   8.282  0.00  0.00    +0.000 N 
ATOM     19  C   UNL     1      45.468   4.660   9.197  0.00  0.00    +0.000 A 
ATOM     20  O   UNL     1      46.114   5.670   8.940  0.00  0.00    +0.000 OA
ATOM     21  C   UNL     1      44.817   4.413  10.470  0.00  0.00    +0.000 A 
ATOM     22  H   UNL     1      45.774   3.789   7.382  0.00  0.00    +0.000 HD
ENDBRANCH   9  12
ENDBRANCH   7  10
ENDBRANCH   1   7
BRANCH   4  23
ATOM     23  C   UNL     1      50.778   7.210  17.041  0.00  0.00    +0.000 C 
BRANCH  23  24
ATOM     24  C   UNL     1      51.929   6.374  16.454  0.00  0.00    +0.000 C 
BRANCH  24  25
ATOM     25  O   UNL     1      52.587   7.024  15.369  0.00  0.00    +0.000 OA
ATOM     26  H   UNL     1      52.427   7.985  15.489  0.00  0.00    +0.000 HD
ENDBRANCH  24  25
ENDBRANCH  23  24
BRANCH  23  27
ATOM     27  C   UNL     1      50.109   6.482  18.229  0.00  0.00    +0.000 C 
BRANCH  27  28
ATOM     28  C   UNL     1      49.340   5.230  17.856  0.00  0.00    +0.000 A 
ATOM     29  C   UNL     1      47.946   5.285  17.702  0.00  0.00    +0.000 A 
ATOM     30  C   UNL     1      47.220   4.142  17.365  0.00  0.00    +0.000 A 
ATOM     31  C   UNL     1      47.877   2.933  17.167  0.00  0.00    +0.000 A 
ATOM     32  C   UNL     1      49.261   2.864  17.316  0.00  0.00    +0.000 A 
ATOM     33  C   UNL     1      49.990   4.006  17.665  0.00  0.00    +0.000 A 
ENDBRANCH  27  28
ENDBRANCH  23  27
ENDBRANCH   4  23
TORSDOF 8
ENDMDL
