MODEL 1
REMARK VINA RESULT:    -8.593      0.000      0.000
REMARK INTER + INTRA:         -14.139
REMARK INTER:                 -12.611
REMARK INTRA:                  -1.528
REMARK UNBOUND:                -1.528
REMARK  Name = 
REMARK  9 active torsions:
REMARK  status: ('A' for Active; 'I' for Inactive)
REMARK    1  A    between atoms: C_1  and  O_2
REMARK    2  A    between atoms: O_2  and  C_3
REMARK    3  A    between atoms: C_10  and  C_11
REMARK    4  A    between atoms: N_13  and  C_14
REMARK    5  A    between atoms: C_14  and  C_15
REMARK    6  A    between atoms: C_18  and  C_19
REMARK    7  A    between atoms: C_19  and  N_20
REMARK    8  A    between atoms: N_20  and  C_21
REMARK    9  A    between atoms: C_21  and  C_22
REMARK                            x       y       z     vdW  Elec       q    Type
REMARK                         _______ _______ _______ _____ _____    ______ ____
ROOT
ATOM      1  C   UNL     1      46.886   7.969  12.868  0.00  0.00    +0.000 C 
ENDROOT
BRANCH   1   2
ATOM      2  C   UNL     1      46.027   6.967  12.136  0.00  0.00    +0.000 A 
ATOM      3  C   UNL     1      44.861   6.462  12.727  0.00  0.00    +0.000 A 
ATOM      4  C   UNL     1      44.096   5.489  12.076  0.00  0.00    +0.000 A 
ATOM      5  C   UNL     1      44.483   4.991  10.823  0.00  0.00    +0.000 A 
ATOM      6  C   UNL     1      45.648   5.496  10.232  0.00  0.00    +0.000 A 
ATOM      7  C   UNL     1      46.415   6.470  10.883  0.00  0.00    +0.000 A 
BRANCH   5   8
ATOM      8  C   UNL     1      43.662   3.922  10.134  0.00  0.00    +0.000 C 
BRANCH   8   9
ATOM      9  N   UNL     1      44.281   3.522   8.873  0.00  0.00    +0.000 NA
ATOM     10  H   UNL     1      44.932   4.250   8.583  0.00  0.00    +0.000 HD
BRANCH   9  11
ATOM     11  C   UNL     1      44.994   2.252   8.991  0.00  0.00    +0.000 C 
BRANCH  11  12
ATOM     12  C   UNL     1      46.039   2.134   7.917  0.00  0.00    +0.000 A 
ATOM     13  C   UNL     1      46.259   3.165   7.003  0.00  0.00    +0.000 A 
ATOM     14  C   UNL     1      47.245   3.004   6.050  0.00  0.00    +0.000 A 
ATOM     15  N   UNL     1      47.994   1.886   5.962  0.00  0.00    +0.000 NA
ATOM     16  N   UNL     1      47.780   0.870   6.840  0.00  0.00    +0.000 NA
ATOM     17  C   UNL     1      46.827   1.001   7.788  0.00  0.00    +0.000 A 
ENDBRANCH  11  12
ENDBRANCH   9  11
ENDBRANCH   8   9
ENDBRANCH   5   8
ENDBRANCH   1   2
BRANCH   1  20
ATOM     18  C   UNL     1      48.519   6.837  14.330  0.00  0.00    +0.000 C 
ATOM     19  O   UNL     1      49.328   6.731  13.409  0.00  0.00    +0.000 OA
ATOM     20  N   UNL     1      47.307   7.439  14.142  0.00  0.00    +0.000 N 
ATOM     21  H   UNL     1      46.679   7.562  14.924  0.00  0.00    +0.000 HD
BRANCH  18  29
ATOM     22  C   UNL     1      47.236   4.218  16.167  0.00  0.00    +0.000 A 
ATOM     23  N   UNL     1      46.982   3.231  17.048  0.00  0.00    +0.000 NA
ATOM     24  C   UNL     1      47.710   3.184  18.167  0.00  0.00    +0.000 A 
ATOM     25  N   UNL     1      48.672   4.027  18.533  0.00  0.00    +0.000 NA
ATOM     26  C   UNL     1      48.899   4.990  17.625  0.00  0.00    +0.000 A 
ATOM     27  S   UNL     1      50.086   6.165  17.930  0.00  0.00    +0.000 S 
ATOM     28  C   UNL     1      49.796   6.918  16.434  0.00  0.00    +0.000 A 
ATOM     29  C   UNL     1      48.811   6.300  15.673  0.00  0.00    +0.000 A 
ATOM     30  C   UNL     1      48.251   5.165  16.405  0.00  0.00    +0.000 A 
BRANCH  22  32
ATOM     31  C   UNL     1      46.998   3.612  13.905  0.00  0.00    +0.000 C 
ATOM     32  O   UNL     1      46.460   4.300  15.029  0.00  0.00    +0.000 OA
ENDBRANCH  22  32
ENDBRANCH  18  29
ENDBRANCH   1  20
TORSDOF 8
ENDMDL
MODEL 2
REMARK VINA RESULT:    -7.842      1.539      1.943
REMARK INTER + INTRA:         -13.037
REMARK INTER:                 -11.996
REMARK INTRA:                  -1.041
REMARK UNBOUND:                -1.528
REMARK  Name = 
REMARK  9 active torsions:
REMARK  status: ('A' for Active; 'I' for Inactive)
REMARK    1  A    between atoms: C_1  and  O_2
REMARK    2  A    between atoms: O_2  and  C_3
REMARK    3  A    between atoms: C_10  and  C_11
REMARK    4  A    between atoms: N_13  and  C_14
REMARK    5  A    between atoms: C_14  and  C_15
REMARK    6  A    between atoms: C_18  and  C_19
REMARK    7  A    between atoms: C_19  and  N_20
REMARK    8  A    between atoms: N_20  and  C_21
REMARK    9  A    between atoms: C_21  and  C_22
REMARK                            x       y       z     vdW  Elec       q    Type
REMARK                         _______ _______ _______ _____ _____    ______ ____
ROOT
ATOM      1  C   UNL     1      48.052   7.283  13.278  0.00  0.00    +0.000 C 
ENDROOT
BRANCH   1   2
ATOM      2  C   UNL     1      47.105   6.258  12.705  0.00  0.00    +0.000 A 
ATOM      3  C   UNL     1      46.379   6.534  11.538  0.00  0.00    +0.000 A 
ATOM      4  C   UNL     1      45.456   5.610  11.038  0.00  0.00    +0.000 A 
ATOM      5  C   UNL     1      45.230   4.393  11.696  0.00  0.00    +0.000 A 
ATOM      6  C   UNL     1      45.955   4.118  12.863  0.00  0.00    +0.000 A 
ATOM      7  C   UNL     1      46.879   5.042  13.364  0.00  0.00    +0.000 A 
BRANCH   5   8
ATOM      8  C   UNL     1      44.213   3.408  11.162  0.00  0.00    +0.000 C 
BRANCH   8   9
ATOM      9  N   UNL     1      44.831   2.482  10.216  0.00  0.00    +0.000 NA
ATOM     10  H   UNL     1      44.386   1.570  10.312  0.00  0.00    +0.000 HD
BRANCH   9  11
ATOM     11  C   UNL     1      44.702   2.942   8.835  0.00  0.00    +0.000 C 
BRANCH  11  12
ATOM     12  C   UNL     1      45.816   2.390   7.991  0.00  0.00    +0.000 A 
ATOM     13  C   UNL     1      46.487   3.187   7.064  0.00  0.00    +0.000 A 
ATOM     14  C   UNL     1      47.514   2.625   6.331  0.00  0.00    +0.000 A 
ATOM     15  N   UNL     1      47.884   1.336   6.468  0.00  0.00    +0.000 NA
ATOM     16  N   UNL     1      47.229   0.546   7.361  0.00  0.00    +0.000 NA
ATOM     17  C   UNL     1      46.225   1.069   8.098  0.00  0.00    +0.000 A 
ENDBRANCH  11  12
ENDBRANCH   9  11
ENDBRANCH   8   9
ENDBRANCH   5   8
ENDBRANCH   1   2
BRANCH   1  20
ATOM     18  C   UNL     1      48.982   6.979  15.543  0.00  0.00    +0.000 C 
ATOM     19  O   UNL     1      50.072   6.634  15.092  0.00  0.00    +0.000 OA
ATOM     20  N   UNL     1      47.949   7.320  14.716  0.00  0.00    +0.000 N 
ATOM     21  H   UNL     1      47.077   7.650  15.108  0.00  0.00    +0.000 HD
BRANCH  18  29
ATOM     22  C   UNL     1      48.876   4.565  18.001  0.00  0.00    +0.000 A 
ATOM     23  N   UNL     1      48.859   3.856  19.147  0.00  0.00    +0.000 NA
ATOM     24  C   UNL     1      48.670   4.516  20.292  0.00  0.00    +0.000 A 
ATOM     25  N   UNL     1      48.477   5.823  20.442  0.00  0.00    +0.000 NA
ATOM     26  C   UNL     1      48.509   6.494  19.278  0.00  0.00    +0.000 A 
ATOM     27  S   UNL     1      48.268   8.175  19.276  0.00  0.00    +0.000 S 
ATOM     28  C   UNL     1      48.470   8.250  17.590  0.00  0.00    +0.000 A 
ATOM     29  C   UNL     1      48.731   7.020  16.997  0.00  0.00    +0.000 A 
ATOM     30  C   UNL     1      48.718   5.964  18.009  0.00  0.00    +0.000 A 
BRANCH  22  32
ATOM     31  C   UNL     1      47.837   3.261  16.340  0.00  0.00    +0.000 C 
ATOM     32  O   UNL     1      49.027   3.887  16.809  0.00  0.00    +0.000 OA
ENDBRANCH  22  32
ENDBRANCH  18  29
ENDBRANCH   1  20
TORSDOF 8
ENDMDL
MODEL 3
REMARK VINA RESULT:    -7.450      2.025      3.711
REMARK INTER + INTRA:         -12.463
REMARK INTER:                 -11.087
REMARK INTRA:                  -1.376
REMARK UNBOUND:                -1.528
REMARK  Name = 
REMARK  9 active torsions:
REMARK  status: ('A' for Active; 'I' for Inactive)
REMARK    1  A    between atoms: C_1  and  O_2
REMARK    2  A    between atoms: O_2  and  C_3
REMARK    3  A    between atoms: C_10  and  C_11
REMARK    4  A    between atoms: N_13  and  C_14
REMARK    5  A    between atoms: C_14  and  C_15
REMARK    6  A    between atoms: C_18  and  C_19
REMARK    7  A    between atoms: C_19  and  N_20
REMARK    8  A    between atoms: N_20  and  C_21
REMARK    9  A    between atoms: C_21  and  C_22
REMARK                            x       y       z     vdW  Elec       q    Type
REMARK                         _______ _______ _______ _____ _____    ______ ____
ROOT
ATOM      1  C   UNL     1      47.138   4.522  14.847  0.00  0.00    +0.000 C 
ENDROOT
BRANCH   1   2
ATOM      2  C   UNL     1      46.273   4.518  13.611  0.00  0.00    +0.000 A 
ATOM      3  C   UNL     1      45.697   5.707  13.142  0.00  0.00    +0.000 A 
ATOM      4  C   UNL     1      44.846   5.697  12.032  0.00  0.00    +0.000 A 
ATOM      5  C   UNL     1      44.542   4.498  11.371  0.00  0.00    +0.000 A 
ATOM      6  C   UNL     1      45.117   3.310  11.841  0.00  0.00    +0.000 A 
ATOM      7  C   UNL     1      45.969   3.319  12.951  0.00  0.00    +0.000 A 
BRANCH   5   8
ATOM      8  C   UNL     1      43.602   4.492  10.185  0.00  0.00    +0.000 C 
BRANCH   8   9
ATOM      9  N   UNL     1      44.065   3.561   9.158  0.00  0.00    +0.000 NA
ATOM     10  H   UNL     1      43.284   3.340   8.541  0.00  0.00    +0.000 HD
BRANCH   9  11
ATOM     11  C   UNL     1      45.165   4.115   8.372  0.00  0.00    +0.000 C 
BRANCH  11  12
ATOM     12  C   UNL     1      46.033   3.012   7.835  0.00  0.00    +0.000 A 
ATOM     13  C   UNL     1      46.918   3.234   6.780  0.00  0.00    +0.000 A 
ATOM     14  C   UNL     1      47.702   2.184   6.343  0.00  0.00    +0.000 A 
ATOM     15  N   UNL     1      47.638   0.953   6.889  0.00  0.00    +0.000 NA
ATOM     16  N   UNL     1      46.770   0.722   7.911  0.00  0.00    +0.000 NA
ATOM     17  C   UNL     1      45.996   1.731   8.365  0.00  0.00    +0.000 A 
ENDBRANCH  11  12
ENDBRANCH   9  11
ENDBRANCH   8   9
ENDBRANCH   5   8
ENDBRANCH   1   2
BRANCH   1  20
ATOM     18  C   UNL     1      48.702   6.109  15.907  0.00  0.00    +0.000 C 
ATOM     19  O   UNL     1      49.368   5.192  16.385  0.00  0.00    +0.000 OA
ATOM     20  N   UNL     1      47.602   5.856  15.137  0.00  0.00    +0.000 N 
ATOM     21  H   UNL     1      47.098   6.623  14.711  0.00  0.00    +0.000 HD
BRANCH  18  29
ATOM     22  C   UNL     1      48.707   8.939  13.941  0.00  0.00    +0.000 A 
ATOM     23  N   UNL     1      48.720  10.189  13.436  0.00  0.00    +0.000 NA
ATOM     24  C   UNL     1      49.047  11.194  14.253  0.00  0.00    +0.000 A 
ATOM     25  N   UNL     1      49.383  11.107  15.536  0.00  0.00    +0.000 NA
ATOM     26  C   UNL     1      49.350   9.848  16.003  0.00  0.00    +0.000 A 
ATOM     27  S   UNL     1      49.763   9.544  17.622  0.00  0.00    +0.000 S 
ATOM     28  C   UNL     1      49.467   7.881  17.437  0.00  0.00    +0.000 A 
ATOM     29  C   UNL     1      49.044   7.521  16.162  0.00  0.00    +0.000 A 
ATOM     30  C   UNL     1      49.009   8.698  15.295  0.00  0.00    +0.000 A 
BRANCH  22  32
ATOM     31  C   UNL     1      49.538   7.385  12.380  0.00  0.00    +0.000 C 
ATOM     32  O   UNL     1      48.414   7.890  13.095  0.00  0.00    +0.000 OA
ENDBRANCH  22  32
ENDBRANCH  18  29
ENDBRANCH   1  20
TORSDOF 8
ENDMDL
MODEL 4
REMARK VINA RESULT:    -7.446      2.082      3.415
REMARK INTER + INTRA:         -12.456
REMARK INTER:                 -11.228
REMARK INTRA:                  -1.228
REMARK UNBOUND:                -1.528
REMARK  Name = 
REMARK  9 active torsions:
REMARK  status: ('A' for Active; 'I' for Inactive)
REMARK    1  A    between atoms: C_1  and  O_2
REMARK    2  A    between atoms: O_2  and  C_3
REMARK    3  A    between atoms: C_10  and  C_11
REMARK    4  A    between atoms: N_13  and  C_14
REMARK    5  A    between atoms: C_14  and  C_15
REMARK    6  A    between atoms: C_18  and  C_19
REMARK    7  A    between atoms: C_19  and  N_20
REMARK    8  A    between atoms: N_20  and  C_21
REMARK    9  A    between atoms: C_21  and  C_22
REMARK                            x       y       z     vdW  Elec       q    Type
REMARK                         _______ _______ _______ _____ _____    ______ ____
ROOT
ATOM      1  C   UNL     1      47.245   3.643  15.013  0.00  0.00    +0.000 C 
ENDROOT
BRANCH   1   2
ATOM      2  C   UNL     1      46.661   4.129  13.709  0.00  0.00    +0.000 A 
ATOM      3  C   UNL     1      46.835   5.459  13.303  0.00  0.00    +0.000 A 
ATOM      4  C   UNL     1      46.245   5.927  12.125  0.00  0.00    +0.000 A 
ATOM      5  C   UNL     1      45.459   5.081  11.330  0.00  0.00    +0.000 A 
ATOM      6  C   UNL     1      45.285   3.752  11.736  0.00  0.00    +0.000 A 
ATOM      7  C   UNL     1      45.876   3.281  12.916  0.00  0.00    +0.000 A 
BRANCH   5   8
ATOM      8  C   UNL     1      44.804   5.600  10.068  0.00  0.00    +0.000 C 
BRANCH   8   9
ATOM      9  N   UNL     1      45.524   5.143   8.882  0.00  0.00    +0.000 NA
ATOM     10  H   UNL     1      46.471   4.883   9.154  0.00  0.00    +0.000 HD
BRANCH   9  11
ATOM     11  C   UNL     1      44.868   3.999   8.251  0.00  0.00    +0.000 C 
BRANCH  11  12
ATOM     12  C   UNL     1      45.890   3.000   7.785  0.00  0.00    +0.000 A 
ATOM     13  C   UNL     1      46.833   3.328   6.811  0.00  0.00    +0.000 A 
ATOM     14  C   UNL     1      47.757   2.372   6.437  0.00  0.00    +0.000 A 
ATOM     15  N   UNL     1      47.775   1.133   6.968  0.00  0.00    +0.000 NA
ATOM     16  N   UNL     1      46.853   0.798   7.910  0.00  0.00    +0.000 NA
ATOM     17  C   UNL     1      45.941   1.715   8.302  0.00  0.00    +0.000 A 
ENDBRANCH  11  12
ENDBRANCH   9  11
ENDBRANCH   8   9
ENDBRANCH   5   8
ENDBRANCH   1   2
BRANCH   1  20
ATOM     18  C   UNL     1      48.381   4.787  16.881  0.00  0.00    +0.000 C 
ATOM     19  O   UNL     1      49.220   3.892  16.970  0.00  0.00    +0.000 OA
ATOM     20  N   UNL     1      47.390   4.737  15.942  0.00  0.00    +0.000 N 
ATOM     21  H   UNL     1      46.741   5.507  15.853  0.00  0.00    +0.000 HD
BRANCH  18  29
ATOM     22  C   UNL     1      48.619   8.192  16.405  0.00  0.00    +0.000 A 
ATOM     23  N   UNL     1      48.610   9.536  16.500  0.00  0.00    +0.000 NA
ATOM     24  C   UNL     1      48.476  10.080  17.712  0.00  0.00    +0.000 A 
ATOM     25  N   UNL     1      48.361   9.437  18.871  0.00  0.00    +0.000 NA
ATOM     26  C   UNL     1      48.367   8.101  18.732  0.00  0.00    +0.000 A 
ATOM     27  S   UNL     1      48.242   7.116  20.110  0.00  0.00    +0.000 S 
ATOM     28  C   UNL     1      48.289   5.704  19.165  0.00  0.00    +0.000 A 
ATOM     29  C   UNL     1      48.391   5.942  17.799  0.00  0.00    +0.000 A 
ATOM     30  C   UNL     1      48.472   7.380  17.546  0.00  0.00    +0.000 A 
BRANCH  22  32
ATOM     31  C   UNL     1      50.165   7.484  14.777  0.00  0.00    +0.000 C 
ATOM     32  O   UNL     1      48.801   7.621  15.163  0.00  0.00    +0.000 OA
ENDBRANCH  22  32
ENDBRANCH  18  29
ENDBRANCH   1  20
TORSDOF 8
ENDMDL
MODEL 5
REMARK VINA RESULT:    -7.325      2.507      3.277
REMARK INTER + INTRA:         -12.278
REMARK INTER:                 -11.215
REMARK INTRA:                  -1.063
REMARK UNBOUND:                -1.528
REMARK  Name = 
REMARK  9 active torsions:
REMARK  status: ('A' for Active; 'I' for Inactive)
REMARK    1  A    between atoms: C_1  and  O_2
REMARK    2  A    between atoms: O_2  and  C_3
REMARK    3  A    between atoms: C_10  and  C_11
REMARK    4  A    between atoms: N_13  and  C_14
REMARK    5  A    between atoms: C_14  and  C_15
REMARK    6  A    between atoms: C_18  and  C_19
REMARK    7  A    between atoms: C_19  and  N_20
REMARK    8  A    between atoms: N_20  and  C_21
REMARK    9  A    between atoms: C_21  and  C_22
REMARK                            x       y       z     vdW  Elec       q    Type
REMARK                         _______ _______ _______ _____ _____    ______ ____
ROOT
ATOM      1  C   UNL     1      47.383   4.280  14.833  0.00  0.00    +0.000 C 
ENDROOT
BRANCH   1   2
ATOM      2  C   UNL     1      46.393   4.383  13.700  0.00  0.00    +0.000 A 
ATOM      3  C   UNL     1      45.982   3.235  13.007  0.00  0.00    +0.000 A 
ATOM      4  C   UNL     1      45.111   3.335  11.917  0.00  0.00    +0.000 A 
ATOM      5  C   UNL     1      44.638   4.583  11.488  0.00  0.00    +0.000 A 
ATOM      6  C   UNL     1      45.049   5.729  12.179  0.00  0.00    +0.000 A 
ATOM      7  C   UNL     1      45.921   5.631  13.271  0.00  0.00    +0.000 A 
BRANCH   5   8
ATOM      8  C   UNL     1      43.714   4.685  10.293  0.00  0.00    +0.000 C 
BRANCH   8   9
ATOM      9  N   UNL     1      44.034   3.665   9.298  0.00  0.00    +0.000 NA
ATOM     10  H   UNL     1      43.187   3.439   8.777  0.00  0.00    +0.000 HD
BRANCH   9  11
ATOM     11  C   UNL     1      45.070   4.113   8.369  0.00  0.00    +0.000 C 
BRANCH  11  12
ATOM     12  C   UNL     1      45.906   2.949   7.915  0.00  0.00    +0.000 A 
ATOM     13  C   UNL     1      46.879   3.097   6.927  0.00  0.00    +0.000 A 
ATOM     14  C   UNL     1      47.626   1.993   6.565  0.00  0.00    +0.000 A 
ATOM     15  N   UNL     1      47.444   0.778   7.121  0.00  0.00    +0.000 NA
ATOM     16  N   UNL     1      46.490   0.620   8.078  0.00  0.00    +0.000 NA
ATOM     17  C   UNL     1      45.748   1.683   8.457  0.00  0.00    +0.000 A 
ENDBRANCH  11  12
ENDBRANCH   9  11
ENDBRANCH   8   9
ENDBRANCH   5   8
ENDBRANCH   1   2
BRANCH   1  20
ATOM     18  C   UNL     1      48.595   5.865  16.284  0.00  0.00    +0.000 C 
ATOM     19  O   UNL     1      49.524   5.074  16.438  0.00  0.00    +0.000 OA
ATOM     20  N   UNL     1      47.517   5.549  15.506  0.00  0.00    +0.000 N 
ATOM     21  H   UNL     1      46.789   6.233  15.351  0.00  0.00    +0.000 HD
BRANCH  18  29
ATOM     22  C   UNL     1      47.819   6.905  19.477  0.00  0.00    +0.000 A 
ATOM     23  N   UNL     1      47.663   7.560  20.645  0.00  0.00    +0.000 NA
ATOM     24  C   UNL     1      47.932   8.868  20.674  0.00  0.00    +0.000 A 
ATOM     25  N   UNL     1      48.333   9.626  19.657  0.00  0.00    +0.000 NA
ATOM     26  C   UNL     1      48.484   8.935  18.515  0.00  0.00    +0.000 A 
ATOM     27  S   UNL     1      48.980   9.744  17.107  0.00  0.00    +0.000 S 
ATOM     28  C   UNL     1      48.959   8.300  16.211  0.00  0.00    +0.000 A 
ATOM     29  C   UNL     1      48.589   7.182  16.950  0.00  0.00    +0.000 A 
ATOM     30  C   UNL     1      48.271   7.573  18.323  0.00  0.00    +0.000 A 
BRANCH  22  32
ATOM     31  C   UNL     1      48.559   4.698  19.831  0.00  0.00    +0.000 C 
ATOM     32  O   UNL     1      47.502   5.564  19.427  0.00  0.00    +0.000 OA
ENDBRANCH  22  32
ENDBRANCH  18  29
ENDBRANCH   1  20
TORSDOF 8
ENDMDL
MODEL 6
REMARK VINA RESULT:    -7.002      1.756      2.344
REMARK INTER + INTRA:         -11.804
REMARK INTER:                 -10.656
REMARK INTRA:                  -1.148
REMARK UNBOUND:                -1.528
REMARK  Name = 
REMARK  9 active torsions:
REMARK  status: ('A' for Active; 'I' for Inactive)
REMARK    1  A    between atoms: C_1  and  O_2
REMARK    2  A    between atoms: O_2  and  C_3
REMARK    3  A    between atoms: C_10  and  C_11
REMARK    4  A    between atoms: N_13  and  C_14
REMARK    5  A    between atoms: C_14  and  C_15
REMARK    6  A    between atoms: C_18  and  C_19
REMARK    7  A    between atoms: C_19  and  N_20
REMARK    8  A    between atoms: N_20  and  C_21
REMARK    9  A    between atoms: C_21  and  C_22
REMARK                            x       y       z     vdW  Elec       q    Type
REMARK                         _______ _______ _______ _____ _____    ______ ____
ROOT
ATOM      1  C   UNL     1      47.447   7.645  13.300  0.00  0.00    +0.000 C 
ENDROOT
BRANCH   1   2
ATOM      2  C   UNL     1      46.552   6.551  12.776  0.00  0.00    +0.000 A 
ATOM      3  C   UNL     1      45.843   6.724  11.578  0.00  0.00    +0.000 A 
ATOM      4  C   UNL     1      44.967   5.735  11.120  0.00  0.00    +0.000 A 
ATOM      5  C   UNL     1      44.769   4.555  11.852  0.00  0.00    +0.000 A 
ATOM      6  C   UNL     1      45.477   4.383  13.048  0.00  0.00    +0.000 A 
ATOM      7  C   UNL     1      46.356   5.372  13.508  0.00  0.00    +0.000 A 
BRANCH   5   8
ATOM      8  C   UNL     1      43.802   3.499  11.362  0.00  0.00    +0.000 C 
BRANCH   8   9
ATOM      9  N   UNL     1      43.855   3.379   9.907  0.00  0.00    +0.000 NA
ATOM     10  H   UNL     1      44.361   4.181   9.531  0.00  0.00    +0.000 HD
BRANCH   9  11
ATOM     11  C   UNL     1      44.515   2.147   9.483  0.00  0.00    +0.000 C 
BRANCH  11  12
ATOM     12  C   UNL     1      45.539   2.438   8.422  0.00  0.00    +0.000 A 
ATOM     13  C   UNL     1      46.407   1.448   7.961  0.00  0.00    +0.000 A 
ATOM     14  C   UNL     1      47.314   1.774   6.972  0.00  0.00    +0.000 A 
ATOM     15  N   UNL     1      47.401   3.012   6.444  0.00  0.00    +0.000 NA
ATOM     16  N   UNL     1      46.568   3.987   6.895  0.00  0.00    +0.000 NA
ATOM     17  C   UNL     1      45.665   3.697   7.856  0.00  0.00    +0.000 A 
ENDBRANCH  11  12
ENDBRANCH   9  11
ENDBRANCH   8   9
ENDBRANCH   5   8
ENDBRANCH   1   2
BRANCH   1  20
ATOM     18  C   UNL     1      48.940   7.559  15.263  0.00  0.00    +0.000 C 
ATOM     19  O   UNL     1      48.349   8.493  15.802  0.00  0.00    +0.000 OA
ATOM     20  N   UNL     1      48.551   7.085  14.042  0.00  0.00    +0.000 N 
ATOM     21  H   UNL     1      49.018   6.284  13.640  0.00  0.00    +0.000 HD
BRANCH  18  29
ATOM     22  C   UNL     1      49.331   4.817  17.313  0.00  0.00    +0.000 A 
ATOM     23  N   UNL     1      49.772   3.767  18.035  0.00  0.00    +0.000 NA
ATOM     24  C   UNL     1      51.089   3.637  18.215  0.00  0.00    +0.000 A 
ATOM     25  N   UNL     1      52.043   4.447  17.767  0.00  0.00    +0.000 NA
ATOM     26  C   UNL     1      51.564   5.474  17.046  0.00  0.00    +0.000 A 
ATOM     27  S   UNL     1      52.640   6.620  16.404  0.00  0.00    +0.000 S 
ATOM     28  C   UNL     1      51.367   7.482  15.679  0.00  0.00    +0.000 A 
ATOM     29  C   UNL     1      50.111   6.924  15.897  0.00  0.00    +0.000 A 
ATOM     30  C   UNL     1      50.231   5.740  16.746  0.00  0.00    +0.000 A 
BRANCH  22  32
ATOM     31  C   UNL     1      47.292   5.371  18.349  0.00  0.00    +0.000 C 
ATOM     32  O   UNL     1      47.971   4.984  17.158  0.00  0.00    +0.000 OA
ENDBRANCH  22  32
ENDBRANCH  18  29
ENDBRANCH   1  20
TORSDOF 8
ENDMDL
MODEL 7
REMARK VINA RESULT:    -6.614      1.802      2.992
REMARK INTER + INTRA:         -11.235
REMARK INTER:                 -10.769
REMARK INTRA:                  -0.466
REMARK UNBOUND:                -1.528
REMARK  Name = 
REMARK  9 active torsions:
REMARK  status: ('A' for Active; 'I' for Inactive)
REMARK    1  A    between atoms: C_1  and  O_2
REMARK    2  A    between atoms: O_2  and  C_3
REMARK    3  A    between atoms: C_10  and  C_11
REMARK    4  A    between atoms: N_13  and  C_14
REMARK    5  A    between atoms: C_14  and  C_15
REMARK    6  A    between atoms: C_18  and  C_19
REMARK    7  A    between atoms: C_19  and  N_20
REMARK    8  A    between atoms: N_20  and  C_21
REMARK    9  A    between atoms: C_21  and  C_22
REMARK                            x       y       z     vdW  Elec       q    Type
REMARK                         _______ _______ _______ _____ _____    ______ ____
ROOT
ATOM      1  C   UNL     1      47.307   7.494  13.325  0.00  0.00    +0.000 C 
ENDROOT
BRANCH   1   2
ATOM      2  C   UNL     1      46.498   6.462  12.580  0.00  0.00    +0.000 A 
ATOM      3  C   UNL     1      46.384   6.518  11.184  0.00  0.00    +0.000 A 
ATOM      4  C   UNL     1      45.587   5.599  10.496  0.00  0.00    +0.000 A 
ATOM      5  C   UNL     1      44.875   4.608  11.188  0.00  0.00    +0.000 A 
ATOM      6  C   UNL     1      44.988   4.552  12.582  0.00  0.00    +0.000 A 
ATOM      7  C   UNL     1      45.787   5.472  13.272  0.00  0.00    +0.000 A 
BRANCH   5   8
ATOM      8  C   UNL     1      43.995   3.630  10.439  0.00  0.00    +0.000 C 
BRANCH   8   9
ATOM      9  N   UNL     1      44.789   2.804   9.531  0.00  0.00    +0.000 NA
ATOM     10  H   UNL     1      44.332   1.899   9.428  0.00  0.00    +0.000 HD
BRANCH   9  11
ATOM     11  C   UNL     1      44.938   3.425   8.216  0.00  0.00    +0.000 C 
BRANCH  11  12
ATOM     12  C   UNL     1      46.066   2.784   7.458  0.00  0.00    +0.000 A 
ATOM     13  C   UNL     1      46.628   3.395   6.338  0.00  0.00    +0.000 A 
ATOM     14  C   UNL     1      47.675   2.764   5.695  0.00  0.00    +0.000 A 
ATOM     15  N   UNL     1      48.166   1.575   6.101  0.00  0.00    +0.000 NA
ATOM     16  N   UNL     1      47.618   0.964   7.185  0.00  0.00    +0.000 NA
ATOM     17  C   UNL     1      46.598   1.561   7.839  0.00  0.00    +0.000 A 
ENDBRANCH  11  12
ENDBRANCH   9  11
ENDBRANCH   8   9
ENDBRANCH   5   8
ENDBRANCH   1   2
BRANCH   1  20
ATOM     18  C   UNL     1      48.999   6.746  14.958  0.00  0.00    +0.000 C 
ATOM     19  O   UNL     1      49.915   6.958  14.164  0.00  0.00    +0.000 OA
ATOM     20  N   UNL     1      47.699   6.993  14.620  0.00  0.00    +0.000 N 
ATOM     21  H   UNL     1      46.967   6.861  15.305  0.00  0.00    +0.000 HD
BRANCH  18  29
ATOM     22  C   UNL     1      51.645   6.998  17.152  0.00  0.00    +0.000 A 
ATOM     23  N   UNL     1      52.481   6.995  18.210  0.00  0.00    +0.000 NA
ATOM     24  C   UNL     1      52.099   6.342  19.310  0.00  0.00    +0.000 A 
ATOM     25  N   UNL     1      50.969   5.664  19.489  0.00  0.00    +0.000 NA
ATOM     26  C   UNL     1      50.162   5.698  18.416  0.00  0.00    +0.000 A 
ATOM     27  S   UNL     1      48.678   4.874  18.459  0.00  0.00    +0.000 S 
ATOM     28  C   UNL     1      48.291   5.389  16.886  0.00  0.00    +0.000 A 
ATOM     29  C   UNL     1      49.260   6.195  16.301  0.00  0.00    +0.000 A 
ATOM     30  C   UNL     1      50.397   6.349  17.208  0.00  0.00    +0.000 A 
BRANCH  22  32
ATOM     31  C   UNL     1      52.081   9.054  16.091  0.00  0.00    +0.000 C 
ATOM     32  O   UNL     1      52.049   7.633  15.996  0.00  0.00    +0.000 OA
ENDBRANCH  22  32
ENDBRANCH  18  29
ENDBRANCH   1  20
TORSDOF 8
ENDMDL
MODEL 8
REMARK VINA RESULT:    -6.395      3.306      7.685
REMARK INTER + INTRA:         -10.913
REMARK INTER:                  -9.599
REMARK INTRA:                  -1.314
REMARK UNBOUND:                -1.528
REMARK  Name = 
REMARK  9 active torsions:
REMARK  status: ('A' for Active; 'I' for Inactive)
REMARK    1  A    between atoms: C_1  and  O_2
REMARK    2  A    between atoms: O_2  and  C_3
REMARK    3  A    between atoms: C_10  and  C_11
REMARK    4  A    between atoms: N_13  and  C_14
REMARK    5  A    between atoms: C_14  and  C_15
REMARK    6  A    between atoms: C_18  and  C_19
REMARK    7  A    between atoms: C_19  and  N_20
REMARK    8  A    between atoms: N_20  and  C_21
REMARK    9  A    between atoms: C_21  and  C_22
REMARK                            x       y       z     vdW  Elec       q    Type
REMARK                         _______ _______ _______ _____ _____    ______ ____
ROOT
ATOM      1  C   UNL     1      47.248   8.764  12.817  0.00  0.00    +0.000 C 
ENDROOT
BRANCH   1   2
ATOM      2  C   UNL     1      47.881   8.391  14.133  0.00  0.00    +0.000 A 
ATOM      3  C   UNL     1      48.522   7.154  14.289  0.00  0.00    +0.000 A 
ATOM      4  C   UNL     1      49.059   6.780  15.525  0.00  0.00    +0.000 A 
ATOM      5  C   UNL     1      48.958   7.628  16.638  0.00  0.00    +0.000 A 
ATOM      6  C   UNL     1      48.317   8.864  16.482  0.00  0.00    +0.000 A 
ATOM      7  C   UNL     1      47.781   9.240  15.245  0.00  0.00    +0.000 A 
BRANCH   5   8
ATOM      8  C   UNL     1      49.521   7.207  17.979  0.00  0.00    +0.000 C 
BRANCH   8   9
ATOM      9  N   UNL     1      48.984   5.910  18.385  0.00  0.00    +0.000 NA
ATOM     10  H   UNL     1      48.456   5.517  17.607  0.00  0.00    +0.000 HD
BRANCH   9  11
ATOM     11  C   UNL     1      50.040   4.979  18.776  0.00  0.00    +0.000 C 
BRANCH  11  12
ATOM     12  C   UNL     1      50.032   3.772  17.880  0.00  0.00    +0.000 A 
ATOM     13  C   UNL     1      51.127   2.911  17.813  0.00  0.00    +0.000 A 
ATOM     14  C   UNL     1      51.052   1.809  16.984  0.00  0.00    +0.000 A 
ATOM     15  N   UNL     1      49.967   1.540  16.230  0.00  0.00    +0.000 NA
ATOM     16  N   UNL     1      48.898   2.378  16.279  0.00  0.00    +0.000 NA
ATOM     17  C   UNL     1      48.939   3.460  17.086  0.00  0.00    +0.000 A 
ENDBRANCH  11  12
ENDBRANCH   9  11
ENDBRANCH   8   9
ENDBRANCH   5   8
ENDBRANCH   1   2
BRANCH   1  20
ATOM     18  C   UNL     1      46.943   6.833  11.312  0.00  0.00    +0.000 C 
ATOM     19  O   UNL     1      48.065   6.981  10.831  0.00  0.00    +0.000 OA
ATOM     20  N   UNL     1      46.478   7.662  12.294  0.00  0.00    +0.000 N 
ATOM     21  H   UNL     1      45.574   7.491  12.711  0.00  0.00    +0.000 HD
BRANCH  18  29
ATOM     22  C   UNL     1      44.936   4.534  12.914  0.00  0.00    +0.000 A 
ATOM     23  N   UNL     1      44.024   3.609  13.272  0.00  0.00    +0.000 NA
ATOM     24  C   UNL     1      43.372   2.961  12.302  0.00  0.00    +0.000 A 
ATOM     25  N   UNL     1      43.530   3.113  10.990  0.00  0.00    +0.000 NA
ATOM     26  C   UNL     1      44.442   4.049  10.677  0.00  0.00    +0.000 A 
ATOM     27  S   UNL     1      44.784   4.370   9.045  0.00  0.00    +0.000 S 
ATOM     28  C   UNL     1      45.905   5.576   9.466  0.00  0.00    +0.000 A 
ATOM     29  C   UNL     1      46.039   5.768  10.837  0.00  0.00    +0.000 A 
ATOM     30  C   UNL     1      45.185   4.826  11.560  0.00  0.00    +0.000 A 
BRANCH  22  32
ATOM     31  C   UNL     1      46.638   4.369  14.532  0.00  0.00    +0.000 C 
ATOM     32  O   UNL     1      45.645   5.177  13.908  0.00  0.00    +0.000 OA
ENDBRANCH  22  32
ENDBRANCH  18  29
ENDBRANCH   1  20
TORSDOF 8
ENDMDL
MODEL 9
REMARK VINA RESULT:    -6.353      2.251      3.093
REMARK INTER + INTRA:         -10.852
REMARK INTER:                  -9.691
REMARK INTRA:                  -1.161
REMARK UNBOUND:                -1.528
REMARK  Name = 
REMARK  9 active torsions:
REMARK  status: ('A' for Active; 'I' for Inactive)
REMARK    1  A    between atoms: C_1  and  O_2
REMARK    2  A    between atoms: O_2  and  C_3
REMARK    3  A    between atoms: C_10  and  C_11
REMARK    4  A    between atoms: N_13  and  C_14
REMARK    5  A    between atoms: C_14  and  C_15
REMARK    6  A    between atoms: C_18  and  C_19
REMARK    7  A    between atoms: C_19  and  N_20
REMARK    8  A    between atoms: N_20  and  C_21
REMARK    9  A    between atoms: C_21  and  C_22
REMARK                            x       y       z     vdW  Elec       q    Type
REMARK                         _______ _______ _______ _____ _____    ______ ____
ROOT
ATOM      1  C   UNL     1      47.258   8.723  13.536  0.00  0.00    +0.000 C 
ENDROOT
BRANCH   1   2
ATOM      2  C   UNL     1      46.228   7.805  12.925  0.00  0.00    +0.000 A 
ATOM      3  C   UNL     1      46.285   6.423  13.148  0.00  0.00    +0.000 A 
ATOM      4  C   UNL     1      45.367   5.564  12.535  0.00  0.00    +0.000 A 
ATOM      5  C   UNL     1      44.377   6.065  11.677  0.00  0.00    +0.000 A 
ATOM      6  C   UNL     1      44.320   7.447  11.455  0.00  0.00    +0.000 A 
ATOM      7  C   UNL     1      45.239   8.308  12.068  0.00  0.00    +0.000 A 
BRANCH   5   8
ATOM      8  C   UNL     1      43.401   5.128  10.999  0.00  0.00    +0.000 C 
BRANCH   8   9
ATOM      9  N   UNL     1      43.888   4.735   9.678  0.00  0.00    +0.000 NA
ATOM     10  H   UNL     1      44.728   5.271   9.467  0.00  0.00    +0.000 HD
BRANCH   9  11
ATOM     11  C   UNL     1      44.192   3.308   9.609  0.00  0.00    +0.000 C 
BRANCH  11  12
ATOM     12  C   UNL     1      45.297   3.054   8.622  0.00  0.00    +0.000 A 
ATOM     13  C   UNL     1      45.881   1.794   8.494  0.00  0.00    +0.000 A 
ATOM     14  C   UNL     1      46.879   1.620   7.556  0.00  0.00    +0.000 A 
ATOM     15  N   UNL     1      47.318   2.623   6.768  0.00  0.00    +0.000 NA
ATOM     16  N   UNL     1      46.764   3.859   6.891  0.00  0.00    +0.000 NA
ATOM     17  C   UNL     1      45.780   4.057   7.795  0.00  0.00    +0.000 A 
ENDBRANCH  11  12
ENDBRANCH   9  11
ENDBRANCH   8   9
ENDBRANCH   5   8
ENDBRANCH   1   2
BRANCH   1  20
ATOM     18  C   UNL     1      49.054   7.971  15.052  0.00  0.00    +0.000 C 
ATOM     19  O   UNL     1      49.920   8.238  14.221  0.00  0.00    +0.000 OA
ATOM     20  N   UNL     1      47.731   8.189  14.791  0.00  0.00    +0.000 N 
ATOM     21  H   UNL     1      47.040   8.011  15.506  0.00  0.00    +0.000 HD
BRANCH  18  29
ATOM     22  C   UNL     1      48.093   8.653  18.290  0.00  0.00    +0.000 A 
ATOM     23  N   UNL     1      47.831   8.648  19.613  0.00  0.00    +0.000 NA
ATOM     24  C   UNL     1      48.418   7.715  20.367  0.00  0.00    +0.000 A 
ATOM     25  N   UNL     1      49.266   6.774  19.962  0.00  0.00    +0.000 NA
ATOM     26  C   UNL     1      49.495   6.809  18.639  0.00  0.00    +0.000 A 
ATOM     27  S   UNL     1      50.564   5.686  17.945  0.00  0.00    +0.000 S 
ATOM     28  C   UNL     1      50.300   6.322  16.391  0.00  0.00    +0.000 A 
ATOM     29  C   UNL     1      49.401   7.382  16.359  0.00  0.00    +0.000 A 
ATOM     30  C   UNL     1      48.947   7.693  17.714  0.00  0.00    +0.000 A 
BRANCH  22  32
ATOM     31  C   UNL     1      47.984  10.954  17.807  0.00  0.00    +0.000 C 
ATOM     32  O   UNL     1      47.525   9.638  17.511  0.00  0.00    +0.000 OA
ENDBRANCH  22  32
ENDBRANCH  18  29
ENDBRANCH   1  20
TORSDOF 8
ENDMDL
