MODEL 1
REMARK VINA RESULT:    -8.813      0.000      0.000
REMARK INTER + INTRA:         -12.086
REMARK INTER:                 -11.389
REMARK INTRA:                  -0.697
REMARK UNBOUND:                -0.697
REMARK  Name = 
REMARK  5 active torsions:
REMARK  status: ('A' for Active; 'I' for Inactive)
REMARK    1  A    between atoms: C_2  and  C_4
REMARK    2  A    between atoms: C_7  and  O_8
REMARK    3  A    between atoms: O_8  and  C_9
REMARK    4  A    between atoms: C_9  and  C_10
REMARK    5  A    between atoms: C_14  and  C_15
REMARK                            x       y       z     vdW  Elec       q    Type
REMARK                         _______ _______ _______ _____ _____    ______ ____
ROOT
ATOM      1  C   UNL     1      43.991   4.512  11.346  0.00  0.00    +0.000 C 
ENDROOT
BRANCH   1   2
ATOM      2  C   UNL     1      45.169   5.294  11.881  0.00  0.00    +0.000 A 
ATOM      3  C   UNL     1      45.505   6.525  11.305  0.00  0.00    +0.000 A 
ATOM      4  C   UNL     1      46.526   7.301  11.848  0.00  0.00    +0.000 A 
ATOM      5  C   UNL     1      47.207   6.864  12.986  0.00  0.00    +0.000 A 
ATOM      6  C   UNL     1      46.877   5.650  13.613  0.00  0.00    +0.000 A 
ATOM      7  C   UNL     1      45.858   4.873  13.030  0.00  0.00    +0.000 A 
BRANCH   6   8
ATOM      8  C   UNL     1      47.505   5.234  14.880  0.00  0.00    +0.000 A 
ATOM      9  C   UNL     1      48.529   5.970  15.488  0.00  0.00    +0.000 A 
ATOM     10  N   UNL     1      49.215   5.592  16.599  0.00  0.00    +0.000 NA
ATOM     11  C   UNL     1      48.855   4.411  17.149  0.00  0.00    +0.000 A 
ATOM     12  C   UNL     1      47.840   3.618  16.648  0.00  0.00    +0.000 A 
ATOM     13  F   UNL     1      47.527   2.458  17.238  0.00  0.00    +0.000 F 
ATOM     14  C   UNL     1      47.159   4.029  15.512  0.00  0.00    +0.000 A 
ENDBRANCH   6   8
ENDBRANCH   1   2
BRANCH   1  15
ATOM     15  O   UNL     1      43.814   4.728   9.942  0.00  0.00    +0.000 OA
BRANCH  15  19
ATOM     16  C   UNL     1      46.427   2.415   7.753  0.00  0.00    +0.000 A 
ATOM     17  C   UNL     1      45.581   1.807   8.683  0.00  0.00    +0.000 A 
ATOM     18  C   UNL     1      44.698   2.599   9.421  0.00  0.00    +0.000 A 
ATOM     19  C   UNL     1      44.694   3.967   9.198  0.00  0.00    +0.000 A 
ATOM     20  N   UNL     1      45.504   4.579   8.306  0.00  0.00    +0.000 NA
ATOM     21  C   UNL     1      46.358   3.792   7.611  0.00  0.00    +0.000 A 
BRANCH  16  23
ATOM     22  N   UNL     1      48.460   2.390   6.418  0.00  0.00    +0.000 N 
ATOM     23  C   UNL     1      47.412   1.681   6.932  0.00  0.00    +0.000 C 
ATOM     24  O   UNL     1      47.317   0.476   6.751  0.00  0.00    +0.000 OA
ATOM     25  H   UNL     1      49.180   1.847   5.957  0.00  0.00    +0.000 HD
ATOM     26  H   UNL     1      48.715   3.309   6.752  0.00  0.00    +0.000 HD
ENDBRANCH  16  23
ENDBRANCH  15  19
ENDBRANCH   1  15
TORSDOF 5
ENDMDL
MODEL 2
REMARK VINA RESULT:    -8.731      2.799      3.882
REMARK INTER + INTRA:         -11.980
REMARK INTER:                 -11.146
REMARK INTRA:                  -0.834
REMARK UNBOUND:                -0.697
REMARK  Name = 
REMARK  5 active torsions:
REMARK  status: ('A' for Active; 'I' for Inactive)
REMARK    1  A    between atoms: C_2  and  C_4
REMARK    2  A    between atoms: C_7  and  O_8
REMARK    3  A    between atoms: O_8  and  C_9
REMARK    4  A    between atoms: C_9  and  C_10
REMARK    5  A    between atoms: C_14  and  C_15
REMARK                            x       y       z     vdW  Elec       q    Type
REMARK                         _______ _______ _______ _____ _____    ______ ____
ROOT
ATOM      1  C   UNL     1      43.659   4.070  11.279  0.00  0.00    +0.000 C 
ENDROOT
BRANCH   1   2
ATOM      2  C   UNL     1      44.834   4.591  12.074  0.00  0.00    +0.000 A 
ATOM      3  C   UNL     1      45.602   3.706  12.840  0.00  0.00    +0.000 A 
ATOM      4  C   UNL     1      46.744   4.153  13.500  0.00  0.00    +0.000 A 
ATOM      5  C   UNL     1      47.141   5.487  13.384  0.00  0.00    +0.000 A 
ATOM      6  C   UNL     1      46.416   6.398  12.598  0.00  0.00    +0.000 A 
ATOM      7  C   UNL     1      45.253   5.927  11.961  0.00  0.00    +0.000 A 
BRANCH   6   8
ATOM      8  C   UNL     1      46.889   7.777  12.370  0.00  0.00    +0.000 A 
ATOM      9  C   UNL     1      46.034   8.884  12.441  0.00  0.00    +0.000 A 
ATOM     10  N   UNL     1      46.384  10.164  12.146  0.00  0.00    +0.000 NA
ATOM     11  C   UNL     1      47.665  10.361  11.766  0.00  0.00    +0.000 A 
ATOM     12  C   UNL     1      48.598   9.344  11.688  0.00  0.00    +0.000 A 
ATOM     13  F   UNL     1      49.856   9.601  11.306  0.00  0.00    +0.000 F 
ATOM     14  C   UNL     1      48.212   8.048  11.993  0.00  0.00    +0.000 A 
ENDBRANCH   6   8
ENDBRANCH   1   2
BRANCH   1  15
ATOM     15  O   UNL     1      43.681   4.555   9.933  0.00  0.00    +0.000 OA
BRANCH  15  19
ATOM     16  C   UNL     1      46.442   2.493   7.675  0.00  0.00    +0.000 A 
ATOM     17  C   UNL     1      45.608   1.795   8.551  0.00  0.00    +0.000 A 
ATOM     18  C   UNL     1      44.675   2.502   9.312  0.00  0.00    +0.000 A 
ATOM     19  C   UNL     1      44.611   3.879   9.167  0.00  0.00    +0.000 A 
ATOM     20  N   UNL     1      45.408   4.578   8.329  0.00  0.00    +0.000 NA
ATOM     21  C   UNL     1      46.311   3.872   7.610  0.00  0.00    +0.000 A 
BRANCH  16  23
ATOM     22  N   UNL     1      48.522   2.628   6.420  0.00  0.00    +0.000 N 
ATOM     23  C   UNL     1      47.476   1.854   6.836  0.00  0.00    +0.000 C 
ATOM     24  O   UNL     1      47.421   0.665   6.555  0.00  0.00    +0.000 OA
ATOM     25  H   UNL     1      49.273   2.142   5.946  0.00  0.00    +0.000 HD
ATOM     26  H   UNL     1      48.738   3.522   6.837  0.00  0.00    +0.000 HD
ENDBRANCH  16  23
ENDBRANCH  15  19
ENDBRANCH   1  15
TORSDOF 5
ENDMDL
MODEL 3
REMARK VINA RESULT:    -8.479      3.600      5.124
REMARK INTER + INTRA:         -11.654
REMARK INTER:                 -10.763
REMARK INTRA:                  -0.891
REMARK UNBOUND:                -0.697
REMARK  Name = 
REMARK  5 active torsions:
REMARK  status: ('A' for Active; 'I' for Inactive)
REMARK    1  A    between atoms: C_2  and  C_4
REMARK    2  A    between atoms: C_7  and  O_8
REMARK    3  A    between atoms: O_8  and  C_9
REMARK    4  A    between atoms: C_9  and  C_10
REMARK    5  A    between atoms: C_14  and  C_15
REMARK                            x       y       z     vdW  Elec       q    Type
REMARK                         _______ _______ _______ _____ _____    ______ ____
ROOT
ATOM      1  C   UNL     1      44.083   3.988  11.666  0.00  0.00    +0.000 C 
ENDROOT
BRANCH   1   2
ATOM      2  C   UNL     1      44.859   5.213  12.089  0.00  0.00    +0.000 A 
ATOM      3  C   UNL     1      46.120   5.067  12.683  0.00  0.00    +0.000 A 
ATOM      4  C   UNL     1      46.888   6.187  12.990  0.00  0.00    +0.000 A 
ATOM      5  C   UNL     1      46.413   7.465  12.687  0.00  0.00    +0.000 A 
ATOM      6  C   UNL     1      45.169   7.652  12.061  0.00  0.00    +0.000 A 
ATOM      7  C   UNL     1      44.401   6.505  11.784  0.00  0.00    +0.000 A 
BRANCH   6   8
ATOM      8  C   UNL     1      44.708   8.985  11.629  0.00  0.00    +0.000 A 
ATOM      9  C   UNL     1      45.307  10.168  12.080  0.00  0.00    +0.000 A 
ATOM     10  N   UNL     1      44.870  11.424  11.798  0.00  0.00    +0.000 NA
ATOM     11  C   UNL     1      43.775  11.514  11.012  0.00  0.00    +0.000 A 
ATOM     12  C   UNL     1      43.124  10.412  10.490  0.00  0.00    +0.000 A 
ATOM     13  F   UNL     1      42.043  10.564   9.714  0.00  0.00    +0.000 F 
ATOM     14  C   UNL     1      43.591   9.143  10.796  0.00  0.00    +0.000 A 
ENDBRANCH   6   8
ENDBRANCH   1   2
BRANCH   1  15
ATOM     15  O   UNL     1      43.661   4.081  10.301  0.00  0.00    +0.000 OA
BRANCH  15  19
ATOM     16  C   UNL     1      46.436   2.464   7.721  0.00  0.00    +0.000 A 
ATOM     17  C   UNL     1      46.208   3.842   7.714  0.00  0.00    +0.000 A 
ATOM     18  C   UNL     1      45.266   4.382   8.591  0.00  0.00    +0.000 A 
ATOM     19  C   UNL     1      44.589   3.523   9.445  0.00  0.00    +0.000 A 
ATOM     20  N   UNL     1      44.789   2.187   9.470  0.00  0.00    +0.000 NA
ATOM     21  C   UNL     1      45.700   1.686   8.603  0.00  0.00    +0.000 A 
BRANCH  16  23
ATOM     22  N   UNL     1      48.494   2.482   6.426  0.00  0.00    +0.000 N 
ATOM     23  C   UNL     1      47.392   1.782   6.826  0.00  0.00    +0.000 C 
ATOM     24  O   UNL     1      47.225   0.620   6.485  0.00  0.00    +0.000 OA
ATOM     25  H   UNL     1      49.190   1.957   5.909  0.00  0.00    +0.000 HD
ATOM     26  H   UNL     1      48.798   3.330   6.884  0.00  0.00    +0.000 HD
ENDBRANCH  16  23
ENDBRANCH  15  19
ENDBRANCH   1  15
TORSDOF 5
ENDMDL
MODEL 4
REMARK VINA RESULT:    -7.994      2.663      3.322
REMARK INTER + INTRA:         -11.028
REMARK INTER:                 -10.383
REMARK INTRA:                  -0.645
REMARK UNBOUND:                -0.697
REMARK  Name = 
REMARK  5 active torsions:
REMARK  status: ('A' for Active; 'I' for Inactive)
REMARK    1  A    between atoms: C_2  and  C_4
REMARK    2  A    between atoms: C_7  and  O_8
REMARK    3  A    between atoms: O_8  and  C_9
REMARK    4  A    between atoms: C_9  and  C_10
REMARK    5  A    between atoms: C_14  and  C_15
REMARK                            x       y       z     vdW  Elec       q    Type
REMARK                         _______ _______ _______ _____ _____    ______ ____
ROOT
ATOM      1  C   UNL     1      44.141   2.933  11.505  0.00  0.00    +0.000 C 
ENDROOT
BRANCH   1   2
ATOM      2  C   UNL     1      44.456   4.411  11.523  0.00  0.00    +0.000 A 
ATOM      3  C   UNL     1      43.429   5.343  11.328  0.00  0.00    +0.000 A 
ATOM      4  C   UNL     1      43.685   6.707  11.438  0.00  0.00    +0.000 A 
ATOM      5  C   UNL     1      44.967   7.153  11.766  0.00  0.00    +0.000 A 
ATOM      6  C   UNL     1      46.016   6.249  12.003  0.00  0.00    +0.000 A 
ATOM      7  C   UNL     1      45.737   4.876  11.861  0.00  0.00    +0.000 A 
BRANCH   6   8
ATOM      8  C   UNL     1      47.342   6.700  12.466  0.00  0.00    +0.000 A 
ATOM      9  C   UNL     1      47.925   6.226  13.648  0.00  0.00    +0.000 A 
ATOM     10  N   UNL     1      49.094   6.672  14.179  0.00  0.00    +0.000 NA
ATOM     11  C   UNL     1      49.730   7.644  13.490  0.00  0.00    +0.000 A 
ATOM     12  C   UNL     1      49.258   8.164  12.300  0.00  0.00    +0.000 A 
ATOM     13  F   UNL     1      49.935   9.126  11.660  0.00  0.00    +0.000 F 
ATOM     14  C   UNL     1      48.062   7.691  11.782  0.00  0.00    +0.000 A 
ENDBRANCH   6   8
ENDBRANCH   1   2
BRANCH   1  15
ATOM     15  O   UNL     1      43.588   2.531  10.247  0.00  0.00    +0.000 OA
BRANCH  15  19
ATOM     16  C   UNL     1      46.403   2.637   7.241  0.00  0.00    +0.000 A 
ATOM     17  C   UNL     1      45.525   3.711   7.402  0.00  0.00    +0.000 A 
ATOM     18  C   UNL     1      44.574   3.667   8.423  0.00  0.00    +0.000 A 
ATOM     19  C   UNL     1      44.540   2.551   9.246  0.00  0.00    +0.000 A 
ATOM     20  N   UNL     1      45.376   1.499   9.110  0.00  0.00    +0.000 NA
ATOM     21  C   UNL     1      46.282   1.560   8.107  0.00  0.00    +0.000 A 
BRANCH  16  23
ATOM     22  N   UNL     1      48.669   2.101   6.539  0.00  0.00    +0.000 N 
ATOM     23  C   UNL     1      47.435   2.566   6.186  0.00  0.00    +0.000 C 
ATOM     24  O   UNL     1      47.184   2.876   5.031  0.00  0.00    +0.000 OA
ATOM     25  H   UNL     1      49.322   1.954   5.778  0.00  0.00    +0.000 HD
ATOM     26  H   UNL     1      48.839   1.599   7.399  0.00  0.00    +0.000 HD
ENDBRANCH  16  23
ENDBRANCH  15  19
ENDBRANCH   1  15
TORSDOF 5
ENDMDL
MODEL 5
REMARK VINA RESULT:    -7.672      2.523      2.868
REMARK INTER + INTRA:         -10.612
REMARK INTER:                  -9.904
REMARK INTRA:                  -0.708
REMARK UNBOUND:                -0.697
REMARK  Name = 
REMARK  5 active torsions:
REMARK  status: ('A' for Active; 'I' for Inactive)
REMARK    1  A    between atoms: C_2  and  C_4
REMARK    2  A    between atoms: C_7  and  O_8
REMARK    3  A    between atoms: O_8  and  C_9
REMARK    4  A    between atoms: C_9  and  C_10
REMARK    5  A    between atoms: C_14  and  C_15
REMARK                            x       y       z     vdW  Elec       q    Type
REMARK                         _______ _______ _______ _____ _____    ______ ____
ROOT
ATOM      1  C   UNL     1      44.588   4.536  11.348  0.00  0.00    +0.000 C 
ENDROOT
BRANCH   1   2
ATOM      2  C   UNL     1      45.072   5.960  11.500  0.00  0.00    +0.000 A 
ATOM      3  C   UNL     1      44.162   7.019  11.390  0.00  0.00    +0.000 A 
ATOM      4  C   UNL     1      44.573   8.329  11.623  0.00  0.00    +0.000 A 
ATOM      5  C   UNL     1      45.896   8.591  11.990  0.00  0.00    +0.000 A 
ATOM      6  C   UNL     1      46.830   7.553  12.144  0.00  0.00    +0.000 A 
ATOM      7  C   UNL     1      46.394   6.241  11.879  0.00  0.00    +0.000 A 
BRANCH   6   8
ATOM      8  C   UNL     1      48.194   7.803  12.645  0.00  0.00    +0.000 A 
ATOM      9  C   UNL     1      49.257   8.135  11.795  0.00  0.00    +0.000 A 
ATOM     10  N   UNL     1      50.552   8.280  12.180  0.00  0.00    +0.000 NA
ATOM     11  C   UNL     1      50.810   8.094  13.493  0.00  0.00    +0.000 A 
ATOM     12  C   UNL     1      49.833   7.792  14.423  0.00  0.00    +0.000 A 
ATOM     13  F   UNL     1      50.149   7.621  15.713  0.00  0.00    +0.000 F 
ATOM     14  C   UNL     1      48.520   7.648  14.001  0.00  0.00    +0.000 A 
ENDBRANCH   6   8
ENDBRANCH   1   2
BRANCH   1  15
ATOM     15  O   UNL     1      43.979   4.324  10.071  0.00  0.00    +0.000 OA
BRANCH  15  19
ATOM     16  C   UNL     1      46.647   2.683   7.395  0.00  0.00    +0.000 A 
ATOM     17  C   UNL     1      45.981   1.854   8.302  0.00  0.00    +0.000 A 
ATOM     18  C   UNL     1      45.079   2.419   9.205  0.00  0.00    +0.000 A 
ATOM     19  C   UNL     1      44.874   3.790   9.165  0.00  0.00    +0.000 A 
ATOM     20  N   UNL     1      45.508   4.613   8.300  0.00  0.00    +0.000 NA
ATOM     21  C   UNL     1      46.385   4.044   7.442  0.00  0.00    +0.000 A 
BRANCH  16  23
ATOM     22  N   UNL     1      47.915   3.009   5.346  0.00  0.00    +0.000 N 
ATOM     23  C   UNL     1      47.635   2.200   6.410  0.00  0.00    +0.000 C 
ATOM     24  O   UNL     1      48.211   1.132   6.558  0.00  0.00    +0.000 OA
ATOM     25  H   UNL     1      48.676   2.709   4.749  0.00  0.00    +0.000 HD
ATOM     26  H   UNL     1      47.666   3.988   5.324  0.00  0.00    +0.000 HD
ENDBRANCH  16  23
ENDBRANCH  15  19
ENDBRANCH   1  15
TORSDOF 5
ENDMDL
MODEL 6
REMARK VINA RESULT:    -7.411      3.606      8.461
REMARK INTER + INTRA:         -10.274
REMARK INTER:                  -9.741
REMARK INTRA:                  -0.533
REMARK UNBOUND:                -0.697
REMARK  Name = 
REMARK  5 active torsions:
REMARK  status: ('A' for Active; 'I' for Inactive)
REMARK    1  A    between atoms: C_2  and  C_4
REMARK    2  A    between atoms: C_7  and  O_8
REMARK    3  A    between atoms: O_8  and  C_9
REMARK    4  A    between atoms: C_9  and  C_10
REMARK    5  A    between atoms: C_14  and  C_15
REMARK                            x       y       z     vdW  Elec       q    Type
REMARK                         _______ _______ _______ _____ _____    ______ ____
ROOT
ATOM      1  C   UNL     1      45.837   5.121  14.044  0.00  0.00    +0.000 C 
ENDROOT
BRANCH   1   2
ATOM      2  C   UNL     1      44.978   4.808  12.841  0.00  0.00    +0.000 A 
ATOM      3  C   UNL     1      43.642   5.227  12.812  0.00  0.00    +0.000 A 
ATOM      4  C   UNL     1      42.867   5.031  11.672  0.00  0.00    +0.000 A 
ATOM      5  C   UNL     1      43.426   4.432  10.541  0.00  0.00    +0.000 A 
ATOM      6  C   UNL     1      44.772   4.028  10.518  0.00  0.00    +0.000 A 
ATOM      7  C   UNL     1      45.527   4.216  11.692  0.00  0.00    +0.000 A 
BRANCH   6   8
ATOM      8  C   UNL     1      45.407   3.506   9.294  0.00  0.00    +0.000 A 
ATOM      9  C   UNL     1      45.738   4.329   8.211  0.00  0.00    +0.000 A 
ATOM     10  N   UNL     1      46.232   3.897   7.020  0.00  0.00    +0.000 NA
ATOM     11  C   UNL     1      46.418   2.565   6.899  0.00  0.00    +0.000 A 
ATOM     12  C   UNL     1      46.150   1.665   7.913  0.00  0.00    +0.000 A 
ATOM     13  F   UNL     1      46.356   0.354   7.734  0.00  0.00    +0.000 F 
ATOM     14  C   UNL     1      45.645   2.135   9.117  0.00  0.00    +0.000 A 
ENDBRANCH   6   8
ENDBRANCH   1   2
BRANCH   1  15
ATOM     15  O   UNL     1      46.666   4.010  14.400  0.00  0.00    +0.000 OA
BRANCH  15  19
ATOM     16  C   UNL     1      48.376   4.552  18.108  0.00  0.00    +0.000 A 
ATOM     17  C   UNL     1      48.630   5.474  17.090  0.00  0.00    +0.000 A 
ATOM     18  C   UNL     1      48.046   5.282  15.837  0.00  0.00    +0.000 A 
ATOM     19  C   UNL     1      47.229   4.178  15.650  0.00  0.00    +0.000 A 
ATOM     20  N   UNL     1      46.970   3.270  16.617  0.00  0.00    +0.000 NA
ATOM     21  C   UNL     1      47.556   3.472  17.820  0.00  0.00    +0.000 A 
BRANCH  16  23
ATOM     22  N   UNL     1      48.559   3.712  20.384  0.00  0.00    +0.000 N 
ATOM     23  C   UNL     1      48.953   4.643  19.465  0.00  0.00    +0.000 C 
ATOM     24  O   UNL     1      49.783   5.495  19.747  0.00  0.00    +0.000 OA
ATOM     25  H   UNL     1      49.053   3.725  21.268  0.00  0.00    +0.000 HD
ATOM     26  H   UNL     1      48.091   2.855  20.126  0.00  0.00    +0.000 HD
ENDBRANCH  16  23
ENDBRANCH  15  19
ENDBRANCH   1  15
TORSDOF 5
ENDMDL
MODEL 7
REMARK VINA RESULT:    -7.328      3.561      7.893
REMARK INTER + INTRA:         -10.167
REMARK INTER:                  -9.538
REMARK INTRA:                  -0.629
REMARK UNBOUND:                -0.697
REMARK  Name = 
REMARK  5 active torsions:
REMARK  status: ('A' for Active; 'I' for Inactive)
REMARK    1  A    between atoms: C_2  and  C_4
REMARK    2  A    between atoms: C_7  and  O_8
REMARK    3  A    between atoms: O_8  and  C_9
REMARK    4  A    between atoms: C_9  and  C_10
REMARK    5  A    between atoms: C_14  and  C_15
REMARK                            x       y       z     vdW  Elec       q    Type
REMARK                         _______ _______ _______ _____ _____    ______ ____
ROOT
ATOM      1  C   UNL     1      46.132   6.942  12.778  0.00  0.00    +0.000 C 
ENDROOT
BRANCH   1   2
ATOM      2  C   UNL     1      45.182   6.045  12.018  0.00  0.00    +0.000 A 
ATOM      3  C   UNL     1      43.799   6.200  12.180  0.00  0.00    +0.000 A 
ATOM      4  C   UNL     1      42.911   5.448  11.416  0.00  0.00    +0.000 A 
ATOM      5  C   UNL     1      43.397   4.547  10.466  0.00  0.00    +0.000 A 
ATOM      6  C   UNL     1      44.776   4.386  10.250  0.00  0.00    +0.000 A 
ATOM      7  C   UNL     1      45.652   5.141  11.052  0.00  0.00    +0.000 A 
BRANCH   6   8
ATOM      8  C   UNL     1      45.299   3.529   9.170  0.00  0.00    +0.000 A 
ATOM      9  C   UNL     1      45.414   2.139   9.305  0.00  0.00    +0.000 A 
ATOM     10  N   UNL     1      45.977   1.307   8.390  0.00  0.00    +0.000 NA
ATOM     11  C   UNL     1      46.448   1.887   7.264  0.00  0.00    +0.000 A 
ATOM     12  C   UNL     1      46.361   3.244   7.017  0.00  0.00    +0.000 A 
ATOM     13  F   UNL     1      46.845   3.763   5.881  0.00  0.00    +0.000 F 
ATOM     14  C   UNL     1      45.783   4.069   7.970  0.00  0.00    +0.000 A 
ENDBRANCH   6   8
ENDBRANCH   1   2
BRANCH   1  15
ATOM     15  O   UNL     1      47.438   6.363  12.870  0.00  0.00    +0.000 OA
BRANCH  15  19
ATOM     16  C   UNL     1      48.092   4.756  16.606  0.00  0.00    +0.000 A 
ATOM     17  C   UNL     1      47.205   4.126  15.730  0.00  0.00    +0.000 A 
ATOM     18  C   UNL     1      46.989   4.677  14.466  0.00  0.00    +0.000 A 
ATOM     19  C   UNL     1      47.671   5.836  14.125  0.00  0.00    +0.000 A 
ATOM     20  N   UNL     1      48.531   6.466  14.955  0.00  0.00    +0.000 NA
ATOM     21  C   UNL     1      48.716   5.918  16.179  0.00  0.00    +0.000 A 
BRANCH  16  23
ATOM     22  N   UNL     1      47.552   3.328  18.500  0.00  0.00    +0.000 N 
ATOM     23  C   UNL     1      48.383   4.275  17.972  0.00  0.00    +0.000 C 
ATOM     24  O   UNL     1      49.354   4.679  18.595  0.00  0.00    +0.000 OA
ATOM     25  H   UNL     1      47.837   2.932  19.387  0.00  0.00    +0.000 HD
ATOM     26  H   UNL     1      46.911   2.788  17.935  0.00  0.00    +0.000 HD
ENDBRANCH  16  23
ENDBRANCH  15  19
ENDBRANCH   1  15
TORSDOF 5
ENDMDL
MODEL 8
REMARK VINA RESULT:    -7.244      3.590      7.804
REMARK INTER + INTRA:         -10.058
REMARK INTER:                  -9.459
REMARK INTRA:                  -0.600
REMARK UNBOUND:                -0.697
REMARK  Name = 
REMARK  5 active torsions:
REMARK  status: ('A' for Active; 'I' for Inactive)
REMARK    1  A    between atoms: C_2  and  C_4
REMARK    2  A    between atoms: C_7  and  O_8
REMARK    3  A    between atoms: O_8  and  C_9
REMARK    4  A    between atoms: C_9  and  C_10
REMARK    5  A    between atoms: C_14  and  C_15
REMARK                            x       y       z     vdW  Elec       q    Type
REMARK                         _______ _______ _______ _____ _____    ______ ____
ROOT
ATOM      1  C   UNL     1      44.234   6.506  11.332  0.00  0.00    +0.000 C 
ENDROOT
BRANCH   1   2
ATOM      2  C   UNL     1      44.258   5.026  11.026  0.00  0.00    +0.000 A 
ATOM      3  C   UNL     1      43.418   4.156  11.733  0.00  0.00    +0.000 A 
ATOM      4  C   UNL     1      43.358   2.806  11.398  0.00  0.00    +0.000 A 
ATOM      5  C   UNL     1      44.122   2.315  10.336  0.00  0.00    +0.000 A 
ATOM      6  C   UNL     1      44.951   3.162   9.581  0.00  0.00    +0.000 A 
ATOM      7  C   UNL     1      45.012   4.517   9.956  0.00  0.00    +0.000 A 
BRANCH   6   8
ATOM      8  C   UNL     1      45.670   2.682   8.386  0.00  0.00    +0.000 A 
ATOM      9  C   UNL     1      46.205   1.390   8.300  0.00  0.00    +0.000 A 
ATOM     10  N   UNL     1      46.960   0.921   7.272  0.00  0.00    +0.000 NA
ATOM     11  C   UNL     1      47.192   1.784   6.259  0.00  0.00    +0.000 A 
ATOM     12  C   UNL     1      46.689   3.071   6.228  0.00  0.00    +0.000 A 
ATOM     13  F   UNL     1      46.951   3.881   5.195  0.00  0.00    +0.000 F 
ATOM     14  C   UNL     1      45.923   3.523   7.292  0.00  0.00    +0.000 A 
ENDBRANCH   6   8
ENDBRANCH   1   2
BRANCH   1  15
ATOM     15  O   UNL     1      45.482   7.127  11.008  0.00  0.00    +0.000 OA
BRANCH  15  19
ATOM     16  C   UNL     1      47.985   7.307  14.275  0.00  0.00    +0.000 A 
ATOM     17  C   UNL     1      47.174   8.401  13.967  0.00  0.00    +0.000 A 
ATOM     18  C   UNL     1      46.329   8.332  12.857  0.00  0.00    +0.000 A 
ATOM     19  C   UNL     1      46.325   7.170  12.101  0.00  0.00    +0.000 A 
ATOM     20  N   UNL     1      47.102   6.099  12.377  0.00  0.00    +0.000 NA
ATOM     21  C   UNL     1      47.920   6.194  13.451  0.00  0.00    +0.000 A 
BRANCH  16  23
ATOM     22  N   UNL     1      48.659   8.079  16.481  0.00  0.00    +0.000 N 
ATOM     23  C   UNL     1      48.929   7.275  15.410  0.00  0.00    +0.000 C 
ATOM     24  O   UNL     1      49.898   6.529  15.411  0.00  0.00    +0.000 OA
ATOM     25  H   UNL     1      49.255   7.955  17.291  0.00  0.00    +0.000 HD
ATOM     26  H   UNL     1      47.754   8.502  16.632  0.00  0.00    +0.000 HD
ENDBRANCH  16  23
ENDBRANCH  15  19
ENDBRANCH   1  15
TORSDOF 5
ENDMDL
MODEL 9
REMARK VINA RESULT:    -7.134      4.241      7.844
REMARK INTER + INTRA:          -9.917
REMARK INTER:                  -9.179
REMARK INTRA:                  -0.737
REMARK UNBOUND:                -0.697
REMARK  Name = 
REMARK  5 active torsions:
REMARK  status: ('A' for Active; 'I' for Inactive)
REMARK    1  A    between atoms: C_2  and  C_4
REMARK    2  A    between atoms: C_7  and  O_8
REMARK    3  A    between atoms: O_8  and  C_9
REMARK    4  A    between atoms: C_9  and  C_10
REMARK    5  A    between atoms: C_14  and  C_15
REMARK                            x       y       z     vdW  Elec       q    Type
REMARK                         _______ _______ _______ _____ _____    ______ ____
ROOT
ATOM      1  C   UNL     1      48.860   6.539  15.804  0.00  0.00    +0.000 C 
ENDROOT
BRANCH   1   2
ATOM      2  C   UNL     1      48.323   6.713  14.402  0.00  0.00    +0.000 A 
ATOM      3  C   UNL     1      48.997   7.543  13.497  0.00  0.00    +0.000 A 
ATOM      4  C   UNL     1      48.570   7.638  12.175  0.00  0.00    +0.000 A 
ATOM      5  C   UNL     1      47.476   6.887  11.738  0.00  0.00    +0.000 A 
ATOM      6  C   UNL     1      46.794   6.018  12.607  0.00  0.00    +0.000 A 
ATOM      7  C   UNL     1      47.230   5.960  13.944  0.00  0.00    +0.000 A 
BRANCH   6   8
ATOM      8  C   UNL     1      45.715   5.133  12.131  0.00  0.00    +0.000 A 
ATOM      9  C   UNL     1      45.165   4.123  12.931  0.00  0.00    +0.000 A 
ATOM     10  N   UNL     1      44.242   3.213  12.521  0.00  0.00    +0.000 NA
ATOM     11  C   UNL     1      43.831   3.316  11.238  0.00  0.00    +0.000 A 
ATOM     12  C   UNL     1      44.287   4.291  10.371  0.00  0.00    +0.000 A 
ATOM     13  F   UNL     1      43.840   4.344   9.110  0.00  0.00    +0.000 F 
ATOM     14  C   UNL     1      45.230   5.205  10.816  0.00  0.00    +0.000 A 
ENDBRANCH   6   8
ENDBRANCH   1   2
BRANCH   1  15
ATOM     15  O   UNL     1      48.244   5.429  16.466  0.00  0.00    +0.000 OA
BRANCH  15  19
ATOM     16  C   UNL     1      50.958   2.470  17.390  0.00  0.00    +0.000 A 
ATOM     17  C   UNL     1      49.649   2.124  17.050  0.00  0.00    +0.000 A 
ATOM     18  C   UNL     1      48.735   3.133  16.738  0.00  0.00    +0.000 A 
ATOM     19  C   UNL     1      49.167   4.450  16.776  0.00  0.00    +0.000 A 
ATOM     20  N   UNL     1      50.427   4.811  17.105  0.00  0.00    +0.000 NA
ATOM     21  C   UNL     1      51.291   3.816  17.413  0.00  0.00    +0.000 A 
BRANCH  16  23
ATOM     22  N   UNL     1      51.596   0.231  18.092  0.00  0.00    +0.000 N 
ATOM     23  C   UNL     1      52.001   1.491  17.756  0.00  0.00    +0.000 C 
ATOM     24  O   UNL     1      53.188   1.784  17.723  0.00  0.00    +0.000 OA
ATOM     25  H   UNL     1      52.333  -0.451  18.226  0.00  0.00    +0.000 HD
ATOM     26  H   UNL     1      50.672  -0.120  17.882  0.00  0.00    +0.000 HD
ENDBRANCH  16  23
ENDBRANCH  15  19
ENDBRANCH   1  15
TORSDOF 5
ENDMDL
