MODEL 1
REMARK VINA RESULT:    -7.514      0.000      0.000
REMARK INTER + INTRA:         -12.355
REMARK INTER:                 -10.809
REMARK INTRA:                  -1.546
REMARK UNBOUND:                -1.546
REMARK  Name = 
REMARK  10 active torsions:
REMARK  status: ('A' for Active; 'I' for Inactive)
REMARK    1  A    between atoms: C_1  and  C_2
REMARK    2  A    between atoms: C_2  and  C_3
REMARK    3  A    between atoms: C_2  and  C_4
REMARK    4  A    between atoms: C_2  and  C_21
REMARK    5  A    between atoms: C_4  and  N_5
REMARK    6  A    between atoms: N_5  and  C_6
REMARK    7  A    between atoms: C_10  and  C_11
REMARK    8  A    between atoms: C_15  and  C_16
REMARK    9  A    between atoms: C_16  and  O_18
REMARK   10  A    between atoms: C_25  and  C_26
REMARK                            x       y       z     vdW  Elec       q    Type
REMARK                         _______ _______ _______ _____ _____    ______ ____
ROOT
ATOM      1  N   UNL     1      46.283   4.240  12.380  0.00  0.00    +0.000 N 
ATOM      2  H   UNL     1      47.000   3.548  12.186  0.00  0.00    +0.000 HD
ENDROOT
BRANCH   1   3
ATOM      3  C   UNL     1      46.740   5.472  12.807  0.00  0.00    +0.000 A 
ATOM      4  C   UNL     1      47.764   5.641  13.737  0.00  0.00    +0.000 A 
ATOM      5  C   UNL     1      48.131   6.915  14.171  0.00  0.00    +0.000 A 
ATOM      6  C   UNL     1      47.465   8.040  13.683  0.00  0.00    +0.000 A 
ATOM      7  C   UNL     1      46.423   7.920  12.751  0.00  0.00    +0.000 A 
ATOM      8  C   UNL     1      46.067   6.618  12.355  0.00  0.00    +0.000 A 
BRANCH   7   9
ATOM      9  C   UNL     1      45.766   9.103  12.146  0.00  0.00    +0.000 A 
ATOM     10  C   UNL     1      46.474  10.308  11.972  0.00  0.00    +0.000 A 
ATOM     11  C   UNL     1      45.901  11.413  11.338  0.00  0.00    +0.000 A 
ATOM     12  C   UNL     1      44.605  11.336  10.842  0.00  0.00    +0.000 A 
ATOM     13  C   UNL     1      43.882  10.148  10.983  0.00  0.00    +0.000 A 
ATOM     14  C   UNL     1      44.448   9.055  11.657  0.00  0.00    +0.000 A 
BRANCH  13  15
ATOM     15  C   UNL     1      42.512  10.001  10.435  0.00  0.00    +0.000 C 
ATOM     16  O   UNL     1      42.066  10.712   9.551  0.00  0.00    +0.000 OA
BRANCH  15  17
ATOM     17  O   UNL     1      41.783   9.050  11.057  0.00  0.00    +0.000 OA
ATOM     18  H   UNL     1      41.886   8.149  10.700  0.00  0.00    +0.000 HD
ENDBRANCH  15  17
ENDBRANCH  13  15
ENDBRANCH   7   9
ENDBRANCH   1   3
BRANCH   1  19
ATOM     19  C   UNL     1      44.944   3.735  12.658  0.00  0.00    +0.000 C 
BRANCH  19  21
ATOM     20  C   UNL     1      43.369   2.213  11.405  0.00  0.00    +0.000 C 
ATOM     21  C   UNL     1      44.076   3.593  11.363  0.00  0.00    +0.000 C 
ATOM     22  C   UNL     1      42.991   4.691  11.445  0.00  0.00    +0.000 C 
BRANCH  21  23
ATOM     23  C   UNL     1      44.851   3.730  10.033  0.00  0.00    +0.000 A 
ATOM     24  C   UNL     1      45.211   4.972   9.485  0.00  0.00    +0.000 A 
ATOM     25  C   UNL     1      46.035   5.063   8.358  0.00  0.00    +0.000 A 
ATOM     26  C   UNL     1      46.500   3.911   7.736  0.00  0.00    +0.000 A 
ATOM     27  C   UNL     1      46.125   2.654   8.220  0.00  0.00    +0.000 A 
ATOM     28  C   UNL     1      45.285   2.579   9.347  0.00  0.00    +0.000 A 
BRANCH  27  29
ATOM     29  C   UNL     1      46.631   1.385   7.581  0.00  0.00    +0.000 C 
ATOM     30  F   UNL     1      46.390   1.311   6.243  0.00  0.00    +0.000 F 
ATOM     31  F   UNL     1      47.978   1.237   7.725  0.00  0.00    +0.000 F 
ATOM     32  F   UNL     1      46.074   0.268   8.125  0.00  0.00    +0.000 F 
ENDBRANCH  27  29
ENDBRANCH  21  23
ENDBRANCH  19  21
ENDBRANCH   1  19
TORSDOF 8
ENDMDL
MODEL 2
REMARK VINA RESULT:    -7.352      3.622      5.674
REMARK INTER + INTRA:         -12.123
REMARK INTER:                 -11.006
REMARK INTRA:                  -1.116
REMARK UNBOUND:                -1.546
REMARK  Name = 
REMARK  10 active torsions:
REMARK  status: ('A' for Active; 'I' for Inactive)
REMARK    1  A    between atoms: C_1  and  C_2
REMARK    2  A    between atoms: C_2  and  C_3
REMARK    3  A    between atoms: C_2  and  C_4
REMARK    4  A    between atoms: C_2  and  C_21
REMARK    5  A    between atoms: C_4  and  N_5
REMARK    6  A    between atoms: N_5  and  C_6
REMARK    7  A    between atoms: C_10  and  C_11
REMARK    8  A    between atoms: C_15  and  C_16
REMARK    9  A    between atoms: C_16  and  O_18
REMARK   10  A    between atoms: C_25  and  C_26
REMARK                            x       y       z     vdW  Elec       q    Type
REMARK                         _______ _______ _______ _____ _____    ______ ____
ROOT
ATOM      1  N   UNL     1      46.743   6.316  11.565  0.00  0.00    +0.000 N 
ATOM      2  H   UNL     1      47.033   5.351  11.441  0.00  0.00    +0.000 HD
ENDROOT
BRANCH   1   3
ATOM      3  C   UNL     1      47.493   7.057  12.459  0.00  0.00    +0.000 A 
ATOM      4  C   UNL     1      47.985   8.332  12.189  0.00  0.00    +0.000 A 
ATOM      5  C   UNL     1      48.790   8.997  13.114  0.00  0.00    +0.000 A 
ATOM      6  C   UNL     1      49.122   8.383  14.323  0.00  0.00    +0.000 A 
ATOM      7  C   UNL     1      48.656   7.096  14.636  0.00  0.00    +0.000 A 
ATOM      8  C   UNL     1      47.866   6.450  13.668  0.00  0.00    +0.000 A 
BRANCH   7   9
ATOM      9  C   UNL     1      48.915   6.462  15.951  0.00  0.00    +0.000 A 
ATOM     10  C   UNL     1      49.764   7.078  16.891  0.00  0.00    +0.000 A 
ATOM     11  C   UNL     1      49.966   6.539  18.164  0.00  0.00    +0.000 A 
ATOM     12  C   UNL     1      49.305   5.375  18.539  0.00  0.00    +0.000 A 
ATOM     13  C   UNL     1      48.441   4.750  17.635  0.00  0.00    +0.000 A 
ATOM     14  C   UNL     1      48.275   5.273  16.343  0.00  0.00    +0.000 A 
BRANCH  13  15
ATOM     15  C   UNL     1      47.682   3.530  18.001  0.00  0.00    +0.000 C 
ATOM     16  O   UNL     1      46.701   3.145  17.388  0.00  0.00    +0.000 OA
BRANCH  15  17
ATOM     17  O   UNL     1      48.138   2.927  19.119  0.00  0.00    +0.000 OA
ATOM     18  H   UNL     1      49.007   2.494  19.031  0.00  0.00    +0.000 HD
ENDBRANCH  15  17
ENDBRANCH  13  15
ENDBRANCH   7   9
ENDBRANCH   1   3
BRANCH   1  19
ATOM     19  C   UNL     1      45.368   6.638  11.203  0.00  0.00    +0.000 C 
BRANCH  19  21
ATOM     20  C   UNL     1      44.485   5.039  12.944  0.00  0.00    +0.000 C 
ATOM     21  C   UNL     1      44.388   5.442  11.449  0.00  0.00    +0.000 C 
ATOM     22  C   UNL     1      42.965   5.986  11.190  0.00  0.00    +0.000 C 
BRANCH  21  23
ATOM     23  C   UNL     1      44.634   4.197  10.568  0.00  0.00    +0.000 A 
ATOM     24  C   UNL     1      43.961   2.980  10.763  0.00  0.00    +0.000 A 
ATOM     25  C   UNL     1      44.096   1.917   9.863  0.00  0.00    +0.000 A 
ATOM     26  C   UNL     1      44.927   2.037   8.757  0.00  0.00    +0.000 A 
ATOM     27  C   UNL     1      45.654   3.214   8.553  0.00  0.00    +0.000 A 
ATOM     28  C   UNL     1      45.518   4.270   9.473  0.00  0.00    +0.000 A 
BRANCH  27  29
ATOM     29  C   UNL     1      46.548   3.384   7.350  0.00  0.00    +0.000 C 
ATOM     30  F   UNL     1      45.898   3.265   6.160  0.00  0.00    +0.000 F 
ATOM     31  F   UNL     1      47.151   4.606   7.325  0.00  0.00    +0.000 F 
ATOM     32  F   UNL     1      47.558   2.471   7.318  0.00  0.00    +0.000 F 
ENDBRANCH  27  29
ENDBRANCH  21  23
ENDBRANCH  19  21
ENDBRANCH   1  19
TORSDOF 8
ENDMDL
MODEL 3
REMARK VINA RESULT:    -7.319      4.292      7.755
REMARK INTER + INTRA:         -12.075
REMARK INTER:                 -10.632
REMARK INTRA:                  -1.443
REMARK UNBOUND:                -1.546
REMARK  Name = 
REMARK  10 active torsions:
REMARK  status: ('A' for Active; 'I' for Inactive)
REMARK    1  A    between atoms: C_1  and  C_2
REMARK    2  A    between atoms: C_2  and  C_3
REMARK    3  A    between atoms: C_2  and  C_4
REMARK    4  A    between atoms: C_2  and  C_21
REMARK    5  A    between atoms: C_4  and  N_5
REMARK    6  A    between atoms: N_5  and  C_6
REMARK    7  A    between atoms: C_10  and  C_11
REMARK    8  A    between atoms: C_15  and  C_16
REMARK    9  A    between atoms: C_16  and  O_18
REMARK   10  A    between atoms: C_25  and  C_26
REMARK                            x       y       z     vdW  Elec       q    Type
REMARK                         _______ _______ _______ _____ _____    ______ ____
ROOT
ATOM      1  N   UNL     1      47.421   8.438  14.266  0.00  0.00    +0.000 N 
ATOM      2  H   UNL     1      47.070   8.820  15.139  0.00  0.00    +0.000 HD
ENDROOT
BRANCH   1   3
ATOM      3  C   UNL     1      46.479   8.259  13.270  0.00  0.00    +0.000 A 
ATOM      4  C   UNL     1      45.902   9.302  12.550  0.00  0.00    +0.000 A 
ATOM      5  C   UNL     1      44.910   9.052  11.601  0.00  0.00    +0.000 A 
ATOM      6  C   UNL     1      44.476   7.746  11.370  0.00  0.00    +0.000 A 
ATOM      7  C   UNL     1      45.023   6.663  12.075  0.00  0.00    +0.000 A 
ATOM      8  C   UNL     1      46.004   6.958  13.039  0.00  0.00    +0.000 A 
BRANCH   7   9
ATOM      9  C   UNL     1      44.648   5.259  11.780  0.00  0.00    +0.000 A 
ATOM     10  C   UNL     1      43.863   4.520  12.686  0.00  0.00    +0.000 A 
ATOM     11  C   UNL     1      43.434   3.222  12.398  0.00  0.00    +0.000 A 
ATOM     12  C   UNL     1      43.763   2.634  11.182  0.00  0.00    +0.000 A 
ATOM     13  C   UNL     1      44.525   3.349  10.254  0.00  0.00    +0.000 A 
ATOM     14  C   UNL     1      44.988   4.637  10.566  0.00  0.00    +0.000 A 
BRANCH  13  15
ATOM     15  C   UNL     1      44.867   2.783   8.927  0.00  0.00    +0.000 C 
ATOM     16  O   UNL     1      45.656   1.865   8.776  0.00  0.00    +0.000 OA
BRANCH  15  17
ATOM     17  O   UNL     1      44.276   3.425   7.898  0.00  0.00    +0.000 OA
ATOM     18  H   UNL     1      44.706   4.258   7.627  0.00  0.00    +0.000 HD
ENDBRANCH  15  17
ENDBRANCH  13  15
ENDBRANCH   7   9
ENDBRANCH   1   3
BRANCH   1  19
ATOM     19  C   UNL     1      48.677   7.703  14.331  0.00  0.00    +0.000 C 
BRANCH  19  21
ATOM     20  C   UNL     1      50.879   7.538  15.553  0.00  0.00    +0.000 C 
ATOM     21  C   UNL     1      49.363   7.813  15.735  0.00  0.00    +0.000 C 
ATOM     22  C   UNL     1      49.193   9.282  16.188  0.00  0.00    +0.000 C 
BRANCH  21  23
ATOM     23  C   UNL     1      48.799   6.869  16.819  0.00  0.00    +0.000 A 
ATOM     24  C   UNL     1      48.329   7.329  18.061  0.00  0.00    +0.000 A 
ATOM     25  C   UNL     1      47.692   6.472  18.964  0.00  0.00    +0.000 A 
ATOM     26  C   UNL     1      47.530   5.126  18.659  0.00  0.00    +0.000 A 
ATOM     27  C   UNL     1      48.027   4.618  17.455  0.00  0.00    +0.000 A 
ATOM     28  C   UNL     1      48.678   5.490  16.561  0.00  0.00    +0.000 A 
BRANCH  27  29
ATOM     29  C   UNL     1      47.849   3.167  17.084  0.00  0.00    +0.000 C 
ATOM     30  F   UNL     1      46.776   2.576  17.679  0.00  0.00    +0.000 F 
ATOM     31  F   UNL     1      47.671   2.996  15.743  0.00  0.00    +0.000 F 
ATOM     32  F   UNL     1      48.928   2.406  17.415  0.00  0.00    +0.000 F 
ENDBRANCH  27  29
ENDBRANCH  21  23
ENDBRANCH  19  21
ENDBRANCH   1  19
TORSDOF 8
ENDMDL
MODEL 4
REMARK VINA RESULT:    -7.251      4.289      7.551
REMARK INTER + INTRA:         -11.977
REMARK INTER:                  -9.652
REMARK INTRA:                  -2.325
REMARK UNBOUND:                -1.546
REMARK  Name = 
REMARK  10 active torsions:
REMARK  status: ('A' for Active; 'I' for Inactive)
REMARK    1  A    between atoms: C_1  and  C_2
REMARK    2  A    between atoms: C_2  and  C_3
REMARK    3  A    between atoms: C_2  and  C_4
REMARK    4  A    between atoms: C_2  and  C_21
REMARK    5  A    between atoms: C_4  and  N_5
REMARK    6  A    between atoms: N_5  and  C_6
REMARK    7  A    between atoms: C_10  and  C_11
REMARK    8  A    between atoms: C_15  and  C_16
REMARK    9  A    between atoms: C_16  and  O_18
REMARK   10  A    between atoms: C_25  and  C_26
REMARK                            x       y       z     vdW  Elec       q    Type
REMARK                         _______ _______ _______ _____ _____    ______ ____
ROOT
ATOM      1  N   UNL     1      50.809   7.577  14.690  0.00  0.00    +0.000 N 
ATOM      2  H   UNL     1      51.675   7.108  14.443  0.00  0.00    +0.000 HD
ENDROOT
BRANCH   1   3
ATOM      3  C   UNL     1      49.889   7.712  13.667  0.00  0.00    +0.000 A 
ATOM      4  C   UNL     1      49.899   8.758  12.747  0.00  0.00    +0.000 A 
ATOM      5  C   UNL     1      48.900   8.867  11.779  0.00  0.00    +0.000 A 
ATOM      6  C   UNL     1      47.869   7.927  11.728  0.00  0.00    +0.000 A 
ATOM      7  C   UNL     1      47.813   6.860  12.637  0.00  0.00    +0.000 A 
ATOM      8  C   UNL     1      48.825   6.798  13.612  0.00  0.00    +0.000 A 
BRANCH   7   9
ATOM      9  C   UNL     1      46.783   5.798  12.544  0.00  0.00    +0.000 A 
ATOM     10  C   UNL     1      46.938   4.583  13.239  0.00  0.00    +0.000 A 
ATOM     11  C   UNL     1      45.949   3.597  13.227  0.00  0.00    +0.000 A 
ATOM     12  C   UNL     1      44.764   3.809  12.532  0.00  0.00    +0.000 A 
ATOM     13  C   UNL     1      44.572   5.012  11.847  0.00  0.00    +0.000 A 
ATOM     14  C   UNL     1      45.586   5.982  11.828  0.00  0.00    +0.000 A 
BRANCH  13  15
ATOM     15  C   UNL     1      43.310   5.303  11.125  0.00  0.00    +0.000 C 
ATOM     16  O   UNL     1      42.264   5.575  11.690  0.00  0.00    +0.000 OA
BRANCH  15  17
ATOM     17  O   UNL     1      43.413   5.170   9.786  0.00  0.00    +0.000 OA
ATOM     18  H   UNL     1      42.744   5.656   9.268  0.00  0.00    +0.000 HD
ENDBRANCH  15  17
ENDBRANCH  13  15
ENDBRANCH   7   9
ENDBRANCH   1   3
BRANCH   1  19
ATOM     19  C   UNL     1      50.843   8.439  15.863  0.00  0.00    +0.000 C 
BRANCH  19  21
ATOM     20  C   UNL     1      50.794   8.378  18.386  0.00  0.00    +0.000 C 
ATOM     21  C   UNL     1      50.146   7.788  17.105  0.00  0.00    +0.000 C 
ATOM     22  C   UNL     1      48.669   8.242  17.062  0.00  0.00    +0.000 C 
BRANCH  21  23
ATOM     23  C   UNL     1      50.212   6.246  17.164  0.00  0.00    +0.000 A 
ATOM     24  C   UNL     1      51.362   5.546  17.564  0.00  0.00    +0.000 A 
ATOM     25  C   UNL     1      51.349   4.160  17.746  0.00  0.00    +0.000 A 
ATOM     26  C   UNL     1      50.188   3.433  17.510  0.00  0.00    +0.000 A 
ATOM     27  C   UNL     1      49.034   4.085  17.063  0.00  0.00    +0.000 A 
ATOM     28  C   UNL     1      49.067   5.479  16.872  0.00  0.00    +0.000 A 
BRANCH  27  29
ATOM     29  C   UNL     1      47.753   3.328  16.819  0.00  0.00    +0.000 C 
ATOM     30  F   UNL     1      47.813   2.473  15.761  0.00  0.00    +0.000 F 
ATOM     31  F   UNL     1      47.390   2.569  17.891  0.00  0.00    +0.000 F 
ATOM     32  F   UNL     1      46.698   4.153  16.574  0.00  0.00    +0.000 F 
ENDBRANCH  27  29
ENDBRANCH  21  23
ENDBRANCH  19  21
ENDBRANCH   1  19
TORSDOF 8
ENDMDL
MODEL 5
REMARK VINA RESULT:    -7.054      4.947      7.864
REMARK INTER + INTRA:         -11.693
REMARK INTER:                  -9.920
REMARK INTRA:                  -1.773
REMARK UNBOUND:                -1.546
REMARK  Name = 
REMARK  10 active torsions:
REMARK  status: ('A' for Active; 'I' for Inactive)
REMARK    1  A    between atoms: C_1  and  C_2
REMARK    2  A    between atoms: C_2  and  C_3
REMARK    3  A    between atoms: C_2  and  C_4
REMARK    4  A    between atoms: C_2  and  C_21
REMARK    5  A    between atoms: C_4  and  N_5
REMARK    6  A    between atoms: N_5  and  C_6
REMARK    7  A    between atoms: C_10  and  C_11
REMARK    8  A    between atoms: C_15  and  C_16
REMARK    9  A    between atoms: C_16  and  O_18
REMARK   10  A    between atoms: C_25  and  C_26
REMARK                            x       y       z     vdW  Elec       q    Type
REMARK                         _______ _______ _______ _____ _____    ______ ____
ROOT
ATOM      1  N   UNL     1      50.334   7.855  15.587  0.00  0.00    +0.000 N 
ATOM      2  H   UNL     1      49.579   7.946  16.259  0.00  0.00    +0.000 HD
ENDROOT
BRANCH   1   3
ATOM      3  C   UNL     1      49.948   7.769  14.262  0.00  0.00    +0.000 A 
ATOM      4  C   UNL     1      50.758   8.142  13.191  0.00  0.00    +0.000 A 
ATOM      5  C   UNL     1      50.280   8.089  11.882  0.00  0.00    +0.000 A 
ATOM      6  C   UNL     1      48.973   7.668  11.630  0.00  0.00    +0.000 A 
ATOM      7  C   UNL     1      48.118   7.289  12.676  0.00  0.00    +0.000 A 
ATOM      8  C   UNL     1      48.629   7.378  13.984  0.00  0.00    +0.000 A 
BRANCH   7   9
ATOM      9  C   UNL     1      46.760   6.748  12.427  0.00  0.00    +0.000 A 
ATOM     10  C   UNL     1      45.760   7.555  11.850  0.00  0.00    +0.000 A 
ATOM     11  C   UNL     1      44.496   7.048  11.537  0.00  0.00    +0.000 A 
ATOM     12  C   UNL     1      44.204   5.710  11.778  0.00  0.00    +0.000 A 
ATOM     13  C   UNL     1      45.181   4.880  12.333  0.00  0.00    +0.000 A 
ATOM     14  C   UNL     1      46.435   5.404  12.683  0.00  0.00    +0.000 A 
BRANCH  13  15
ATOM     15  C   UNL     1      44.933   3.437  12.571  0.00  0.00    +0.000 C 
ATOM     16  O   UNL     1      43.822   2.935  12.530  0.00  0.00    +0.000 OA
BRANCH  15  17
ATOM     17  O   UNL     1      46.044   2.747  12.904  0.00  0.00    +0.000 OA
ATOM     18  H   UNL     1      45.979   2.231  13.729  0.00  0.00    +0.000 HD
ENDBRANCH  15  17
ENDBRANCH  13  15
ENDBRANCH   7   9
ENDBRANCH   1   3
BRANCH   1  19
ATOM     19  C   UNL     1      51.604   7.349  16.091  0.00  0.00    +0.000 C 
BRANCH  19  21
ATOM     20  C   UNL     1      52.855   6.448  18.090  0.00  0.00    +0.000 C 
ATOM     21  C   UNL     1      51.448   6.590  17.452  0.00  0.00    +0.000 C 
ATOM     22  C   UNL     1      50.598   7.504  18.365  0.00  0.00    +0.000 C 
BRANCH  21  23
ATOM     23  C   UNL     1      50.787   5.197  17.357  0.00  0.00    +0.000 A 
ATOM     24  C   UNL     1      51.515   4.000  17.462  0.00  0.00    +0.000 A 
ATOM     25  C   UNL     1      50.875   2.757  17.517  0.00  0.00    +0.000 A 
ATOM     26  C   UNL     1      49.489   2.679  17.446  0.00  0.00    +0.000 A 
ATOM     27  C   UNL     1      48.731   3.843  17.292  0.00  0.00    +0.000 A 
ATOM     28  C   UNL     1      49.390   5.085  17.225  0.00  0.00    +0.000 A 
BRANCH  27  29
ATOM     29  C   UNL     1      47.224   3.794  17.233  0.00  0.00    +0.000 C 
ATOM     30  F   UNL     1      46.716   4.001  15.987  0.00  0.00    +0.000 F 
ATOM     31  F   UNL     1      46.732   2.590  17.640  0.00  0.00    +0.000 F 
ATOM     32  F   UNL     1      46.639   4.725  18.036  0.00  0.00    +0.000 F 
ENDBRANCH  27  29
ENDBRANCH  21  23
ENDBRANCH  19  21
ENDBRANCH   1  19
TORSDOF 8
ENDMDL
MODEL 6
REMARK VINA RESULT:    -7.041      3.699      5.452
REMARK INTER + INTRA:         -11.675
REMARK INTER:                 -10.367
REMARK INTRA:                  -1.307
REMARK UNBOUND:                -1.546
REMARK  Name = 
REMARK  10 active torsions:
REMARK  status: ('A' for Active; 'I' for Inactive)
REMARK    1  A    between atoms: C_1  and  C_2
REMARK    2  A    between atoms: C_2  and  C_3
REMARK    3  A    between atoms: C_2  and  C_4
REMARK    4  A    between atoms: C_2  and  C_21
REMARK    5  A    between atoms: C_4  and  N_5
REMARK    6  A    between atoms: N_5  and  C_6
REMARK    7  A    between atoms: C_10  and  C_11
REMARK    8  A    between atoms: C_15  and  C_16
REMARK    9  A    between atoms: C_16  and  O_18
REMARK   10  A    between atoms: C_25  and  C_26
REMARK                            x       y       z     vdW  Elec       q    Type
REMARK                         _______ _______ _______ _____ _____    ______ ____
ROOT
ATOM      1  N   UNL     1      44.878   5.378  12.996  0.00  0.00    +0.000 N 
ATOM      2  H   UNL     1      44.369   5.480  13.869  0.00  0.00    +0.000 HD
ENDROOT
BRANCH   1   3
ATOM      3  C   UNL     1      46.070   6.072  12.914  0.00  0.00    +0.000 A 
ATOM      4  C   UNL     1      46.461   6.815  11.802  0.00  0.00    +0.000 A 
ATOM      5  C   UNL     1      47.708   7.438  11.762  0.00  0.00    +0.000 A 
ATOM      6  C   UNL     1      48.588   7.315  12.838  0.00  0.00    +0.000 A 
ATOM      7  C   UNL     1      48.242   6.571  13.977  0.00  0.00    +0.000 A 
ATOM      8  C   UNL     1      46.985   5.939  13.970  0.00  0.00    +0.000 A 
BRANCH   7   9
ATOM      9  C   UNL     1      49.118   6.504  15.171  0.00  0.00    +0.000 A 
ATOM     10  C   UNL     1      50.305   7.260  15.235  0.00  0.00    +0.000 A 
ATOM     11  C   UNL     1      51.109   7.272  16.377  0.00  0.00    +0.000 A 
ATOM     12  C   UNL     1      50.735   6.540  17.499  0.00  0.00    +0.000 A 
ATOM     13  C   UNL     1      49.553   5.794  17.473  0.00  0.00    +0.000 A 
ATOM     14  C   UNL     1      48.771   5.753  16.309  0.00  0.00    +0.000 A 
BRANCH  13  15
ATOM     15  C   UNL     1      49.089   5.030  18.657  0.00  0.00    +0.000 C 
ATOM     16  O   UNL     1      48.059   5.286  19.255  0.00  0.00    +0.000 OA
BRANCH  15  17
ATOM     17  O   UNL     1      49.953   4.070  19.049  0.00  0.00    +0.000 OA
ATOM     18  H   UNL     1      50.823   4.392  19.350  0.00  0.00    +0.000 HD
ENDBRANCH  15  17
ENDBRANCH  13  15
ENDBRANCH   7   9
ENDBRANCH   1   3
BRANCH   1  19
ATOM     19  C   UNL     1      44.105   4.959  11.834  0.00  0.00    +0.000 C 
BRANCH  19  21
ATOM     20  C   UNL     1      45.585   2.965  12.281  0.00  0.00    +0.000 C 
ATOM     21  C   UNL     1      44.556   3.563  11.286  0.00  0.00    +0.000 C 
ATOM     22  C   UNL     1      43.297   2.665  11.299  0.00  0.00    +0.000 C 
BRANCH  21  23
ATOM     23  C   UNL     1      45.166   3.578   9.867  0.00  0.00    +0.000 A 
ATOM     24  C   UNL     1      45.413   4.764   9.156  0.00  0.00    +0.000 A 
ATOM     25  C   UNL     1      46.097   4.756   7.936  0.00  0.00    +0.000 A 
ATOM     26  C   UNL     1      46.531   3.557   7.384  0.00  0.00    +0.000 A 
ATOM     27  C   UNL     1      46.262   2.350   8.036  0.00  0.00    +0.000 A 
ATOM     28  C   UNL     1      45.561   2.373   9.256  0.00  0.00    +0.000 A 
BRANCH  27  29
ATOM     29  C   UNL     1      46.738   1.033   7.473  0.00  0.00    +0.000 C 
ATOM     30  F   UNL     1      48.064   0.798   7.674  0.00  0.00    +0.000 F 
ATOM     31  F   UNL     1      46.084  -0.029   8.025  0.00  0.00    +0.000 F 
ATOM     32  F   UNL     1      46.538   0.936   6.130  0.00  0.00    +0.000 F 
ENDBRANCH  27  29
ENDBRANCH  21  23
ENDBRANCH  19  21
ENDBRANCH   1  19
TORSDOF 8
ENDMDL
MODEL 7
REMARK VINA RESULT:    -6.860      4.935      8.049
REMARK INTER + INTRA:         -11.414
REMARK INTER:                  -9.810
REMARK INTRA:                  -1.604
REMARK UNBOUND:                -1.546
REMARK  Name = 
REMARK  10 active torsions:
REMARK  status: ('A' for Active; 'I' for Inactive)
REMARK    1  A    between atoms: C_1  and  C_2
REMARK    2  A    between atoms: C_2  and  C_3
REMARK    3  A    between atoms: C_2  and  C_4
REMARK    4  A    between atoms: C_2  and  C_21
REMARK    5  A    between atoms: C_4  and  N_5
REMARK    6  A    between atoms: N_5  and  C_6
REMARK    7  A    between atoms: C_10  and  C_11
REMARK    8  A    between atoms: C_15  and  C_16
REMARK    9  A    between atoms: C_16  and  O_18
REMARK   10  A    between atoms: C_25  and  C_26
REMARK                            x       y       z     vdW  Elec       q    Type
REMARK                         _______ _______ _______ _____ _____    ______ ____
ROOT
ATOM      1  N   UNL     1      47.784   8.005  12.214  0.00  0.00    +0.000 N 
ATOM      2  H   UNL     1      47.844   9.001  12.404  0.00  0.00    +0.000 HD
ENDROOT
BRANCH   1   3
ATOM      3  C   UNL     1      46.538   7.544  11.832  0.00  0.00    +0.000 A 
ATOM      4  C   UNL     1      45.344   8.199  12.124  0.00  0.00    +0.000 A 
ATOM      5  C   UNL     1      44.117   7.643  11.763  0.00  0.00    +0.000 A 
ATOM      6  C   UNL     1      44.072   6.410  11.109  0.00  0.00    +0.000 A 
ATOM      7  C   UNL     1      45.248   5.709  10.800  0.00  0.00    +0.000 A 
ATOM      8  C   UNL     1      46.464   6.292  11.201  0.00  0.00    +0.000 A 
BRANCH   7   9
ATOM      9  C   UNL     1      45.232   4.446  10.023  0.00  0.00    +0.000 A 
ATOM     10  C   UNL     1      44.474   3.343  10.462  0.00  0.00    +0.000 A 
ATOM     11  C   UNL     1      44.384   2.168   9.710  0.00  0.00    +0.000 A 
ATOM     12  C   UNL     1      45.035   2.073   8.486  0.00  0.00    +0.000 A 
ATOM     13  C   UNL     1      45.780   3.158   8.015  0.00  0.00    +0.000 A 
ATOM     14  C   UNL     1      45.902   4.320   8.793  0.00  0.00    +0.000 A 
BRANCH  13  15
ATOM     15  C   UNL     1      46.460   3.122   6.698  0.00  0.00    +0.000 C 
ATOM     16  O   UNL     1      46.750   2.086   6.124  0.00  0.00    +0.000 OA
BRANCH  15  17
ATOM     17  O   UNL     1      46.788   4.344   6.228  0.00  0.00    +0.000 OA
ATOM     18  H   UNL     1      46.200   5.068   6.510  0.00  0.00    +0.000 HD
ENDBRANCH  15  17
ENDBRANCH  13  15
ENDBRANCH   7   9
ENDBRANCH   1   3
BRANCH   1  19
ATOM     19  C   UNL     1      48.808   7.161  12.815  0.00  0.00    +0.000 C 
BRANCH  19  21
ATOM     20  C   UNL     1      50.422   7.508  14.724  0.00  0.00    +0.000 C 
ATOM     21  C   UNL     1      48.920   7.365  14.364  0.00  0.00    +0.000 C 
ATOM     22  C   UNL     1      48.222   8.708  14.677  0.00  0.00    +0.000 C 
BRANCH  21  23
ATOM     23  C   UNL     1      48.294   6.244  15.222  0.00  0.00    +0.000 A 
ATOM     24  C   UNL     1      47.449   5.257  14.689  0.00  0.00    +0.000 A 
ATOM     25  C   UNL     1      47.013   4.173  15.459  0.00  0.00    +0.000 A 
ATOM     26  C   UNL     1      47.392   4.063  16.791  0.00  0.00    +0.000 A 
ATOM     27  C   UNL     1      48.192   5.050  17.374  0.00  0.00    +0.000 A 
ATOM     28  C   UNL     1      48.612   6.141  16.591  0.00  0.00    +0.000 A 
BRANCH  27  29
ATOM     29  C   UNL     1      48.639   4.948  18.811  0.00  0.00    +0.000 C 
ATOM     30  F   UNL     1      49.700   5.745  19.115  0.00  0.00    +0.000 F 
ATOM     31  F   UNL     1      47.651   5.297  19.684  0.00  0.00    +0.000 F 
ATOM     32  F   UNL     1      49.009   3.684  19.155  0.00  0.00    +0.000 F 
ENDBRANCH  27  29
ENDBRANCH  21  23
ENDBRANCH  19  21
ENDBRANCH   1  19
TORSDOF 8
ENDMDL
MODEL 8
REMARK VINA RESULT:    -6.810      5.239      8.131
REMARK INTER + INTRA:         -11.343
REMARK INTER:                  -9.020
REMARK INTRA:                  -2.322
REMARK UNBOUND:                -1.546
REMARK  Name = 
REMARK  10 active torsions:
REMARK  status: ('A' for Active; 'I' for Inactive)
REMARK    1  A    between atoms: C_1  and  C_2
REMARK    2  A    between atoms: C_2  and  C_3
REMARK    3  A    between atoms: C_2  and  C_4
REMARK    4  A    between atoms: C_2  and  C_21
REMARK    5  A    between atoms: C_4  and  N_5
REMARK    6  A    between atoms: N_5  and  C_6
REMARK    7  A    between atoms: C_10  and  C_11
REMARK    8  A    between atoms: C_15  and  C_16
REMARK    9  A    between atoms: C_16  and  O_18
REMARK   10  A    between atoms: C_25  and  C_26
REMARK                            x       y       z     vdW  Elec       q    Type
REMARK                         _______ _______ _______ _____ _____    ______ ____
ROOT
ATOM      1  N   UNL     1      49.161   9.353  14.765  0.00  0.00    +0.000 N 
ATOM      2  H   UNL     1      49.178  10.366  14.819  0.00  0.00    +0.000 HD
ENDROOT
BRANCH   1   3
ATOM      3  C   UNL     1      48.814   8.696  15.931  0.00  0.00    +0.000 A 
ATOM      4  C   UNL     1      48.396   9.343  17.091  0.00  0.00    +0.000 A 
ATOM      5  C   UNL     1      48.122   8.620  18.252  0.00  0.00    +0.000 A 
ATOM      6  C   UNL     1      48.277   7.233  18.267  0.00  0.00    +0.000 A 
ATOM      7  C   UNL     1      48.703   6.538  17.125  0.00  0.00    +0.000 A 
ATOM      8  C   UNL     1      48.991   7.304  15.981  0.00  0.00    +0.000 A 
BRANCH   7   9
ATOM      9  C   UNL     1      48.783   5.058  17.087  0.00  0.00    +0.000 A 
ATOM     10  C   UNL     1      47.714   4.294  16.580  0.00  0.00    +0.000 A 
ATOM     11  C   UNL     1      47.794   2.904  16.464  0.00  0.00    +0.000 A 
ATOM     12  C   UNL     1      48.958   2.240  16.836  0.00  0.00    +0.000 A 
ATOM     13  C   UNL     1      50.043   2.973  17.326  0.00  0.00    +0.000 A 
ATOM     14  C   UNL     1      49.942   4.364  17.479  0.00  0.00    +0.000 A 
BRANCH  13  15
ATOM     15  C   UNL     1      51.320   2.318  17.697  0.00  0.00    +0.000 C 
ATOM     16  O   UNL     1      52.354   2.933  17.894  0.00  0.00    +0.000 OA
BRANCH  15  17
ATOM     17  O   UNL     1      51.245   0.970  17.729  0.00  0.00    +0.000 OA
ATOM     18  H   UNL     1      51.061   0.586  18.606  0.00  0.00    +0.000 HD
ENDBRANCH  15  17
ENDBRANCH  13  15
ENDBRANCH   7   9
ENDBRANCH   1   3
BRANCH   1  19
ATOM     19  C   UNL     1      49.940   8.742  13.695  0.00  0.00    +0.000 C 
BRANCH  19  21
ATOM     20  C   UNL     1      49.079  10.049  11.716  0.00  0.00    +0.000 C 
ATOM     21  C   UNL     1      49.138   8.636  12.355  0.00  0.00    +0.000 C 
ATOM     22  C   UNL     1      49.967   7.722  11.423  0.00  0.00    +0.000 C 
BRANCH  21  23
ATOM     23  C   UNL     1      47.705   8.075  12.488  0.00  0.00    +0.000 A 
ATOM     24  C   UNL     1      46.558   8.847  12.239  0.00  0.00    +0.000 A 
ATOM     25  C   UNL     1      45.281   8.277  12.226  0.00  0.00    +0.000 A 
ATOM     26  C   UNL     1      45.116   6.922  12.485  0.00  0.00    +0.000 A 
ATOM     27  C   UNL     1      46.227   6.127  12.785  0.00  0.00    +0.000 A 
ATOM     28  C   UNL     1      47.504   6.718  12.807  0.00  0.00    +0.000 A 
BRANCH  27  29
ATOM     29  C   UNL     1      46.085   4.649  13.049  0.00  0.00    +0.000 C 
ATOM     30  F   UNL     1      45.598   3.946  11.990  0.00  0.00    +0.000 F 
ATOM     31  F   UNL     1      47.275   4.066  13.367  0.00  0.00    +0.000 F 
ATOM     32  F   UNL     1      45.250   4.383  14.092  0.00  0.00    +0.000 F 
ENDBRANCH  27  29
ENDBRANCH  21  23
ENDBRANCH  19  21
ENDBRANCH   1  19
TORSDOF 8
ENDMDL
MODEL 9
REMARK VINA RESULT:    -6.769      5.525      8.335
REMARK INTER + INTRA:         -11.284
REMARK INTER:                 -10.082
REMARK INTRA:                  -1.202
REMARK UNBOUND:                -1.546
REMARK  Name = 
REMARK  10 active torsions:
REMARK  status: ('A' for Active; 'I' for Inactive)
REMARK    1  A    between atoms: C_1  and  C_2
REMARK    2  A    between atoms: C_2  and  C_3
REMARK    3  A    between atoms: C_2  and  C_4
REMARK    4  A    between atoms: C_2  and  C_21
REMARK    5  A    between atoms: C_4  and  N_5
REMARK    6  A    between atoms: N_5  and  C_6
REMARK    7  A    between atoms: C_10  and  C_11
REMARK    8  A    between atoms: C_15  and  C_16
REMARK    9  A    between atoms: C_16  and  O_18
REMARK   10  A    between atoms: C_25  and  C_26
REMARK                            x       y       z     vdW  Elec       q    Type
REMARK                         _______ _______ _______ _____ _____    ______ ____
ROOT
ATOM      1  N   UNL     1      49.179   6.841  15.420  0.00  0.00    +0.000 N 
ATOM      2  H   UNL     1      49.642   7.681  15.751  0.00  0.00    +0.000 HD
ENDROOT
BRANCH   1   3
ATOM      3  C   UNL     1      48.655   6.909  14.143  0.00  0.00    +0.000 A 
ATOM      4  C   UNL     1      49.155   7.739  13.142  0.00  0.00    +0.000 A 
ATOM      5  C   UNL     1      48.536   7.805  11.894  0.00  0.00    +0.000 A 
ATOM      6  C   UNL     1      47.396   7.042  11.636  0.00  0.00    +0.000 A 
ATOM      7  C   UNL     1      46.851   6.196  12.615  0.00  0.00    +0.000 A 
ATOM      8  C   UNL     1      47.490   6.175  13.868  0.00  0.00    +0.000 A 
BRANCH   7   9
ATOM      9  C   UNL     1      45.700   5.306  12.336  0.00  0.00    +0.000 A 
ATOM     10  C   UNL     1      44.685   5.121  13.295  0.00  0.00    +0.000 A 
ATOM     11  C   UNL     1      43.553   4.347  13.028  0.00  0.00    +0.000 A 
ATOM     12  C   UNL     1      43.396   3.749  11.783  0.00  0.00    +0.000 A 
ATOM     13  C   UNL     1      44.377   3.929  10.803  0.00  0.00    +0.000 A 
ATOM     14  C   UNL     1      45.532   4.673  11.091  0.00  0.00    +0.000 A 
BRANCH  13  15
ATOM     15  C   UNL     1      44.237   3.347   9.446  0.00  0.00    +0.000 C 
ATOM     16  O   UNL     1      44.337   2.154   9.218  0.00  0.00    +0.000 OA
BRANCH  15  17
ATOM     17  O   UNL     1      44.060   4.272   8.480  0.00  0.00    +0.000 OA
ATOM     18  H   UNL     1      44.232   5.193   8.750  0.00  0.00    +0.000 HD
ENDBRANCH  15  17
ENDBRANCH  13  15
ENDBRANCH   7   9
ENDBRANCH   1   3
BRANCH   1  19
ATOM     19  C   UNL     1      48.709   5.909  16.437  0.00  0.00    +0.000 C 
BRANCH  19  21
ATOM     20  C   UNL     1      50.972   6.600  17.313  0.00  0.00    +0.000 C 
ATOM     21  C   UNL     1      49.791   5.618  17.530  0.00  0.00    +0.000 C 
ATOM     22  C   UNL     1      49.135   5.950  18.891  0.00  0.00    +0.000 C 
BRANCH  21  23
ATOM     23  C   UNL     1      50.329   4.171  17.556  0.00  0.00    +0.000 A 
ATOM     24  C   UNL     1      49.540   3.058  17.220  0.00  0.00    +0.000 A 
ATOM     25  C   UNL     1      50.090   1.777  17.112  0.00  0.00    +0.000 A 
ATOM     26  C   UNL     1      51.442   1.571  17.360  0.00  0.00    +0.000 A 
ATOM     27  C   UNL     1      52.253   2.644  17.745  0.00  0.00    +0.000 A 
ATOM     28  C   UNL     1      51.682   3.925  17.862  0.00  0.00    +0.000 A 
BRANCH  27  29
ATOM     29  C   UNL     1      53.727   2.458  18.000  0.00  0.00    +0.000 C 
ATOM     30  F   UNL     1      54.415   3.627  18.124  0.00  0.00    +0.000 F 
ATOM     31  F   UNL     1      53.968   1.762  19.148  0.00  0.00    +0.000 F 
ATOM     32  F   UNL     1      54.346   1.763  17.007  0.00  0.00    +0.000 F 
ENDBRANCH  27  29
ENDBRANCH  21  23
ENDBRANCH  19  21
ENDBRANCH   1  19
TORSDOF 8
ENDMDL
