MODEL 1
REMARK VINA RESULT:    -7.603      0.000      0.000
REMARK INTER + INTRA:          -9.846
REMARK INTER:                  -9.380
REMARK INTRA:                  -0.466
REMARK UNBOUND:                -0.466
REMARK  Name = 
REMARK  4 active torsions:
REMARK  status: ('A' for Active; 'I' for Inactive)
REMARK    1  A    between atoms: C_2  and  C_4
REMARK    2  A    between atoms: N_8  and  C_9
REMARK    3  A    between atoms: C_9  and  C_10
REMARK    4  A    between atoms: C_9  and  C_12
REMARK                            x       y       z     vdW  Elec       q    Type
REMARK                         _______ _______ _______ _____ _____    ______ ____
ROOT
ATOM      1  C   UNL     1      46.391   2.732   7.585  0.00  0.00    +0.000 A 
ATOM      2  C   UNL     1      45.776   1.805   8.418  0.00  0.00    +0.000 A 
ATOM      3  C   UNL     1      45.053   2.262   9.524  0.00  0.00    +0.000 A 
ATOM      4  C   UNL     1      44.914   3.632   9.756  0.00  0.00    +0.000 A 
ATOM      5  N   UNL     1      44.285   4.047  10.936  0.00  0.00    +0.000 N 
ATOM      6  N   UNL     1      45.492   4.533   8.938  0.00  0.00    +0.000 NA
ATOM      7  C   UNL     1      46.235   4.074   7.895  0.00  0.00    +0.000 A 
ATOM      8  H   UNL     1      43.560   3.396  11.222  0.00  0.00    +0.000 HD
ENDROOT
BRANCH   1  10
ATOM      9  N   UNL     1      47.144   3.121   5.302  0.00  0.00    +0.000 N 
ATOM     10  C   UNL     1      47.235   2.355   6.431  0.00  0.00    +0.000 C 
ATOM     11  O   UNL     1      48.014   1.411   6.489  0.00  0.00    +0.000 OA
ATOM     12  H   UNL     1      47.792   2.905   4.557  0.00  0.00    +0.000 HD
ATOM     13  H   UNL     1      46.701   4.030   5.287  0.00  0.00    +0.000 HD
ENDBRANCH   1  10
BRANCH   5  14
ATOM     14  C   UNL     1      43.749   5.419  10.936  0.00  0.00    +0.000 C 
BRANCH  14  15
ATOM     15  C   UNL     1      44.740   6.347  11.632  0.00  0.00    +0.000 A 
ATOM     16  C   UNL     1      44.619   7.738  11.469  0.00  0.00    +0.000 A 
ATOM     17  C   UNL     1      45.498   8.615  12.112  0.00  0.00    +0.000 A 
ATOM     18  C   UNL     1      46.505   8.114  12.927  0.00  0.00    +0.000 A 
ATOM     19  C   UNL     1      46.650   6.738  13.093  0.00  0.00    +0.000 A 
ATOM     20  C   UNL     1      45.771   5.859  12.451  0.00  0.00    +0.000 A 
ENDBRANCH  14  15
BRANCH  14  21
ATOM     21  C   UNL     1      42.373   5.448  11.630  0.00  0.00    +0.000 C 
ATOM     22  F   UNL     1      42.512   5.165  12.960  0.00  0.00    +0.000 F 
ENDBRANCH  14  21
ENDBRANCH   5  14
TORSDOF 4
ENDMDL
MODEL 2
REMARK VINA RESULT:    -6.520      3.282      6.515
REMARK INTER + INTRA:          -8.511
REMARK INTER:                  -8.007
REMARK INTRA:                  -0.504
REMARK UNBOUND:                -0.466
REMARK  Name = 
REMARK  4 active torsions:
REMARK  status: ('A' for Active; 'I' for Inactive)
REMARK    1  A    between atoms: C_2  and  C_4
REMARK    2  A    between atoms: N_8  and  C_9
REMARK    3  A    between atoms: C_9  and  C_10
REMARK    4  A    between atoms: C_9  and  C_12
REMARK                            x       y       z     vdW  Elec       q    Type
REMARK                         _______ _______ _______ _____ _____    ______ ____
ROOT
ATOM      1  C   UNL     1      46.876   7.936  13.238  0.00  0.00    +0.000 A 
ATOM      2  C   UNL     1      45.769   8.473  12.591  0.00  0.00    +0.000 A 
ATOM      3  C   UNL     1      45.045   7.670  11.705  0.00  0.00    +0.000 A 
ATOM      4  C   UNL     1      45.404   6.334  11.514  0.00  0.00    +0.000 A 
ATOM      5  N   UNL     1      44.730   5.597  10.532  0.00  0.00    +0.000 N 
ATOM      6  N   UNL     1      46.463   5.805  12.155  0.00  0.00    +0.000 NA
ATOM      7  C   UNL     1      47.190   6.612  12.975  0.00  0.00    +0.000 A 
ATOM      8  H   UNL     1      43.763   5.893  10.441  0.00  0.00    +0.000 HD
ENDROOT
BRANCH   1  10
ATOM      9  N   UNL     1      47.975   8.217  15.392  0.00  0.00    +0.000 N 
ATOM     10  C   UNL     1      47.749   8.716  14.140  0.00  0.00    +0.000 C 
ATOM     11  O   UNL     1      48.282   9.757  13.772  0.00  0.00    +0.000 OA
ATOM     12  H   UNL     1      48.646   8.714  15.962  0.00  0.00    +0.000 HD
ATOM     13  H   UNL     1      47.754   7.266  15.655  0.00  0.00    +0.000 HD
ENDBRANCH   1  10
BRANCH   5  14
ATOM     14  C   UNL     1      44.791   4.132  10.666  0.00  0.00    +0.000 C 
BRANCH  14  15
ATOM     15  C   UNL     1      45.385   3.534   9.395  0.00  0.00    +0.000 A 
ATOM     16  C   UNL     1      45.871   4.388   8.389  0.00  0.00    +0.000 A 
ATOM     17  C   UNL     1      46.441   3.870   7.222  0.00  0.00    +0.000 A 
ATOM     18  C   UNL     1      46.535   2.495   7.047  0.00  0.00    +0.000 A 
ATOM     19  C   UNL     1      46.049   1.631   8.026  0.00  0.00    +0.000 A 
ATOM     20  C   UNL     1      45.479   2.147   9.194  0.00  0.00    +0.000 A 
ENDBRANCH  14  15
BRANCH  14  21
ATOM     21  C   UNL     1      43.383   3.569  10.945  0.00  0.00    +0.000 C 
ATOM     22  F   UNL     1      43.395   2.819  12.088  0.00  0.00    +0.000 F 
ENDBRANCH  14  21
ENDBRANCH   5  14
TORSDOF 4
ENDMDL
MODEL 3
REMARK VINA RESULT:    -6.455      3.151      5.847
REMARK INTER + INTRA:          -8.431
REMARK INTER:                  -9.184
REMARK INTRA:                   0.753
REMARK UNBOUND:                -0.466
REMARK  Name = 
REMARK  4 active torsions:
REMARK  status: ('A' for Active; 'I' for Inactive)
REMARK    1  A    between atoms: C_2  and  C_4
REMARK    2  A    between atoms: N_8  and  C_9
REMARK    3  A    between atoms: C_9  and  C_10
REMARK    4  A    between atoms: C_9  and  C_12
REMARK                            x       y       z     vdW  Elec       q    Type
REMARK                         _______ _______ _______ _____ _____    ______ ____
ROOT
ATOM      1  C   UNL     1      47.165   5.537  13.629  0.00  0.00    +0.000 A 
ATOM      2  C   UNL     1      47.224   4.173  13.892  0.00  0.00    +0.000 A 
ATOM      3  C   UNL     1      46.327   3.318  13.244  0.00  0.00    +0.000 A 
ATOM      4  C   UNL     1      45.422   3.826  12.310  0.00  0.00    +0.000 A 
ATOM      5  N   UNL     1      44.463   2.959  11.771  0.00  0.00    +0.000 N 
ATOM      6  N   UNL     1      45.377   5.144  12.038  0.00  0.00    +0.000 NA
ATOM      7  C   UNL     1      46.220   5.972  12.713  0.00  0.00    +0.000 A 
ATOM      8  H   UNL     1      44.822   2.013  11.685  0.00  0.00    +0.000 HD
ENDROOT
BRANCH   1  10
ATOM      9  N   UNL     1      47.597   7.834  14.308  0.00  0.00    +0.000 N 
ATOM     10  C   UNL     1      48.018   6.533  14.310  0.00  0.00    +0.000 C 
ATOM     11  O   UNL     1      49.049   6.207  14.885  0.00  0.00    +0.000 OA
ATOM     12  H   UNL     1      48.144   8.486  14.855  0.00  0.00    +0.000 HD
ATOM     13  H   UNL     1      46.657   8.110  14.057  0.00  0.00    +0.000 HD
ENDBRANCH   1  10
BRANCH   5  14
ATOM     14  C   UNL     1      43.854   3.378  10.498  0.00  0.00    +0.000 C 
BRANCH  14  15
ATOM     15  C   UNL     1      44.849   3.150   9.364  0.00  0.00    +0.000 A 
ATOM     16  C   UNL     1      45.323   4.249   8.627  0.00  0.00    +0.000 A 
ATOM     17  C   UNL     1      46.252   4.075   7.597  0.00  0.00    +0.000 A 
ATOM     18  C   UNL     1      46.721   2.804   7.293  0.00  0.00    +0.000 A 
ATOM     19  C   UNL     1      46.255   1.699   8.003  0.00  0.00    +0.000 A 
ATOM     20  C   UNL     1      45.326   1.871   9.034  0.00  0.00    +0.000 A 
ENDBRANCH  14  15
BRANCH  14  21
ATOM     21  C   UNL     1      43.428   4.857  10.579  0.00  0.00    +0.000 C 
ATOM     22  F   UNL     1      42.298   4.979  11.339  0.00  0.00    +0.000 F 
ENDBRANCH  14  21
ENDBRANCH   5  14
TORSDOF 4
ENDMDL
MODEL 4
REMARK VINA RESULT:    -6.308      3.775      6.772
REMARK INTER + INTRA:          -8.249
REMARK INTER:                  -7.703
REMARK INTRA:                  -0.546
REMARK UNBOUND:                -0.466
REMARK  Name = 
REMARK  4 active torsions:
REMARK  status: ('A' for Active; 'I' for Inactive)
REMARK    1  A    between atoms: C_2  and  C_4
REMARK    2  A    between atoms: N_8  and  C_9
REMARK    3  A    between atoms: C_9  and  C_10
REMARK    4  A    between atoms: C_9  and  C_12
REMARK                            x       y       z     vdW  Elec       q    Type
REMARK                         _______ _______ _______ _____ _____    ______ ____
ROOT
ATOM      1  C   UNL     1      47.938   5.197  15.645  0.00  0.00    +0.000 A 
ATOM      2  C   UNL     1      48.230   6.336  14.903  0.00  0.00    +0.000 A 
ATOM      3  C   UNL     1      47.605   6.518  13.666  0.00  0.00    +0.000 A 
ATOM      4  C   UNL     1      46.666   5.591  13.210  0.00  0.00    +0.000 A 
ATOM      5  N   UNL     1      46.151   5.746  11.917  0.00  0.00    +0.000 N 
ATOM      6  N   UNL     1      46.365   4.497  13.937  0.00  0.00    +0.000 NA
ATOM      7  C   UNL     1      47.019   4.306  15.115  0.00  0.00    +0.000 A 
ATOM      8  H   UNL     1      46.083   6.724  11.656  0.00  0.00    +0.000 HD
ENDROOT
BRANCH   1  10
ATOM      9  N   UNL     1      48.032   5.376  18.071  0.00  0.00    +0.000 N 
ATOM     10  C   UNL     1      48.593   4.873  16.930  0.00  0.00    +0.000 C 
ATOM     11  O   UNL     1      49.583   4.154  16.981  0.00  0.00    +0.000 OA
ATOM     12  H   UNL     1      48.437   5.071  18.946  0.00  0.00    +0.000 HD
ATOM     13  H   UNL     1      47.101   5.770  18.101  0.00  0.00    +0.000 HD
ENDBRANCH   1  10
BRANCH   5  14
ATOM     14  C   UNL     1      44.872   5.068  11.644  0.00  0.00    +0.000 C 
BRANCH  14  15
ATOM     15  C   UNL     1      45.003   4.238  10.371  0.00  0.00    +0.000 A 
ATOM     16  C   UNL     1      45.565   4.818   9.220  0.00  0.00    +0.000 A 
ATOM     17  C   UNL     1      45.719   4.076   8.045  0.00  0.00    +0.000 A 
ATOM     18  C   UNL     1      45.318   2.747   8.006  0.00  0.00    +0.000 A 
ATOM     19  C   UNL     1      44.748   2.156   9.132  0.00  0.00    +0.000 A 
ATOM     20  C   UNL     1      44.594   2.896  10.308  0.00  0.00    +0.000 A 
ENDBRANCH  14  15
BRANCH  14  21
ATOM     21  C   UNL     1      43.741   6.108  11.519  0.00  0.00    +0.000 C 
ATOM     22  F   UNL     1      42.608   5.514  11.036  0.00  0.00    +0.000 F 
ENDBRANCH  14  21
ENDBRANCH   5  14
TORSDOF 4
ENDMDL
MODEL 5
REMARK VINA RESULT:    -5.863      3.525      4.903
REMARK INTER + INTRA:          -7.699
REMARK INTER:                  -7.166
REMARK INTRA:                  -0.533
REMARK UNBOUND:                -0.466
REMARK  Name = 
REMARK  4 active torsions:
REMARK  status: ('A' for Active; 'I' for Inactive)
REMARK    1  A    between atoms: C_2  and  C_4
REMARK    2  A    between atoms: N_8  and  C_9
REMARK    3  A    between atoms: C_9  and  C_10
REMARK    4  A    between atoms: C_9  and  C_12
REMARK                            x       y       z     vdW  Elec       q    Type
REMARK                         _______ _______ _______ _____ _____    ______ ____
ROOT
ATOM      1  C   UNL     1      44.893   3.830  11.478  0.00  0.00    +0.000 A 
ATOM      2  C   UNL     1      45.481   3.725  12.733  0.00  0.00    +0.000 A 
ATOM      3  C   UNL     1      46.353   4.731  13.161  0.00  0.00    +0.000 A 
ATOM      4  C   UNL     1      46.587   5.847  12.354  0.00  0.00    +0.000 A 
ATOM      5  N   UNL     1      47.554   6.773  12.763  0.00  0.00    +0.000 N 
ATOM      6  N   UNL     1      46.001   5.961  11.146  0.00  0.00    +0.000 NA
ATOM      7  C   UNL     1      45.196   4.950  10.721  0.00  0.00    +0.000 A 
ATOM      8  H   UNL     1      47.598   6.846  13.774  0.00  0.00    +0.000 HD
ENDROOT
BRANCH   1  10
ATOM      9  N   UNL     1      44.418   2.187   9.745  0.00  0.00    +0.000 N 
ATOM     10  C   UNL     1      44.013   2.790  10.903  0.00  0.00    +0.000 C 
ATOM     11  O   UNL     1      42.974   2.453  11.458  0.00  0.00    +0.000 OA
ATOM     12  H   UNL     1      43.852   1.417   9.416  0.00  0.00    +0.000 HD
ATOM     13  H   UNL     1      45.359   2.262   9.384  0.00  0.00    +0.000 HD
ENDBRANCH   1  10
BRANCH   5  14
ATOM     14  C   UNL     1      47.453   8.119  12.171  0.00  0.00    +0.000 C 
BRANCH  14  15
ATOM     15  C   UNL     1      48.834   8.570  11.707  0.00  0.00    +0.000 A 
ATOM     16  C   UNL     1      49.058   9.927  11.414  0.00  0.00    +0.000 A 
ATOM     17  C   UNL     1      50.318  10.375  11.008  0.00  0.00    +0.000 A 
ATOM     18  C   UNL     1      51.371   9.476  10.894  0.00  0.00    +0.000 A 
ATOM     19  C   UNL     1      51.168   8.124  11.168  0.00  0.00    +0.000 A 
ATOM     20  C   UNL     1      49.908   7.675  11.575  0.00  0.00    +0.000 A 
ENDBRANCH  14  15
BRANCH  14  21
ATOM     21  C   UNL     1      46.858   9.103  13.198  0.00  0.00    +0.000 C 
ATOM     22  F   UNL     1      45.522   8.862  13.361  0.00  0.00    +0.000 F 
ENDBRANCH  14  21
ENDBRANCH   5  14
TORSDOF 4
ENDMDL
MODEL 6
REMARK VINA RESULT:    -5.844      5.746      8.295
REMARK INTER + INTRA:          -7.676
REMARK INTER:                  -7.209
REMARK INTRA:                  -0.467
REMARK UNBOUND:                -0.466
REMARK  Name = 
REMARK  4 active torsions:
REMARK  status: ('A' for Active; 'I' for Inactive)
REMARK    1  A    between atoms: C_2  and  C_4
REMARK    2  A    between atoms: N_8  and  C_9
REMARK    3  A    between atoms: C_9  and  C_10
REMARK    4  A    between atoms: C_9  and  C_12
REMARK                            x       y       z     vdW  Elec       q    Type
REMARK                         _______ _______ _______ _____ _____    ______ ____
ROOT
ATOM      1  C   UNL     1      48.755   4.196  18.355  0.00  0.00    +0.000 A 
ATOM      2  C   UNL     1      48.904   3.025  17.622  0.00  0.00    +0.000 A 
ATOM      3  C   UNL     1      48.246   2.904  16.395  0.00  0.00    +0.000 A 
ATOM      4  C   UNL     1      47.490   3.968  15.896  0.00  0.00    +0.000 A 
ATOM      5  N   UNL     1      46.751   3.767  14.723  0.00  0.00    +0.000 N 
ATOM      6  N   UNL     1      47.361   5.112  16.594  0.00  0.00    +0.000 NA
ATOM      7  C   UNL     1      47.965   5.197  17.811  0.00  0.00    +0.000 A 
ATOM      8  H   UNL     1      47.216   3.120  14.094  0.00  0.00    +0.000 HD
ENDROOT
BRANCH   1  10
ATOM      9  N   UNL     1      48.626   3.991  20.778  0.00  0.00    +0.000 N 
ATOM     10  C   UNL     1      49.351   4.400  19.693  0.00  0.00    +0.000 C 
ATOM     11  O   UNL     1      50.467   4.886  19.830  0.00  0.00    +0.000 OA
ATOM     12  H   UNL     1      49.085   4.053  21.677  0.00  0.00    +0.000 HD
ATOM     13  H   UNL     1      47.821   3.383  20.706  0.00  0.00    +0.000 HD
ENDBRANCH   1  10
BRANCH   5  14
ATOM     14  C   UNL     1      46.359   4.982  13.988  0.00  0.00    +0.000 C 
BRANCH  14  15
ATOM     15  C   UNL     1      45.158   4.670  13.103  0.00  0.00    +0.000 A 
ATOM     16  C   UNL     1      45.139   3.481  12.353  0.00  0.00    +0.000 A 
ATOM     17  C   UNL     1      44.042   3.156  11.549  0.00  0.00    +0.000 A 
ATOM     18  C   UNL     1      42.950   4.012  11.486  0.00  0.00    +0.000 A 
ATOM     19  C   UNL     1      42.953   5.202  12.213  0.00  0.00    +0.000 A 
ATOM     20  C   UNL     1      44.049   5.527  13.018  0.00  0.00    +0.000 A 
ENDBRANCH  14  15
BRANCH  14  21
ATOM     21  C   UNL     1      47.549   5.500  13.155  0.00  0.00    +0.000 C 
ATOM     22  F   UNL     1      47.096   6.257  12.111  0.00  0.00    +0.000 F 
ENDBRANCH  14  21
ENDBRANCH   5  14
TORSDOF 4
ENDMDL
MODEL 7
REMARK VINA RESULT:    -5.749      5.434      7.042
REMARK INTER + INTRA:          -7.559
REMARK INTER:                  -7.058
REMARK INTRA:                  -0.500
REMARK UNBOUND:                -0.466
REMARK  Name = 
REMARK  4 active torsions:
REMARK  status: ('A' for Active; 'I' for Inactive)
REMARK    1  A    between atoms: C_2  and  C_4
REMARK    2  A    between atoms: N_8  and  C_9
REMARK    3  A    between atoms: C_9  and  C_10
REMARK    4  A    between atoms: C_9  and  C_12
REMARK                            x       y       z     vdW  Elec       q    Type
REMARK                         _______ _______ _______ _____ _____    ______ ____
ROOT
ATOM      1  C   UNL     1      46.037   5.532  12.319  0.00  0.00    +0.000 A 
ATOM      2  C   UNL     1      45.697   4.188  12.419  0.00  0.00    +0.000 A 
ATOM      3  C   UNL     1      46.227   3.430  13.468  0.00  0.00    +0.000 A 
ATOM      4  C   UNL     1      47.048   4.032  14.425  0.00  0.00    +0.000 A 
ATOM      5  N   UNL     1      47.654   3.217  15.389  0.00  0.00    +0.000 N 
ATOM      6  N   UNL     1      47.362   5.339  14.341  0.00  0.00    +0.000 NA
ATOM      7  C   UNL     1      46.881   6.053  13.288  0.00  0.00    +0.000 A 
ATOM      8  H   UNL     1      47.067   2.426  15.632  0.00  0.00    +0.000 HD
ENDROOT
BRANCH   1  10
ATOM      9  N   UNL     1      45.417   5.831   9.984  0.00  0.00    +0.000 N 
ATOM     10  C   UNL     1      45.588   6.404  11.213  0.00  0.00    +0.000 C 
ATOM     11  O   UNL     1      45.345   7.592  11.393  0.00  0.00    +0.000 OA
ATOM     12  H   UNL     1      45.022   6.420   9.263  0.00  0.00    +0.000 HD
ATOM     13  H   UNL     1      45.378   4.831   9.842  0.00  0.00    +0.000 HD
ENDBRANCH   1  10
BRANCH   5  14
ATOM     14  C   UNL     1      48.109   3.895  16.615  0.00  0.00    +0.000 C 
BRANCH  14  15
ATOM     15  C   UNL     1      49.492   3.375  16.994  0.00  0.00    +0.000 A 
ATOM     16  C   UNL     1      50.456   4.268  17.494  0.00  0.00    +0.000 A 
ATOM     17  C   UNL     1      51.725   3.819  17.871  0.00  0.00    +0.000 A 
ATOM     18  C   UNL     1      52.046   2.472  17.756  0.00  0.00    +0.000 A 
ATOM     19  C   UNL     1      51.109   1.571  17.253  0.00  0.00    +0.000 A 
ATOM     20  C   UNL     1      49.839   2.019  16.876  0.00  0.00    +0.000 A 
ENDBRANCH  14  15
BRANCH  14  21
ATOM     21  C   UNL     1      47.094   3.665  17.752  0.00  0.00    +0.000 C 
ATOM     22  F   UNL     1      46.700   2.356  17.772  0.00  0.00    +0.000 F 
ENDBRANCH  14  21
ENDBRANCH   5  14
TORSDOF 4
ENDMDL
MODEL 8
REMARK VINA RESULT:    -5.443      3.994      6.744
REMARK INTER + INTRA:          -7.182
REMARK INTER:                  -6.708
REMARK INTRA:                  -0.474
REMARK UNBOUND:                -0.466
REMARK  Name = 
REMARK  4 active torsions:
REMARK  status: ('A' for Active; 'I' for Inactive)
REMARK    1  A    between atoms: C_2  and  C_4
REMARK    2  A    between atoms: N_8  and  C_9
REMARK    3  A    between atoms: C_9  and  C_10
REMARK    4  A    between atoms: C_9  and  C_12
REMARK                            x       y       z     vdW  Elec       q    Type
REMARK                         _______ _______ _______ _____ _____    ______ ____
ROOT
ATOM      1  C   UNL     1      49.256   7.742  13.829  0.00  0.00    +0.000 A 
ATOM      2  C   UNL     1      48.851   8.599  12.813  0.00  0.00    +0.000 A 
ATOM      3  C   UNL     1      47.849   8.182  11.932  0.00  0.00    +0.000 A 
ATOM      4  C   UNL     1      47.234   6.940  12.105  0.00  0.00    +0.000 A 
ATOM      5  N   UNL     1      46.320   6.508  11.135  0.00  0.00    +0.000 N 
ATOM      6  N   UNL     1      47.609   6.116  13.103  0.00  0.00    +0.000 NA
ATOM      7  C   UNL     1      48.620   6.513  13.921  0.00  0.00    +0.000 A 
ATOM      8  H   UNL     1      45.813   7.287  10.727  0.00  0.00    +0.000 HD
ENDROOT
BRANCH   1  10
ATOM      9  N   UNL     1      51.619   7.694  14.410  0.00  0.00    +0.000 N 
ATOM     10  C   UNL     1      50.351   8.056  14.770  0.00  0.00    +0.000 C 
ATOM     11  O   UNL     1      50.142   8.649  15.822  0.00  0.00    +0.000 OA
ATOM     12  H   UNL     1      52.366   7.997  15.021  0.00  0.00    +0.000 HD
ATOM     13  H   UNL     1      51.869   7.421  13.469  0.00  0.00    +0.000 HD
ENDBRANCH   1  10
BRANCH   5  14
ATOM     14  C   UNL     1      45.372   5.464  11.558  0.00  0.00    +0.000 C 
BRANCH  14  15
ATOM     15  C   UNL     1      45.177   4.469  10.419  0.00  0.00    +0.000 A 
ATOM     16  C   UNL     1      44.620   3.207  10.688  0.00  0.00    +0.000 A 
ATOM     17  C   UNL     1      44.408   2.281   9.661  0.00  0.00    +0.000 A 
ATOM     18  C   UNL     1      44.747   2.606   8.354  0.00  0.00    +0.000 A 
ATOM     19  C   UNL     1      45.312   3.848   8.067  0.00  0.00    +0.000 A 
ATOM     20  C   UNL     1      45.523   4.774   9.092  0.00  0.00    +0.000 A 
ENDBRANCH  14  15
BRANCH  14  21
ATOM     21  C   UNL     1      44.034   6.104  11.976  0.00  0.00    +0.000 C 
ATOM     22  F   UNL     1      43.727   5.754  13.262  0.00  0.00    +0.000 F 
ENDBRANCH  14  21
ENDBRANCH   5  14
TORSDOF 4
ENDMDL
MODEL 9
REMARK VINA RESULT:    -5.440      4.041      5.897
REMARK INTER + INTRA:          -7.178
REMARK INTER:                  -6.709
REMARK INTRA:                  -0.469
REMARK UNBOUND:                -0.466
REMARK  Name = 
REMARK  4 active torsions:
REMARK  status: ('A' for Active; 'I' for Inactive)
REMARK    1  A    between atoms: C_2  and  C_4
REMARK    2  A    between atoms: N_8  and  C_9
REMARK    3  A    between atoms: C_9  and  C_10
REMARK    4  A    between atoms: C_9  and  C_12
REMARK                            x       y       z     vdW  Elec       q    Type
REMARK                         _______ _______ _______ _____ _____    ______ ____
ROOT
ATOM      1  C   UNL     1      44.708   5.016  11.373  0.00  0.00    +0.000 A 
ATOM      2  C   UNL     1      44.635   6.399  11.495  0.00  0.00    +0.000 A 
ATOM      3  C   UNL     1      45.477   7.045  12.404  0.00  0.00    +0.000 A 
ATOM      4  C   UNL     1      46.410   6.312  13.141  0.00  0.00    +0.000 A 
ATOM      5  N   UNL     1      47.152   6.977  14.125  0.00  0.00    +0.000 N 
ATOM      6  N   UNL     1      46.497   4.975  13.010  0.00  0.00    +0.000 NA
ATOM      7  C   UNL     1      45.636   4.352  12.159  0.00  0.00    +0.000 A 
ATOM      8  H   UNL     1      47.337   7.941  13.866  0.00  0.00    +0.000 HD
ENDROOT
BRANCH   1  10
ATOM      9  N   UNL     1      43.889   4.459   9.149  0.00  0.00    +0.000 N 
ATOM     10  C   UNL     1      43.817   4.229  10.495  0.00  0.00    +0.000 C 
ATOM     11  O   UNL     1      43.062   3.375  10.947  0.00  0.00    +0.000 OA
ATOM     12  H   UNL     1      43.341   3.849   8.557  0.00  0.00    +0.000 HD
ATOM     13  H   UNL     1      44.646   4.972   8.717  0.00  0.00    +0.000 HD
ENDBRANCH   1  10
BRANCH   5  14
ATOM     14  C   UNL     1      48.405   6.325  14.542  0.00  0.00    +0.000 C 
BRANCH  14  15
ATOM     15  C   UNL     1      48.247   5.793  15.963  0.00  0.00    +0.000 A 
ATOM     16  C   UNL     1      48.766   6.531  17.041  0.00  0.00    +0.000 A 
ATOM     17  C   UNL     1      48.618   6.081  18.356  0.00  0.00    +0.000 A 
ATOM     18  C   UNL     1      47.948   4.891  18.611  0.00  0.00    +0.000 A 
ATOM     19  C   UNL     1      47.435   4.138  17.556  0.00  0.00    +0.000 A 
ATOM     20  C   UNL     1      47.582   4.588  16.240  0.00  0.00    +0.000 A 
ENDBRANCH  14  15
BRANCH  14  21
ATOM     21  C   UNL     1      49.577   7.323  14.445  0.00  0.00    +0.000 C 
ATOM     22  F   UNL     1      49.100   8.602  14.384  0.00  0.00    +0.000 F 
ENDBRANCH  14  21
ENDBRANCH   5  14
TORSDOF 4
ENDMDL
