MODEL 1
REMARK VINA RESULT:    -8.102      0.000      0.000
REMARK INTER + INTRA:         -10.020
REMARK INTER:                  -9.523
REMARK INTRA:                  -0.497
REMARK UNBOUND:                -0.497
REMARK  Name = 
REMARK  3 active torsions:
REMARK  status: ('A' for Active; 'I' for Inactive)
REMARK    1  A    between atoms: C_5  and  C_6
REMARK    2  A    between atoms: C_6  and  N_7
REMARK    3  A    between atoms: C_12  and  N_13
REMARK                            x       y       z     vdW  Elec       q    Type
REMARK                         _______ _______ _______ _____ _____    ______ ____
ROOT
ATOM      1  N   UNL     1      44.049   4.010   9.265  0.00  0.00    +0.000 N 
ATOM      2  C   UNL     1      44.145   4.414  10.609  0.00  0.00    +0.000 A 
ATOM      3  C   UNL     1      42.960   4.576  11.315  0.00  0.00    +0.000 A 
ATOM      4  C   UNL     1      43.022   4.937  12.648  0.00  0.00    +0.000 A 
ATOM      5  C   UNL     1      44.268   5.069  13.250  0.00  0.00    +0.000 A 
ATOM      6  C   UNL     1      45.432   4.852  12.513  0.00  0.00    +0.000 A 
ATOM      7  N   UNL     1      45.350   4.535  11.199  0.00  0.00    +0.000 NA
ATOM      8  H   UNL     1      43.927   3.001   9.272  0.00  0.00    +0.000 HD
ENDROOT
BRANCH   6   9
ATOM      9  N   UNL     1      46.678   4.884  13.110  0.00  0.00    +0.000 N 
ATOM     10  C   UNL     1      47.061   3.986  14.204  0.00  0.00    +0.000 C 
ATOM     11  C   UNL     1      47.373   4.783  15.492  0.00  0.00    +0.000 C 
ATOM     12  N   UNL     1      48.351   5.872  15.297  0.00  0.00    +0.000 NA
ATOM     13  C   UNL     1      47.837   6.772  14.241  0.00  0.00    +0.000 C 
ATOM     14  C   UNL     1      47.543   6.054  12.908  0.00  0.00    +0.000 C 
ATOM     15  H   UNL     1      49.220   5.458  14.959  0.00  0.00    +0.000 HD
ENDBRANCH   6   9
BRANCH   1  16
ATOM     16  C   UNL     1      45.196   4.395   8.449  0.00  0.00    +0.000 C 
BRANCH  16  21
ATOM     17  C   UNL     1      47.374   2.043   6.356  0.00  0.00    +0.000 A 
ATOM     18  C   UNL     1      47.139   0.870   7.049  0.00  0.00    +0.000 A 
ATOM     19  N   UNL     1      46.331   0.787   8.128  0.00  0.00    +0.000 NA
ATOM     20  C   UNL     1      45.727   1.933   8.526  0.00  0.00    +0.000 A 
ATOM     21  C   UNL     1      45.872   3.162   7.888  0.00  0.00    +0.000 A 
ATOM     22  C   UNL     1      46.738   3.204   6.789  0.00  0.00    +0.000 A 
ENDBRANCH  16  21
ENDBRANCH   1  16
TORSDOF 3
ENDMDL
MODEL 2
REMARK VINA RESULT:    -7.907      1.110      1.319
REMARK INTER + INTRA:          -9.791
REMARK INTER:                  -9.280
REMARK INTRA:                  -0.511
REMARK UNBOUND:                -0.497
REMARK  Name = 
REMARK  3 active torsions:
REMARK  status: ('A' for Active; 'I' for Inactive)
REMARK    1  A    between atoms: C_5  and  C_6
REMARK    2  A    between atoms: C_6  and  N_7
REMARK    3  A    between atoms: C_12  and  N_13
REMARK                            x       y       z     vdW  Elec       q    Type
REMARK                         _______ _______ _______ _____ _____    ______ ____
ROOT
ATOM      1  N   UNL     1      43.987   3.536   9.513  0.00  0.00    +0.000 N 
ATOM      2  C   UNL     1      44.088   4.331  10.669  0.00  0.00    +0.000 A 
ATOM      3  C   UNL     1      43.078   4.216  11.614  0.00  0.00    +0.000 A 
ATOM      4  C   UNL     1      43.167   4.957  12.778  0.00  0.00    +0.000 A 
ATOM      5  C   UNL     1      44.292   5.747  12.987  0.00  0.00    +0.000 A 
ATOM      6  C   UNL     1      45.304   5.797  12.028  0.00  0.00    +0.000 A 
ATOM      7  N   UNL     1      45.180   5.092  10.878  0.00  0.00    +0.000 NA
ATOM      8  H   UNL     1      44.338   2.615   9.761  0.00  0.00    +0.000 HD
ENDROOT
BRANCH   6   9
ATOM      9  N   UNL     1      46.473   6.498  12.252  0.00  0.00    +0.000 N 
ATOM     10  C   UNL     1      47.650   5.902  12.891  0.00  0.00    +0.000 C 
ATOM     11  C   UNL     1      47.980   6.615  14.223  0.00  0.00    +0.000 C 
ATOM     12  N   UNL     1      48.095   8.082  14.102  0.00  0.00    +0.000 NA
ATOM     13  C   UNL     1      46.830   8.601  13.534  0.00  0.00    +0.000 C 
ATOM     14  C   UNL     1      46.458   7.966  12.177  0.00  0.00    +0.000 C 
ATOM     15  H   UNL     1      48.842   8.286  13.437  0.00  0.00    +0.000 HD
ENDBRANCH   6   9
BRANCH   1  16
ATOM     16  C   UNL     1      44.700   4.076   8.360  0.00  0.00    +0.000 C 
BRANCH  16  21
ATOM     17  C   UNL     1      47.583   2.403   6.477  0.00  0.00    +0.000 A 
ATOM     18  C   UNL     1      47.529   1.160   7.078  0.00  0.00    +0.000 A 
ATOM     19  N   UNL     1      46.634   0.827   8.032  0.00  0.00    +0.000 NA
ATOM     20  C   UNL     1      45.748   1.785   8.395  0.00  0.00    +0.000 A 
ATOM     21  C   UNL     1      45.694   3.061   7.840  0.00  0.00    +0.000 A 
ATOM     22  C   UNL     1      46.658   3.367   6.872  0.00  0.00    +0.000 A 
ENDBRANCH  16  21
ENDBRANCH   1  16
TORSDOF 3
ENDMDL
MODEL 3
REMARK VINA RESULT:    -6.857      1.945      6.147
REMARK INTER + INTRA:          -8.557
REMARK INTER:                  -7.933
REMARK INTRA:                  -0.624
REMARK UNBOUND:                -0.497
REMARK  Name = 
REMARK  3 active torsions:
REMARK  status: ('A' for Active; 'I' for Inactive)
REMARK    1  A    between atoms: C_5  and  C_6
REMARK    2  A    between atoms: C_6  and  N_7
REMARK    3  A    between atoms: C_12  and  N_13
REMARK                            x       y       z     vdW  Elec       q    Type
REMARK                         _______ _______ _______ _____ _____    ______ ____
ROOT
ATOM      1  N   UNL     1      43.899   6.619  12.147  0.00  0.00    +0.000 N 
ATOM      2  C   UNL     1      43.910   5.239  11.869  0.00  0.00    +0.000 A 
ATOM      3  C   UNL     1      43.422   4.385  12.848  0.00  0.00    +0.000 A 
ATOM      4  C   UNL     1      43.386   3.027  12.591  0.00  0.00    +0.000 A 
ATOM      5  C   UNL     1      43.784   2.571  11.340  0.00  0.00    +0.000 A 
ATOM      6  C   UNL     1      44.225   3.471  10.369  0.00  0.00    +0.000 A 
ATOM      7  N   UNL     1      44.288   4.793  10.655  0.00  0.00    +0.000 NA
ATOM      8  H   UNL     1      42.958   6.948  11.951  0.00  0.00    +0.000 HD
ENDROOT
BRANCH   6   9
ATOM      9  N   UNL     1      44.537   3.054   9.090  0.00  0.00    +0.000 N 
ATOM     10  C   UNL     1      44.827   1.657   8.755  0.00  0.00    +0.000 C 
ATOM     11  C   UNL     1      46.274   1.500   8.234  0.00  0.00    +0.000 C 
ATOM     12  N   UNL     1      46.614   2.419   7.129  0.00  0.00    +0.000 NA
ATOM     13  C   UNL     1      46.375   3.805   7.590  0.00  0.00    +0.000 C 
ATOM     14  C   UNL     1      44.934   4.051   8.085  0.00  0.00    +0.000 C 
ATOM     15  H   UNL     1      45.975   2.233   6.356  0.00  0.00    +0.000 HD
ENDBRANCH   6   9
BRANCH   1  16
ATOM     16  C   UNL     1      44.889   7.381  11.394  0.00  0.00    +0.000 C 
BRANCH  16  21
ATOM     17  C   UNL     1      48.458   6.839  12.671  0.00  0.00    +0.000 A 
ATOM     18  C   UNL     1      48.503   7.861  13.601  0.00  0.00    +0.000 A 
ATOM     19  N   UNL     1      47.472   8.698  13.844  0.00  0.00    +0.000 NA
ATOM     20  C   UNL     1      46.341   8.496  13.126  0.00  0.00    +0.000 A 
ATOM     21  C   UNL     1      46.177   7.484  12.184  0.00  0.00    +0.000 A 
ATOM     22  C   UNL     1      47.281   6.656  11.948  0.00  0.00    +0.000 A 
ENDBRANCH  16  21
ENDBRANCH   1  16
TORSDOF 3
ENDMDL
MODEL 4
REMARK VINA RESULT:    -6.601      2.116      7.260
REMARK INTER + INTRA:          -8.256
REMARK INTER:                  -7.808
REMARK INTRA:                  -0.448
REMARK UNBOUND:                -0.497
REMARK  Name = 
REMARK  3 active torsions:
REMARK  status: ('A' for Active; 'I' for Inactive)
REMARK    1  A    between atoms: C_5  and  C_6
REMARK    2  A    between atoms: C_6  and  N_7
REMARK    3  A    between atoms: C_12  and  N_13
REMARK                            x       y       z     vdW  Elec       q    Type
REMARK                         _______ _______ _______ _____ _____    ______ ____
ROOT
ATOM      1  N   UNL     1      47.515   5.697  14.335  0.00  0.00    +0.000 N 
ATOM      2  C   UNL     1      46.602   6.171  13.375  0.00  0.00    +0.000 A 
ATOM      3  C   UNL     1      46.628   7.527  13.082  0.00  0.00    +0.000 A 
ATOM      4  C   UNL     1      45.769   8.018  12.116  0.00  0.00    +0.000 A 
ATOM      5  C   UNL     1      44.952   7.127  11.431  0.00  0.00    +0.000 A 
ATOM      6  C   UNL     1      44.992   5.764  11.727  0.00  0.00    +0.000 A 
ATOM      7  N   UNL     1      45.814   5.309  12.702  0.00  0.00    +0.000 NA
ATOM      8  H   UNL     1      48.401   5.567  13.856  0.00  0.00    +0.000 HD
ENDROOT
BRANCH   6   9
ATOM      9  N   UNL     1      44.261   4.847  10.997  0.00  0.00    +0.000 N 
ATOM     10  C   UNL     1      43.117   4.116  11.552  0.00  0.00    +0.000 C 
ATOM     11  C   UNL     1      43.388   2.594  11.572  0.00  0.00    +0.000 C 
ATOM     12  N   UNL     1      43.819   2.048  10.270  0.00  0.00    +0.000 NA
ATOM     13  C   UNL     1      45.027   2.785   9.835  0.00  0.00    +0.000 C 
ATOM     14  C   UNL     1      44.819   4.311   9.748  0.00  0.00    +0.000 C 
ATOM     15  H   UNL     1      43.080   2.232   9.590  0.00  0.00    +0.000 HD
ENDBRANCH   6   9
BRANCH   1  16
ATOM     16  C   UNL     1      47.090   4.468  14.997  0.00  0.00    +0.000 C 
BRANCH  16  21
ATOM     17  C   UNL     1      48.268   3.183  18.407  0.00  0.00    +0.000 A 
ATOM     18  C   UNL     1      49.033   4.271  18.785  0.00  0.00    +0.000 A 
ATOM     19  N   UNL     1      49.188   5.377  18.027  0.00  0.00    +0.000 NA
ATOM     20  C   UNL     1      48.540   5.396  16.838  0.00  0.00    +0.000 A 
ATOM     21  C   UNL     1      47.724   4.370  16.369  0.00  0.00    +0.000 A 
ATOM     22  C   UNL     1      47.613   3.233  17.178  0.00  0.00    +0.000 A 
ENDBRANCH  16  21
ENDBRANCH   1  16
TORSDOF 3
ENDMDL
MODEL 5
REMARK VINA RESULT:    -6.588      1.444      2.042
REMARK INTER + INTRA:          -8.241
REMARK INTER:                  -8.308
REMARK INTRA:                   0.067
REMARK UNBOUND:                -0.497
REMARK  Name = 
REMARK  3 active torsions:
REMARK  status: ('A' for Active; 'I' for Inactive)
REMARK    1  A    between atoms: C_5  and  C_6
REMARK    2  A    between atoms: C_6  and  N_7
REMARK    3  A    between atoms: C_12  and  N_13
REMARK                            x       y       z     vdW  Elec       q    Type
REMARK                         _______ _______ _______ _____ _____    ______ ____
ROOT
ATOM      1  N   UNL     1      43.598   4.193  10.921  0.00  0.00    +0.000 N 
ATOM      2  C   UNL     1      44.473   5.141  11.484  0.00  0.00    +0.000 A 
ATOM      3  C   UNL     1      44.159   6.482  11.312  0.00  0.00    +0.000 A 
ATOM      4  C   UNL     1      44.979   7.438  11.883  0.00  0.00    +0.000 A 
ATOM      5  C   UNL     1      46.055   7.020  12.659  0.00  0.00    +0.000 A 
ATOM      6  C   UNL     1      46.306   5.660  12.842  0.00  0.00    +0.000 A 
ATOM      7  N   UNL     1      45.513   4.741  12.242  0.00  0.00    +0.000 NA
ATOM      8  H   UNL     1      42.826   4.086  11.573  0.00  0.00    +0.000 HD
ENDROOT
BRANCH   6   9
ATOM      9  N   UNL     1      47.310   5.221  13.682  0.00  0.00    +0.000 N 
ATOM     10  C   UNL     1      47.200   3.998  14.485  0.00  0.00    +0.000 C 
ATOM     11  C   UNL     1      47.253   4.320  15.996  0.00  0.00    +0.000 C 
ATOM     12  N   UNL     1      48.414   5.142  16.391  0.00  0.00    +0.000 NA
ATOM     13  C   UNL     1      48.391   6.390  15.595  0.00  0.00    +0.000 C 
ATOM     14  C   UNL     1      48.382   6.148  14.071  0.00  0.00    +0.000 C 
ATOM     15  H   UNL     1      49.262   4.630  16.143  0.00  0.00    +0.000 HD
ENDBRANCH   6   9
BRANCH   1  16
ATOM     16  C   UNL     1      44.226   2.908  10.634  0.00  0.00    +0.000 C 
BRANCH  16  21
ATOM     17  C   UNL     1      46.370   2.046   7.581  0.00  0.00    +0.000 A 
ATOM     18  C   UNL     1      46.466   3.311   7.031  0.00  0.00    +0.000 A 
ATOM     19  N   UNL     1      45.898   4.408   7.575  0.00  0.00    +0.000 NA
ATOM     20  C   UNL     1      45.207   4.230   8.726  0.00  0.00    +0.000 A 
ATOM     21  C   UNL     1      45.068   3.008   9.380  0.00  0.00    +0.000 A 
ATOM     22  C   UNL     1      45.654   1.895   8.766  0.00  0.00    +0.000 A 
ENDBRANCH  16  21
ENDBRANCH   1  16
TORSDOF 3
ENDMDL
MODEL 6
REMARK VINA RESULT:    -6.316      2.893      7.064
REMARK INTER + INTRA:          -7.921
REMARK INTER:                  -7.386
REMARK INTRA:                  -0.535
REMARK UNBOUND:                -0.497
REMARK  Name = 
REMARK  3 active torsions:
REMARK  status: ('A' for Active; 'I' for Inactive)
REMARK    1  A    between atoms: C_5  and  C_6
REMARK    2  A    between atoms: C_6  and  N_7
REMARK    3  A    between atoms: C_12  and  N_13
REMARK                            x       y       z     vdW  Elec       q    Type
REMARK                         _______ _______ _______ _____ _____    ______ ____
ROOT
ATOM      1  N   UNL     1      48.262   6.185  15.413  0.00  0.00    +0.000 N 
ATOM      2  C   UNL     1      47.559   6.470  14.228  0.00  0.00    +0.000 A 
ATOM      3  C   UNL     1      47.730   7.729  13.670  0.00  0.00    +0.000 A 
ATOM      4  C   UNL     1      47.081   8.027  12.485  0.00  0.00    +0.000 A 
ATOM      5  C   UNL     1      46.328   7.036  11.865  0.00  0.00    +0.000 A 
ATOM      6  C   UNL     1      46.221   5.770  12.440  0.00  0.00    +0.000 A 
ATOM      7  N   UNL     1      46.834   5.510  13.619  0.00  0.00    +0.000 NA
ATOM      8  H   UNL     1      49.205   5.924  15.137  0.00  0.00    +0.000 HD
ENDROOT
BRANCH   6   9
ATOM      9  N   UNL     1      45.559   4.742  11.798  0.00  0.00    +0.000 N 
ATOM     10  C   UNL     1      44.872   4.915  10.514  0.00  0.00    +0.000 C 
ATOM     11  C   UNL     1      43.354   4.654  10.657  0.00  0.00    +0.000 C 
ATOM     12  N   UNL     1      43.029   3.362  11.292  0.00  0.00    +0.000 NA
ATOM     13  C   UNL     1      43.690   3.317  12.616  0.00  0.00    +0.000 C 
ATOM     14  C   UNL     1      45.218   3.525  12.549  0.00  0.00    +0.000 C 
ATOM     15  H   UNL     1      43.428   2.618  10.719  0.00  0.00    +0.000 HD
ENDBRANCH   6   9
BRANCH   1  16
ATOM     16  C   UNL     1      47.646   5.144  16.229  0.00  0.00    +0.000 C 
BRANCH  16  21
ATOM     17  C   UNL     1      50.605   3.202  17.691  0.00  0.00    +0.000 A 
ATOM     18  C   UNL     1      50.346   1.970  17.121  0.00  0.00    +0.000 A 
ATOM     19  N   UNL     1      49.299   1.728  16.304  0.00  0.00    +0.000 NA
ATOM     20  C   UNL     1      48.478   2.773  16.042  0.00  0.00    +0.000 A 
ATOM     21  C   UNL     1      48.657   4.061  16.539  0.00  0.00    +0.000 A 
ATOM     22  C   UNL     1      49.743   4.257  17.401  0.00  0.00    +0.000 A 
ENDBRANCH  16  21
ENDBRANCH   1  16
TORSDOF 3
ENDMDL
MODEL 7
REMARK VINA RESULT:    -6.310      1.975      4.129
REMARK INTER + INTRA:          -7.914
REMARK INTER:                  -7.447
REMARK INTRA:                  -0.467
REMARK UNBOUND:                -0.497
REMARK  Name = 
REMARK  3 active torsions:
REMARK  status: ('A' for Active; 'I' for Inactive)
REMARK    1  A    between atoms: C_5  and  C_6
REMARK    2  A    between atoms: C_6  and  N_7
REMARK    3  A    between atoms: C_12  and  N_13
REMARK                            x       y       z     vdW  Elec       q    Type
REMARK                         _______ _______ _______ _____ _____    ______ ____
ROOT
ATOM      1  N   UNL     1      45.475   5.741  12.398  0.00  0.00    +0.000 N 
ATOM      2  C   UNL     1      46.502   5.844  13.355  0.00  0.00    +0.000 A 
ATOM      3  C   UNL     1      47.355   6.934  13.263  0.00  0.00    +0.000 A 
ATOM      4  C   UNL     1      48.352   7.083  14.210  0.00  0.00    +0.000 A 
ATOM      5  C   UNL     1      48.426   6.168  15.254  0.00  0.00    +0.000 A 
ATOM      6  C   UNL     1      47.518   5.112  15.331  0.00  0.00    +0.000 A 
ATOM      7  N   UNL     1      46.573   4.963  14.373  0.00  0.00    +0.000 NA
ATOM      8  H   UNL     1      44.721   6.345  12.713  0.00  0.00    +0.000 HD
ENDROOT
BRANCH   6   9
ATOM      9  N   UNL     1      47.512   4.245  16.407  0.00  0.00    +0.000 N 
ATOM     10  C   UNL     1      47.364   4.697  17.794  0.00  0.00    +0.000 C 
ATOM     11  C   UNL     1      48.622   4.356  18.626  0.00  0.00    +0.000 C 
ATOM     12  N   UNL     1      49.026   2.939  18.542  0.00  0.00    +0.000 NA
ATOM     13  C   UNL     1      49.239   2.601  17.117  0.00  0.00    +0.000 C 
ATOM     14  C   UNL     1      48.007   2.873  16.229  0.00  0.00    +0.000 C 
ATOM     15  H   UNL     1      48.253   2.369  18.886  0.00  0.00    +0.000 HD
ENDBRANCH   6   9
BRANCH   1  16
ATOM     16  C   UNL     1      45.002   4.378  12.184  0.00  0.00    +0.000 C 
BRANCH  16  21
ATOM     17  C   UNL     1      44.551   2.612   8.816  0.00  0.00    +0.000 A 
ATOM     18  C   UNL     1      45.050   3.604   7.994  0.00  0.00    +0.000 A 
ATOM     19  N   UNL     1      45.521   4.786   8.446  0.00  0.00    +0.000 NA
ATOM     20  C   UNL     1      45.496   4.978   9.787  0.00  0.00    +0.000 A 
ATOM     21  C   UNL     1      45.040   4.040  10.709  0.00  0.00    +0.000 A 
ATOM     22  C   UNL     1      44.539   2.839  10.191  0.00  0.00    +0.000 A 
ENDBRANCH  16  21
ENDBRANCH   1  16
TORSDOF 3
ENDMDL
MODEL 8
REMARK VINA RESULT:    -5.973      3.432      6.032
REMARK INTER + INTRA:          -7.518
REMARK INTER:                  -7.090
REMARK INTRA:                  -0.427
REMARK UNBOUND:                -0.497
REMARK  Name = 
REMARK  3 active torsions:
REMARK  status: ('A' for Active; 'I' for Inactive)
REMARK    1  A    between atoms: C_5  and  C_6
REMARK    2  A    between atoms: C_6  and  N_7
REMARK    3  A    between atoms: C_12  and  N_13
REMARK                            x       y       z     vdW  Elec       q    Type
REMARK                         _______ _______ _______ _____ _____    ______ ____
ROOT
ATOM      1  N   UNL     1      46.982   6.110  13.860  0.00  0.00    +0.000 N 
ATOM      2  C   UNL     1      48.163   6.322  14.596  0.00  0.00    +0.000 A 
ATOM      3  C   UNL     1      48.985   7.367  14.200  0.00  0.00    +0.000 A 
ATOM      4  C   UNL     1      50.134   7.624  14.924  0.00  0.00    +0.000 A 
ATOM      5  C   UNL     1      50.395   6.863  16.058  0.00  0.00    +0.000 A 
ATOM      6  C   UNL     1      49.517   5.851  16.445  0.00  0.00    +0.000 A 
ATOM      7  N   UNL     1      48.416   5.592  15.700  0.00  0.00    +0.000 NA
ATOM      8  H   UNL     1      46.296   6.771  14.214  0.00  0.00    +0.000 HD
ENDROOT
BRANCH   6   9
ATOM      9  N   UNL     1      49.704   5.144  17.617  0.00  0.00    +0.000 N 
ATOM     10  C   UNL     1      49.706   3.679  17.673  0.00  0.00    +0.000 C 
ATOM     11  C   UNL     1      48.546   3.156  18.552  0.00  0.00    +0.000 C 
ATOM     12  N   UNL     1      48.495   3.764  19.896  0.00  0.00    +0.000 NA
ATOM     13  C   UNL     1      48.403   5.233  19.737  0.00  0.00    +0.000 C 
ATOM     14  C   UNL     1      49.556   5.835  18.906  0.00  0.00    +0.000 C 
ATOM     15  H   UNL     1      49.374   3.556  20.371  0.00  0.00    +0.000 HD
ENDBRANCH   6   9
BRANCH   1  16
ATOM     16  C   UNL     1      46.479   4.743  13.930  0.00  0.00    +0.000 C 
BRANCH  16  21
ATOM     17  C   UNL     1      43.858   3.321  11.528  0.00  0.00    +0.000 A 
ATOM     18  C   UNL     1      42.970   4.379  11.541  0.00  0.00    +0.000 A 
ATOM     19  N   UNL     1      43.159   5.508  12.257  0.00  0.00    +0.000 NA
ATOM     20  C   UNL     1      44.296   5.579  12.991  0.00  0.00    +0.000 A 
ATOM     21  C   UNL     1      45.271   4.586  13.032  0.00  0.00    +0.000 A 
ATOM     22  C   UNL     1      45.019   3.425  12.292  0.00  0.00    +0.000 A 
ENDBRANCH  16  21
ENDBRANCH   1  16
TORSDOF 3
ENDMDL
MODEL 9
REMARK VINA RESULT:    -5.278      3.429      7.878
REMARK INTER + INTRA:          -6.700
REMARK INTER:                  -6.162
REMARK INTRA:                  -0.538
REMARK UNBOUND:                -0.497
REMARK  Name = 
REMARK  3 active torsions:
REMARK  status: ('A' for Active; 'I' for Inactive)
REMARK    1  A    between atoms: C_5  and  C_6
REMARK    2  A    between atoms: C_6  and  N_7
REMARK    3  A    between atoms: C_12  and  N_13
REMARK                            x       y       z     vdW  Elec       q    Type
REMARK                         _______ _______ _______ _____ _____    ______ ____
ROOT
ATOM      1  N   UNL     1      50.810   7.523  14.827  0.00  0.00    +0.000 N 
ATOM      2  C   UNL     1      49.784   7.424  13.869  0.00  0.00    +0.000 A 
ATOM      3  C   UNL     1      50.012   7.996  12.625  0.00  0.00    +0.000 A 
ATOM      4  C   UNL     1      49.038   7.884  11.650  0.00  0.00    +0.000 A 
ATOM      5  C   UNL     1      47.890   7.152  11.931  0.00  0.00    +0.000 A 
ATOM      6  C   UNL     1      47.723   6.555  13.181  0.00  0.00    +0.000 A 
ATOM      7  N   UNL     1      48.673   6.709  14.134  0.00  0.00    +0.000 NA
ATOM      8  H   UNL     1      51.475   6.784  14.619  0.00  0.00    +0.000 HD
ENDROOT
BRANCH   6   9
ATOM      9  N   UNL     1      46.637   5.746  13.453  0.00  0.00    +0.000 N 
ATOM     10  C   UNL     1      46.752   4.474  14.172  0.00  0.00    +0.000 C 
ATOM     11  C   UNL     1      46.321   3.289  13.276  0.00  0.00    +0.000 C 
ATOM     12  N   UNL     1      44.991   3.462  12.658  0.00  0.00    +0.000 NA
ATOM     13  C   UNL     1      45.001   4.723  11.883  0.00  0.00    +0.000 C 
ATOM     14  C   UNL     1      45.379   5.960  12.724  0.00  0.00    +0.000 C 
ATOM     15  H   UNL     1      44.306   3.561  13.407  0.00  0.00    +0.000 HD
ENDBRANCH   6   9
BRANCH   1  16
ATOM     16  C   UNL     1      50.341   7.437  16.205  0.00  0.00    +0.000 C 
BRANCH  16  21
ATOM     17  C   UNL     1      50.329   3.906  17.686  0.00  0.00    +0.000 A 
ATOM     18  C   UNL     1      51.694   3.727  17.806  0.00  0.00    +0.000 A 
ATOM     19  N   UNL     1      52.606   4.657  17.451  0.00  0.00    +0.000 NA
ATOM     20  C   UNL     1      52.124   5.824  16.959  0.00  0.00    +0.000 A 
ATOM     21  C   UNL     1      50.772   6.123  16.820  0.00  0.00    +0.000 A 
ATOM     22  C   UNL     1      49.865   5.118  17.178  0.00  0.00    +0.000 A 
ENDBRANCH  16  21
ENDBRANCH   1  16
TORSDOF 3
ENDMDL
