MODEL 1
REMARK VINA RESULT:    -7.741      0.000      0.000
REMARK INTER + INTRA:         -10.418
REMARK INTER:                 -10.003
REMARK INTRA:                  -0.415
REMARK UNBOUND:                -0.415
REMARK  Name = 
REMARK  9 active torsions:
REMARK  status: ('A' for Active; 'I' for Inactive)
REMARK    1  A    between atoms: C_1  and  C_2
REMARK    2  A    between atoms: C_9  and  C_10
REMARK    3  A    between atoms: C_10  and  C_11
REMARK    4  A    between atoms: C_10  and  C_12
REMARK    5  A    between atoms: C_10  and  C_13
REMARK    6  A    between atoms: C_13  and  N_14
REMARK    7  A    between atoms: N_14  and  C_15
REMARK    8  A    between atoms: C_18  and  C_19
REMARK    9  A    between atoms: C_26  and  C_27
REMARK                            x       y       z     vdW  Elec       q    Type
REMARK                         _______ _______ _______ _____ _____    ______ ____
ROOT
ATOM      1  C   UNL     1      44.824   4.969  12.278  0.00  0.00    +0.000 C 
ATOM      2  C   UNL     1      43.484   5.147  13.019  0.00  0.00    +0.000 C 
ATOM      3  C   UNL     1      44.928   5.981  11.116  0.00  0.00    +0.000 C 
ENDROOT
BRANCH   1  12
ATOM      4  C   UNL     1      51.016   7.818  13.568  0.00  0.00    +0.000 C 
ATOM      5  C   UNL     1      50.173   8.916  14.206  0.00  0.00    +0.000 C 
ATOM      6  C   UNL     1      49.054   8.386  15.129  0.00  0.00    +0.000 C 
ATOM      7  N   UNL     1      47.852   8.046  14.377  0.00  0.00    +0.000 N 
ATOM      8  C   UNL     1      47.434   6.747  14.251  0.00  0.00    +0.000 A 
ATOM      9  N   UNL     1      48.040   5.787  14.962  0.00  0.00    +0.000 NA
ATOM     10  C   UNL     1      47.586   4.530  14.820  0.00  0.00    +0.000 A 
ATOM     11  C   UNL     1      46.547   4.183  13.992  0.00  0.00    +0.000 A 
ATOM     12  C   UNL     1      45.960   5.215  13.288  0.00  0.00    +0.000 A 
ATOM     13  N   UNL     1      46.407   6.482  13.424  0.00  0.00    +0.000 NA
ATOM     14  C   UNL     1      47.382   9.072  13.451  0.00  0.00    +0.000 C 
ATOM     15  C   UNL     1      48.520   9.525  12.516  0.00  0.00    +0.000 C 
ATOM     16  C   UNL     1      48.791   8.554  11.370  0.00  0.00    +0.000 C 
ATOM     17  O   UNL     1      49.719   9.872  13.230  0.00  0.00    +0.000 OA
ENDBRANCH   1  12
BRANCH   1  18
ATOM     18  C   UNL     1      44.913   3.510  11.721  0.00  0.00    +0.000 C 
BRANCH  18  19
ATOM     19  N   UNL     1      44.232   3.338  10.424  0.00  0.00    +0.000 N 
ATOM     20  H   UNL     1      43.554   4.073  10.240  0.00  0.00    +0.000 HD
BRANCH  19  21
ATOM     21  C   UNL     1      45.029   3.125   9.286  0.00  0.00    +0.000 A 
ATOM     22  C   UNL     1      45.486   4.156   8.459  0.00  0.00    +0.000 A 
ATOM     23  C   UNL     1      46.328   3.894   7.370  0.00  0.00    +0.000 A 
ATOM     24  C   UNL     1      46.761   2.594   7.109  0.00  0.00    +0.000 A 
ATOM     25  C   UNL     1      46.345   1.555   7.947  0.00  0.00    +0.000 A 
ATOM     26  C   UNL     1      45.503   1.829   9.033  0.00  0.00    +0.000 A 
BRANCH  24  27
ATOM     27  C   UNL     1      47.642   2.370   5.934  0.00  0.00    +0.000 C 
ATOM     28  N   UNL     1      47.513   3.225   4.872  0.00  0.00    +0.000 N 
ATOM     29  O   UNL     1      48.432   1.435   5.892  0.00  0.00    +0.000 OA
ATOM     30  H   UNL     1      46.717   3.835   4.763  0.00  0.00    +0.000 HD
ATOM     31  H   UNL     1      48.035   2.978   4.043  0.00  0.00    +0.000 HD
ENDBRANCH  24  27
ENDBRANCH  19  21
ENDBRANCH  18  19
ENDBRANCH   1  18
TORSDOF 5
ENDMDL
MODEL 2
REMARK VINA RESULT:    -7.100      3.285      5.251
REMARK INTER + INTRA:          -9.590
REMARK INTER:                  -8.757
REMARK INTRA:                  -0.834
REMARK UNBOUND:                -0.415
REMARK  Name = 
REMARK  9 active torsions:
REMARK  status: ('A' for Active; 'I' for Inactive)
REMARK    1  A    between atoms: C_1  and  C_2
REMARK    2  A    between atoms: C_9  and  C_10
REMARK    3  A    between atoms: C_10  and  C_11
REMARK    4  A    between atoms: C_10  and  C_12
REMARK    5  A    between atoms: C_10  and  C_13
REMARK    6  A    between atoms: C_13  and  N_14
REMARK    7  A    between atoms: N_14  and  C_15
REMARK    8  A    between atoms: C_18  and  C_19
REMARK    9  A    between atoms: C_26  and  C_27
REMARK                            x       y       z     vdW  Elec       q    Type
REMARK                         _______ _______ _______ _____ _____    ______ ____
ROOT
ATOM      1  C   UNL     1      48.348   7.290  13.679  0.00  0.00    +0.000 C 
ATOM      2  C   UNL     1      47.553   8.608  13.766  0.00  0.00    +0.000 C 
ATOM      3  C   UNL     1      49.025   7.168  12.296  0.00  0.00    +0.000 C 
ENDROOT
BRANCH   1  12
ATOM      4  C   UNL     1      49.831   6.646  20.425  0.00  0.00    +0.000 C 
ATOM      5  C   UNL     1      50.241   5.237  20.012  0.00  0.00    +0.000 C 
ATOM      6  C   UNL     1      51.117   5.190  18.741  0.00  0.00    +0.000 C 
ATOM      7  N   UNL     1      50.306   5.195  17.528  0.00  0.00    +0.000 N 
ATOM      8  C   UNL     1      50.310   6.266  16.674  0.00  0.00    +0.000 A 
ATOM      9  N   UNL     1      51.192   7.257  16.861  0.00  0.00    +0.000 NA
ATOM     10  C   UNL     1      51.172   8.279  15.988  0.00  0.00    +0.000 A 
ATOM     11  C   UNL     1      50.302   8.359  14.928  0.00  0.00    +0.000 A 
ATOM     12  C   UNL     1      49.419   7.309  14.784  0.00  0.00    +0.000 A 
ATOM     13  N   UNL     1      49.432   6.275  15.655  0.00  0.00    +0.000 NA
ATOM     14  C   UNL     1      49.216   4.225  17.501  0.00  0.00    +0.000 C 
ATOM     15  C   UNL     1      48.340   4.352  18.762  0.00  0.00    +0.000 C 
ATOM     16  C   UNL     1      47.359   5.520  18.709  0.00  0.00    +0.000 C 
ATOM     17  O   UNL     1      49.112   4.345  19.975  0.00  0.00    +0.000 OA
ENDBRANCH   1  12
BRANCH   1  18
ATOM     18  C   UNL     1      47.374   6.086  13.902  0.00  0.00    +0.000 C 
BRANCH  18  19
ATOM     19  N   UNL     1      46.035   6.304  13.322  0.00  0.00    +0.000 N 
ATOM     20  H   UNL     1      45.859   7.282  13.109  0.00  0.00    +0.000 HD
BRANCH  19  21
ATOM     21  C   UNL     1      45.649   5.499  12.237  0.00  0.00    +0.000 A 
ATOM     22  C   UNL     1      45.730   5.910  10.903  0.00  0.00    +0.000 A 
ATOM     23  C   UNL     1      45.388   5.045   9.856  0.00  0.00    +0.000 A 
ATOM     24  C   UNL     1      44.992   3.734  10.123  0.00  0.00    +0.000 A 
ATOM     25  C   UNL     1      44.941   3.293  11.448  0.00  0.00    +0.000 A 
ATOM     26  C   UNL     1      45.286   4.167  12.488  0.00  0.00    +0.000 A 
BRANCH  24  27
ATOM     27  C   UNL     1      44.627   2.863   8.975  0.00  0.00    +0.000 C 
ATOM     28  N   UNL     1      44.290   3.475   7.797  0.00  0.00    +0.000 N 
ATOM     29  O   UNL     1      44.590   1.644   9.080  0.00  0.00    +0.000 OA
ATOM     30  H   UNL     1      44.063   4.456   7.743  0.00  0.00    +0.000 HD
ATOM     31  H   UNL     1      43.930   2.866   7.074  0.00  0.00    +0.000 HD
ENDBRANCH  24  27
ENDBRANCH  19  21
ENDBRANCH  18  19
ENDBRANCH   1  18
TORSDOF 5
ENDMDL
MODEL 3
REMARK VINA RESULT:    -7.034      3.210      5.842
REMARK INTER + INTRA:          -9.504
REMARK INTER:                  -8.264
REMARK INTRA:                  -1.240
REMARK UNBOUND:                -0.415
REMARK  Name = 
REMARK  9 active torsions:
REMARK  status: ('A' for Active; 'I' for Inactive)
REMARK    1  A    between atoms: C_1  and  C_2
REMARK    2  A    between atoms: C_9  and  C_10
REMARK    3  A    between atoms: C_10  and  C_11
REMARK    4  A    between atoms: C_10  and  C_12
REMARK    5  A    between atoms: C_10  and  C_13
REMARK    6  A    between atoms: C_13  and  N_14
REMARK    7  A    between atoms: N_14  and  C_15
REMARK    8  A    between atoms: C_18  and  C_19
REMARK    9  A    between atoms: C_26  and  C_27
REMARK                            x       y       z     vdW  Elec       q    Type
REMARK                         _______ _______ _______ _____ _____    ______ ____
ROOT
ATOM      1  C   UNL     1      49.531   8.472  13.524  0.00  0.00    +0.000 C 
ATOM      2  C   UNL     1      48.652   9.492  12.772  0.00  0.00    +0.000 C 
ATOM      3  C   UNL     1      51.024   8.752  13.248  0.00  0.00    +0.000 C 
ENDROOT
BRANCH   1  12
ATOM      4  C   UNL     1      46.880   5.668  19.288  0.00  0.00    +0.000 C 
ATOM      5  C   UNL     1      48.338   5.324  19.571  0.00  0.00    +0.000 C 
ATOM      6  C   UNL     1      49.312   6.499  19.334  0.00  0.00    +0.000 C 
ATOM      7  N   UNL     1      49.715   6.589  17.935  0.00  0.00    +0.000 N 
ATOM      8  C   UNL     1      49.324   7.640  17.148  0.00  0.00    +0.000 A 
ATOM      9  N   UNL     1      48.699   8.685  17.704  0.00  0.00    +0.000 NA
ATOM     10  C   UNL     1      48.349   9.701  16.897  0.00  0.00    +0.000 A 
ATOM     11  C   UNL     1      48.593   9.720  15.546  0.00  0.00    +0.000 A 
ATOM     12  C   UNL     1      49.242   8.617  15.029  0.00  0.00    +0.000 A 
ATOM     13  N   UNL     1      49.601   7.592  15.832  0.00  0.00    +0.000 NA
ATOM     14  C   UNL     1      50.177   5.342  17.336  0.00  0.00    +0.000 C 
ATOM     15  C   UNL     1      49.145   4.217  17.551  0.00  0.00    +0.000 C 
ATOM     16  C   UNL     1      47.958   4.287  16.594  0.00  0.00    +0.000 C 
ATOM     17  O   UNL     1      48.732   4.101  18.924  0.00  0.00    +0.000 OA
ENDBRANCH   1  12
BRANCH   1  18
ATOM     18  C   UNL     1      49.163   7.028  13.048  0.00  0.00    +0.000 C 
BRANCH  18  19
ATOM     19  N   UNL     1      47.938   6.501  13.679  0.00  0.00    +0.000 N 
ATOM     20  H   UNL     1      47.463   7.197  14.248  0.00  0.00    +0.000 HD
BRANCH  19  21
ATOM     21  C   UNL     1      47.010   5.837  12.860  0.00  0.00    +0.000 A 
ATOM     22  C   UNL     1      46.323   4.683  13.248  0.00  0.00    +0.000 A 
ATOM     23  C   UNL     1      45.363   4.094  12.415  0.00  0.00    +0.000 A 
ATOM     24  C   UNL     1      45.042   4.674  11.187  0.00  0.00    +0.000 A 
ATOM     25  C   UNL     1      45.690   5.850  10.798  0.00  0.00    +0.000 A 
ATOM     26  C   UNL     1      46.649   6.430  11.640  0.00  0.00    +0.000 A 
BRANCH  24  27
ATOM     27  C   UNL     1      44.026   4.002  10.337  0.00  0.00    +0.000 C 
ATOM     28  N   UNL     1      43.974   4.351   9.014  0.00  0.00    +0.000 N 
ATOM     29  O   UNL     1      43.236   3.189  10.801  0.00  0.00    +0.000 OA
ATOM     30  H   UNL     1      44.422   5.181   8.656  0.00  0.00    +0.000 HD
ATOM     31  H   UNL     1      43.198   3.970   8.489  0.00  0.00    +0.000 HD
ENDBRANCH  24  27
ENDBRANCH  19  21
ENDBRANCH  18  19
ENDBRANCH   1  18
TORSDOF 5
ENDMDL
MODEL 4
REMARK VINA RESULT:    -6.957      2.698      4.660
REMARK INTER + INTRA:          -9.405
REMARK INTER:                  -8.127
REMARK INTRA:                  -1.278
REMARK UNBOUND:                -0.415
REMARK  Name = 
REMARK  9 active torsions:
REMARK  status: ('A' for Active; 'I' for Inactive)
REMARK    1  A    between atoms: C_1  and  C_2
REMARK    2  A    between atoms: C_9  and  C_10
REMARK    3  A    between atoms: C_10  and  C_11
REMARK    4  A    between atoms: C_10  and  C_12
REMARK    5  A    between atoms: C_10  and  C_13
REMARK    6  A    between atoms: C_13  and  N_14
REMARK    7  A    between atoms: N_14  and  C_15
REMARK    8  A    between atoms: C_18  and  C_19
REMARK    9  A    between atoms: C_26  and  C_27
REMARK                            x       y       z     vdW  Elec       q    Type
REMARK                         _______ _______ _______ _____ _____    ______ ____
ROOT
ATOM      1  C   UNL     1      48.340   4.453  17.086  0.00  0.00    +0.000 C 
ATOM      2  C   UNL     1      49.033   3.260  17.774  0.00  0.00    +0.000 C 
ATOM      3  C   UNL     1      47.285   5.072  18.029  0.00  0.00    +0.000 C 
ENDROOT
BRANCH   1  12
ATOM      4  C   UNL     1      51.407   8.386  12.264  0.00  0.00    +0.000 C 
ATOM      5  C   UNL     1      50.491   9.467  12.827  0.00  0.00    +0.000 C 
ATOM      6  C   UNL     1      50.476   9.529  14.370  0.00  0.00    +0.000 C 
ATOM      7  N   UNL     1      49.526   8.578  14.937  0.00  0.00    +0.000 N 
ATOM      8  C   UNL     1      49.949   7.493  15.659  0.00  0.00    +0.000 A 
ATOM      9  N   UNL     1      51.242   7.385  15.991  0.00  0.00    +0.000 NA
ATOM     10  C   UNL     1      51.609   6.313  16.714  0.00  0.00    +0.000 A 
ATOM     11  C   UNL     1      50.738   5.333  17.122  0.00  0.00    +0.000 A 
ATOM     12  C   UNL     1      49.419   5.499  16.751  0.00  0.00    +0.000 A 
ATOM     13  N   UNL     1      49.038   6.574  16.027  0.00  0.00    +0.000 NA
ATOM     14  C   UNL     1      48.188   8.610  14.356  0.00  0.00    +0.000 C 
ATOM     15  C   UNL     1      48.255   8.488  12.821  0.00  0.00    +0.000 C 
ATOM     16  C   UNL     1      48.480   7.060  12.332  0.00  0.00    +0.000 C 
ATOM     17  O   UNL     1      49.182   9.417  12.233  0.00  0.00    +0.000 OA
ENDBRANCH   1  12
BRANCH   1  18
ATOM     18  C   UNL     1      47.653   3.959  15.771  0.00  0.00    +0.000 C 
BRANCH  18  19
ATOM     19  N   UNL     1      46.790   4.979  15.144  0.00  0.00    +0.000 N 
ATOM     20  H   UNL     1      47.240   5.889  15.091  0.00  0.00    +0.000 HD
BRANCH  19  21
ATOM     21  C   UNL     1      46.191   4.668  13.912  0.00  0.00    +0.000 A 
ATOM     22  C   UNL     1      46.297   3.418  13.295  0.00  0.00    +0.000 A 
ATOM     23  C   UNL     1      45.630   3.141  12.095  0.00  0.00    +0.000 A 
ATOM     24  C   UNL     1      44.808   4.103  11.506  0.00  0.00    +0.000 A 
ATOM     25  C   UNL     1      44.659   5.347  12.127  0.00  0.00    +0.000 A 
ATOM     26  C   UNL     1      45.331   5.611  13.328  0.00  0.00    +0.000 A 
BRANCH  24  27
ATOM     27  C   UNL     1      44.135   3.763  10.226  0.00  0.00    +0.000 C 
ATOM     28  N   UNL     1      43.794   4.796   9.394  0.00  0.00    +0.000 N 
ATOM     29  O   UNL     1      43.857   2.607   9.933  0.00  0.00    +0.000 OA
ATOM     30  H   UNL     1      43.773   5.755   9.704  0.00  0.00    +0.000 HD
ATOM     31  H   UNL     1      43.232   4.547   8.591  0.00  0.00    +0.000 HD
ENDBRANCH  24  27
ENDBRANCH  19  21
ENDBRANCH  18  19
ENDBRANCH   1  18
TORSDOF 5
ENDMDL
MODEL 5
REMARK VINA RESULT:    -6.234      3.639      6.663
REMARK INTER + INTRA:          -8.471
REMARK INTER:                  -7.466
REMARK INTRA:                  -1.005
REMARK UNBOUND:                -0.415
REMARK  Name = 
REMARK  9 active torsions:
REMARK  status: ('A' for Active; 'I' for Inactive)
REMARK    1  A    between atoms: C_1  and  C_2
REMARK    2  A    between atoms: C_9  and  C_10
REMARK    3  A    between atoms: C_10  and  C_11
REMARK    4  A    between atoms: C_10  and  C_12
REMARK    5  A    between atoms: C_10  and  C_13
REMARK    6  A    between atoms: C_13  and  N_14
REMARK    7  A    between atoms: N_14  and  C_15
REMARK    8  A    between atoms: C_18  and  C_19
REMARK    9  A    between atoms: C_26  and  C_27
REMARK                            x       y       z     vdW  Elec       q    Type
REMARK                         _______ _______ _______ _____ _____    ______ ____
ROOT
ATOM      1  C   UNL     1      49.300   7.142  16.052  0.00  0.00    +0.000 C 
ATOM      2  C   UNL     1      48.729   7.774  17.337  0.00  0.00    +0.000 C 
ATOM      3  C   UNL     1      50.729   6.615  16.308  0.00  0.00    +0.000 C 
ENDROOT
BRANCH   1  12
ATOM      4  C   UNL     1      43.364   5.108  13.094  0.00  0.00    +0.000 C 
ATOM      5  C   UNL     1      44.265   4.851  11.891  0.00  0.00    +0.000 C 
ATOM      6  C   UNL     1      45.570   4.101  12.239  0.00  0.00    +0.000 C 
ATOM      7  N   UNL     1      46.612   5.016  12.691  0.00  0.00    +0.000 N 
ATOM      8  C   UNL     1      47.057   5.003  13.987  0.00  0.00    +0.000 A 
ATOM      9  N   UNL     1      46.651   4.033  14.815  0.00  0.00    +0.000 NA
ATOM     10  C   UNL     1      47.126   4.050  16.072  0.00  0.00    +0.000 A 
ATOM     11  C   UNL     1      47.994   5.003  16.546  0.00  0.00    +0.000 A 
ATOM     12  C   UNL     1      48.379   5.977  15.647  0.00  0.00    +0.000 A 
ATOM     13  N   UNL     1      47.909   5.967  14.380  0.00  0.00    +0.000 NA
ATOM     14  C   UNL     1      46.838   6.177  11.837  0.00  0.00    +0.000 C 
ATOM     15  C   UNL     1      45.516   6.922  11.568  0.00  0.00    +0.000 C 
ATOM     16  C   UNL     1      45.068   7.808  12.727  0.00  0.00    +0.000 C 
ATOM     17  O   UNL     1      44.469   6.046  11.115  0.00  0.00    +0.000 OA
ENDBRANCH   1  12
BRANCH   1  18
ATOM     18  C   UNL     1      49.326   8.219  14.917  0.00  0.00    +0.000 C 
BRANCH  18  19
ATOM     19  N   UNL     1      50.684   8.696  14.597  0.00  0.00    +0.000 N 
ATOM     20  H   UNL     1      51.377   8.379  15.270  0.00  0.00    +0.000 HD
BRANCH  19  21
ATOM     21  C   UNL     1      51.161   8.498  13.290  0.00  0.00    +0.000 A 
ATOM     22  C   UNL     1      52.492   8.699  12.914  0.00  0.00    +0.000 A 
ATOM     23  C   UNL     1      52.927   8.429  11.610  0.00  0.00    +0.000 A 
ATOM     24  C   UNL     1      52.042   7.913  10.663  0.00  0.00    +0.000 A 
ATOM     25  C   UNL     1      50.715   7.669  11.030  0.00  0.00    +0.000 A 
ATOM     26  C   UNL     1      50.292   7.943  12.337  0.00  0.00    +0.000 A 
BRANCH  24  27
ATOM     27  C   UNL     1      52.552   7.658   9.291  0.00  0.00    +0.000 C 
ATOM     28  N   UNL     1      52.999   8.733   8.570  0.00  0.00    +0.000 N 
ATOM     29  O   UNL     1      52.544   6.535   8.801  0.00  0.00    +0.000 OA
ATOM     30  H   UNL     1      52.789   9.684   8.831  0.00  0.00    +0.000 HD
ATOM     31  H   UNL     1      53.225   8.548   7.602  0.00  0.00    +0.000 HD
ENDBRANCH  24  27
ENDBRANCH  19  21
ENDBRANCH  18  19
ENDBRANCH   1  18
TORSDOF 5
ENDMDL
MODEL 6
REMARK VINA RESULT:    -6.196      3.405      5.448
REMARK INTER + INTRA:          -8.422
REMARK INTER:                  -7.638
REMARK INTRA:                  -0.784
REMARK UNBOUND:                -0.415
REMARK  Name = 
REMARK  9 active torsions:
REMARK  status: ('A' for Active; 'I' for Inactive)
REMARK    1  A    between atoms: C_1  and  C_2
REMARK    2  A    between atoms: C_9  and  C_10
REMARK    3  A    between atoms: C_10  and  C_11
REMARK    4  A    between atoms: C_10  and  C_12
REMARK    5  A    between atoms: C_10  and  C_13
REMARK    6  A    between atoms: C_13  and  N_14
REMARK    7  A    between atoms: N_14  and  C_15
REMARK    8  A    between atoms: C_18  and  C_19
REMARK    9  A    between atoms: C_26  and  C_27
REMARK                            x       y       z     vdW  Elec       q    Type
REMARK                         _______ _______ _______ _____ _____    ______ ____
ROOT
ATOM      1  C   UNL     1      48.468   7.869  13.986  0.00  0.00    +0.000 C 
ATOM      2  C   UNL     1      49.233   9.014  14.679  0.00  0.00    +0.000 C 
ATOM      3  C   UNL     1      49.196   7.450  12.691  0.00  0.00    +0.000 C 
ENDROOT
BRANCH   1  12
ATOM      4  C   UNL     1      51.948   3.207  17.764  0.00  0.00    +0.000 C 
ATOM      5  C   UNL     1      51.666   4.187  18.897  0.00  0.00    +0.000 C 
ATOM      6  C   UNL     1      50.205   4.685  18.940  0.00  0.00    +0.000 C 
ATOM      7  N   UNL     1      49.998   5.821  18.049  0.00  0.00    +0.000 N 
ATOM      8  C   UNL     1      49.216   5.713  16.929  0.00  0.00    +0.000 A 
ATOM      9  N   UNL     1      48.497   4.601  16.730  0.00  0.00    +0.000 NA
ATOM     10  C   UNL     1      47.731   4.545  15.627  0.00  0.00    +0.000 A 
ATOM     11  C   UNL     1      47.651   5.557  14.703  0.00  0.00    +0.000 A 
ATOM     12  C   UNL     1      48.411   6.679  14.962  0.00  0.00    +0.000 A 
ATOM     13  N   UNL     1      49.183   6.746  16.069  0.00  0.00    +0.000 NA
ATOM     14  C   UNL     1      50.968   6.902  18.177  0.00  0.00    +0.000 C 
ATOM     15  C   UNL     1      52.407   6.361  18.070  0.00  0.00    +0.000 C 
ATOM     16  C   UNL     1      52.848   6.079  16.636  0.00  0.00    +0.000 C 
ATOM     17  O   UNL     1      52.644   5.243  18.943  0.00  0.00    +0.000 OA
ENDBRANCH   1  12
BRANCH   1  18
ATOM     18  C   UNL     1      47.018   8.350  13.650  0.00  0.00    +0.000 C 
BRANCH  18  19
ATOM     19  N   UNL     1      46.648   8.142  12.237  0.00  0.00    +0.000 N 
ATOM     20  H   UNL     1      47.430   8.288  11.604  0.00  0.00    +0.000 HD
BRANCH  19  21
ATOM     21  C   UNL     1      45.974   6.956  11.900  0.00  0.00    +0.000 A 
ATOM     22  C   UNL     1      44.948   6.404  12.672  0.00  0.00    +0.000 A 
ATOM     23  C   UNL     1      44.269   5.251  12.260  0.00  0.00    +0.000 A 
ATOM     24  C   UNL     1      44.579   4.646  11.041  0.00  0.00    +0.000 A 
ATOM     25  C   UNL     1      45.576   5.205  10.236  0.00  0.00    +0.000 A 
ATOM     26  C   UNL     1      46.249   6.359  10.659  0.00  0.00    +0.000 A 
BRANCH  24  27
ATOM     27  C   UNL     1      43.837   3.417  10.658  0.00  0.00    +0.000 C 
ATOM     28  N   UNL     1      44.111   2.866   9.434  0.00  0.00    +0.000 N 
ATOM     29  O   UNL     1      42.985   2.927  11.388  0.00  0.00    +0.000 OA
ATOM     30  H   UNL     1      44.605   3.369   8.714  0.00  0.00    +0.000 HD
ATOM     31  H   UNL     1      43.508   2.106   9.150  0.00  0.00    +0.000 HD
ENDBRANCH  24  27
ENDBRANCH  19  21
ENDBRANCH  18  19
ENDBRANCH   1  18
TORSDOF 5
ENDMDL
MODEL 7
REMARK VINA RESULT:    -6.162      4.805      8.875
REMARK INTER + INTRA:          -8.378
REMARK INTER:                  -6.759
REMARK INTRA:                  -1.619
REMARK UNBOUND:                -0.415
REMARK  Name = 
REMARK  9 active torsions:
REMARK  status: ('A' for Active; 'I' for Inactive)
REMARK    1  A    between atoms: C_1  and  C_2
REMARK    2  A    between atoms: C_9  and  C_10
REMARK    3  A    between atoms: C_10  and  C_11
REMARK    4  A    between atoms: C_10  and  C_12
REMARK    5  A    between atoms: C_10  and  C_13
REMARK    6  A    between atoms: C_13  and  N_14
REMARK    7  A    between atoms: N_14  and  C_15
REMARK    8  A    between atoms: C_18  and  C_19
REMARK    9  A    between atoms: C_26  and  C_27
REMARK                            x       y       z     vdW  Elec       q    Type
REMARK                         _______ _______ _______ _____ _____    ______ ____
ROOT
ATOM      1  C   UNL     1      47.337   7.387  13.075  0.00  0.00    +0.000 C 
ATOM      2  C   UNL     1      47.988   7.256  11.683  0.00  0.00    +0.000 C 
ATOM      3  C   UNL     1      45.935   8.021  12.948  0.00  0.00    +0.000 C 
ENDROOT
BRANCH   1  12
ATOM      4  C   UNL     1      50.143   2.457  17.068  0.00  0.00    +0.000 C 
ATOM      5  C   UNL     1      49.183   3.015  18.113  0.00  0.00    +0.000 C 
ATOM      6  C   UNL     1      47.749   3.240  17.584  0.00  0.00    +0.000 C 
ATOM      7  N   UNL     1      47.616   4.535  16.925  0.00  0.00    +0.000 N 
ATOM      8  C   UNL     1      47.404   4.628  15.575  0.00  0.00    +0.000 A 
ATOM      9  N   UNL     1      47.150   3.519  14.869  0.00  0.00    +0.000 NA
ATOM     10  C   UNL     1      46.931   3.659  13.550  0.00  0.00    +0.000 A 
ATOM     11  C   UNL     1      46.955   4.867  12.898  0.00  0.00    +0.000 A 
ATOM     12  C   UNL     1      47.219   5.975  13.677  0.00  0.00    +0.000 A 
ATOM     13  N   UNL     1      47.439   5.845  15.004  0.00  0.00    +0.000 NA
ATOM     14  C   UNL     1      48.127   5.675  17.679  0.00  0.00    +0.000 C 
ATOM     15  C   UNL     1      49.578   5.423  18.134  0.00  0.00    +0.000 C 
ATOM     16  C   UNL     1      50.609   5.637  17.030  0.00  0.00    +0.000 C 
ATOM     17  O   UNL     1      49.739   4.155  18.792  0.00  0.00    +0.000 OA
ENDBRANCH   1  12
BRANCH   1  18
ATOM     18  C   UNL     1      48.244   8.279  13.985  0.00  0.00    +0.000 C 
BRANCH  18  19
ATOM     19  N   UNL     1      47.521   8.875  15.124  0.00  0.00    +0.000 N 
ATOM     20  H   UNL     1      46.672   8.366  15.355  0.00  0.00    +0.000 HD
BRANCH  19  21
ATOM     21  C   UNL     1      48.248   9.151  16.294  0.00  0.00    +0.000 A 
ATOM     22  C   UNL     1      47.654   9.357  17.543  0.00  0.00    +0.000 A 
ATOM     23  C   UNL     1      48.430   9.569  18.690  0.00  0.00    +0.000 A 
ATOM     24  C   UNL     1      49.823   9.540  18.616  0.00  0.00    +0.000 A 
ATOM     25  C   UNL     1      50.436   9.296  17.383  0.00  0.00    +0.000 A 
ATOM     26  C   UNL     1      49.650   9.086  16.243  0.00  0.00    +0.000 A 
BRANCH  24  27
ATOM     27  C   UNL     1      50.597   9.784  19.860  0.00  0.00    +0.000 C 
ATOM     28  N   UNL     1      49.894  10.079  20.997  0.00  0.00    +0.000 N 
ATOM     29  O   UNL     1      51.822   9.759  19.870  0.00  0.00    +0.000 OA
ATOM     30  H   UNL     1      48.925  10.356  20.977  0.00  0.00    +0.000 HD
ATOM     31  H   UNL     1      50.448  10.359  21.796  0.00  0.00    +0.000 HD
ENDBRANCH  24  27
ENDBRANCH  19  21
ENDBRANCH  18  19
ENDBRANCH   1  18
TORSDOF 5
ENDMDL
MODEL 8
REMARK VINA RESULT:    -6.140      3.184      5.541
REMARK INTER + INTRA:          -8.350
REMARK INTER:                  -7.295
REMARK INTRA:                  -1.055
REMARK UNBOUND:                -0.415
REMARK  Name = 
REMARK  9 active torsions:
REMARK  status: ('A' for Active; 'I' for Inactive)
REMARK    1  A    between atoms: C_1  and  C_2
REMARK    2  A    between atoms: C_9  and  C_10
REMARK    3  A    between atoms: C_10  and  C_11
REMARK    4  A    between atoms: C_10  and  C_12
REMARK    5  A    between atoms: C_10  and  C_13
REMARK    6  A    between atoms: C_13  and  N_14
REMARK    7  A    between atoms: N_14  and  C_15
REMARK    8  A    between atoms: C_18  and  C_19
REMARK    9  A    between atoms: C_26  and  C_27
REMARK                            x       y       z     vdW  Elec       q    Type
REMARK                         _______ _______ _______ _____ _____    ______ ____
ROOT
ATOM      1  C   UNL     1      48.297   9.020  12.696  0.00  0.00    +0.000 C 
ATOM      2  C   UNL     1      47.929  10.273  11.877  0.00  0.00    +0.000 C 
ATOM      3  C   UNL     1      49.085   8.023  11.818  0.00  0.00    +0.000 C 
ENDROOT
BRANCH   1  12
ATOM      4  C   UNL     1      49.768   8.424  19.449  0.00  0.00    +0.000 C 
ATOM      5  C   UNL     1      50.884   7.519  18.938  0.00  0.00    +0.000 C 
ATOM      6  C   UNL     1      51.669   8.110  17.747  0.00  0.00    +0.000 C 
ATOM      7  N   UNL     1      51.006   7.833  16.476  0.00  0.00    +0.000 N 
ATOM      8  C   UNL     1      50.446   8.838  15.732  0.00  0.00    +0.000 A 
ATOM      9  N   UNL     1      50.646  10.113  16.088  0.00  0.00    +0.000 NA
ATOM     10  C   UNL     1      50.091  11.066  15.319  0.00  0.00    +0.000 A 
ATOM     11  C   UNL     1      49.336  10.801  14.203  0.00  0.00    +0.000 A 
ATOM     12  C   UNL     1      49.166   9.469  13.885  0.00  0.00    +0.000 A 
ATOM     13  N   UNL     1      49.722   8.504  14.649  0.00  0.00    +0.000 NA
ATOM     14  C   UNL     1      50.618   6.443  16.264  0.00  0.00    +0.000 C 
ATOM     15  C   UNL     1      49.789   5.920  17.454  0.00  0.00    +0.000 C 
ATOM     16  C   UNL     1      48.333   6.376  17.431  0.00  0.00    +0.000 C 
ATOM     17  O   UNL     1      50.420   6.174  18.721  0.00  0.00    +0.000 OA
ENDBRANCH   1  12
BRANCH   1  18
ATOM     18  C   UNL     1      46.987   8.345  13.221  0.00  0.00    +0.000 C 
BRANCH  18  19
ATOM     19  N   UNL     1      47.171   6.932  13.602  0.00  0.00    +0.000 N 
ATOM     20  H   UNL     1      47.130   6.792  14.608  0.00  0.00    +0.000 HD
BRANCH  19  21
ATOM     21  C   UNL     1      46.383   5.967  12.951  0.00  0.00    +0.000 A 
ATOM     22  C   UNL     1      45.919   6.105  11.640  0.00  0.00    +0.000 A 
ATOM     23  C   UNL     1      45.187   5.085  11.018  0.00  0.00    +0.000 A 
ATOM     24  C   UNL     1      44.938   3.886  11.686  0.00  0.00    +0.000 A 
ATOM     25  C   UNL     1      45.428   3.713  12.984  0.00  0.00    +0.000 A 
ATOM     26  C   UNL     1      46.158   4.740  13.596  0.00  0.00    +0.000 A 
BRANCH  24  27
ATOM     27  C   UNL     1      44.146   2.843  10.985  0.00  0.00    +0.000 C 
ATOM     28  N   UNL     1      44.651   2.342   9.814  0.00  0.00    +0.000 N 
ATOM     29  O   UNL     1      43.062   2.464  11.411  0.00  0.00    +0.000 OA
ATOM     30  H   UNL     1      45.393   2.798   9.307  0.00  0.00    +0.000 HD
ATOM     31  H   UNL     1      44.036   1.726   9.299  0.00  0.00    +0.000 HD
ENDBRANCH  24  27
ENDBRANCH  19  21
ENDBRANCH  18  19
ENDBRANCH   1  18
TORSDOF 5
ENDMDL
MODEL 9
REMARK VINA RESULT:    -5.880      4.323      5.928
REMARK INTER + INTRA:          -8.014
REMARK INTER:                  -7.072
REMARK INTRA:                  -0.941
REMARK UNBOUND:                -0.415
REMARK  Name = 
REMARK  9 active torsions:
REMARK  status: ('A' for Active; 'I' for Inactive)
REMARK    1  A    between atoms: C_1  and  C_2
REMARK    2  A    between atoms: C_9  and  C_10
REMARK    3  A    between atoms: C_10  and  C_11
REMARK    4  A    between atoms: C_10  and  C_12
REMARK    5  A    between atoms: C_10  and  C_13
REMARK    6  A    between atoms: C_13  and  N_14
REMARK    7  A    between atoms: N_14  and  C_15
REMARK    8  A    between atoms: C_18  and  C_19
REMARK    9  A    between atoms: C_26  and  C_27
REMARK                            x       y       z     vdW  Elec       q    Type
REMARK                         _______ _______ _______ _____ _____    ______ ____
ROOT
ATOM      1  C   UNL     1      48.443   3.399  17.275  0.00  0.00    +0.000 C 
ATOM      2  C   UNL     1      48.996   2.241  16.420  0.00  0.00    +0.000 C 
ATOM      3  C   UNL     1      47.844   2.851  18.588  0.00  0.00    +0.000 C 
ENDROOT
BRANCH   1  12
ATOM      4  C   UNL     1      51.449   9.553  16.179  0.00  0.00    +0.000 C 
ATOM      5  C   UNL     1      50.758   9.918  17.488  0.00  0.00    +0.000 C 
ATOM      6  C   UNL     1      50.925   8.857  18.597  0.00  0.00    +0.000 C 
ATOM      7  N   UNL     1      49.924   7.801  18.486  0.00  0.00    +0.000 N 
ATOM      8  C   UNL     1      50.276   6.521  18.146  0.00  0.00    +0.000 A 
ATOM      9  N   UNL     1      51.571   6.189  18.074  0.00  0.00    +0.000 NA
ATOM     10  C   UNL     1      51.870   4.918  17.754  0.00  0.00    +0.000 A 
ATOM     11  C   UNL     1      50.926   3.954  17.499  0.00  0.00    +0.000 A 
ATOM     12  C   UNL     1      49.608   4.354  17.591  0.00  0.00    +0.000 A 
ATOM     13  N   UNL     1      49.297   5.628  17.914  0.00  0.00    +0.000 NA
ATOM     14  C   UNL     1      48.546   8.257  18.342  0.00  0.00    +0.000 C 
ATOM     15  C   UNL     1      48.424   9.269  17.187  0.00  0.00    +0.000 C 
ATOM     16  C   UNL     1      48.398   8.619  15.806  0.00  0.00    +0.000 C 
ATOM     17  O   UNL     1      49.395  10.327  17.272  0.00  0.00    +0.000 OA
ENDBRANCH   1  12
BRANCH   1  18
ATOM     18  C   UNL     1      47.340   4.155  16.463  0.00  0.00    +0.000 C 
BRANCH  18  19
ATOM     19  N   UNL     1      47.250   3.719  15.056  0.00  0.00    +0.000 N 
ATOM     20  H   UNL     1      46.906   2.766  14.966  0.00  0.00    +0.000 HD
BRANCH  19  21
ATOM     21  C   UNL     1      46.581   4.558  14.148  0.00  0.00    +0.000 A 
ATOM     22  C   UNL     1      45.308   4.285  13.639  0.00  0.00    +0.000 A 
ATOM     23  C   UNL     1      44.661   5.185  12.782  0.00  0.00    +0.000 A 
ATOM     24  C   UNL     1      45.263   6.399  12.448  0.00  0.00    +0.000 A 
ATOM     25  C   UNL     1      46.519   6.707  12.979  0.00  0.00    +0.000 A 
ATOM     26  C   UNL     1      47.156   5.799  13.834  0.00  0.00    +0.000 A 
BRANCH  24  27
ATOM     27  C   UNL     1      44.539   7.311  11.525  0.00  0.00    +0.000 C 
ATOM     28  N   UNL     1      43.274   6.952  11.141  0.00  0.00    +0.000 N 
ATOM     29  O   UNL     1      45.059   8.331  11.091  0.00  0.00    +0.000 OA
ATOM     30  H   UNL     1      42.916   6.019  11.268  0.00  0.00    +0.000 HD
ATOM     31  H   UNL     1      42.855   7.526  10.422  0.00  0.00    +0.000 HD
ENDBRANCH  24  27
ENDBRANCH  19  21
ENDBRANCH  18  19
ENDBRANCH   1  18
TORSDOF 5
ENDMDL
