MODEL 1
REMARK VINA RESULT:    -8.309      0.000      0.000
REMARK INTER + INTRA:         -11.644
REMARK INTER:                 -10.738
REMARK INTRA:                  -0.906
REMARK UNBOUND:                -0.906
REMARK  Name = 
REMARK  5 active torsions:
REMARK  status: ('A' for Active; 'I' for Inactive)
REMARK    1  A    between atoms: C_2  and  C_4
REMARK    2  A    between atoms: N_8  and  C_9
REMARK    3  A    between atoms: C_9  and  C_10
REMARK    4  A    between atoms: C_13  and  O_14
REMARK    5  A    between atoms: O_14  and  C_15
REMARK                            x       y       z     vdW  Elec       q    Type
REMARK                         _______ _______ _______ _____ _____    ______ ____
ROOT
ATOM      1  C   UNL     1      46.514   2.739   7.527  0.00  0.00    +0.000 A 
ATOM      2  C   UNL     1      46.219   4.080   7.692  0.00  0.00    +0.000 A 
ATOM      3  C   UNL     1      45.377   4.451   8.740  0.00  0.00    +0.000 A 
ATOM      4  C   UNL     1      44.859   3.484   9.587  0.00  0.00    +0.000 A 
ATOM      5  N   UNL     1      43.928   3.752  10.595  0.00  0.00    +0.000 N 
ATOM      6  N   UNL     1      45.181   2.182   9.386  0.00  0.00    +0.000 NA
ATOM      7  N   UNL     1      46.016   1.796   8.357  0.00  0.00    +0.000 NA
ATOM      8  H   UNL     1      43.765   2.879  11.094  0.00  0.00    +0.000 HD
ENDROOT
BRANCH   1  10
ATOM      9  N   UNL     1      47.283   2.973   5.228  0.00  0.00    +0.000 N 
ATOM     10  C   UNL     1      47.375   2.279   6.403  0.00  0.00    +0.000 C 
ATOM     11  O   UNL     1      48.145   1.330   6.527  0.00  0.00    +0.000 OA
ATOM     12  H   UNL     1      47.879   2.706   4.456  0.00  0.00    +0.000 HD
ATOM     13  H   UNL     1      46.687   3.786   5.142  0.00  0.00    +0.000 HD
ENDBRANCH   1  10
BRANCH   5  14
ATOM     14  C   UNL     1      43.860   4.977  11.407  0.00  0.00    +0.000 C 
ATOM     15  C   UNL     1      42.602   5.083  12.265  0.00  0.00    +0.000 C 
ATOM     16  C   UNL     1      42.854   6.097  11.202  0.00  0.00    +0.000 C 
BRANCH  14  17
ATOM     17  C   UNL     1      45.189   5.395  12.031  0.00  0.00    +0.000 A 
ATOM     18  C   UNL     1      45.788   4.618  13.037  0.00  0.00    +0.000 A 
ATOM     19  C   UNL     1      47.072   4.901  13.518  0.00  0.00    +0.000 A 
ATOM     20  C   UNL     1      47.785   5.980  13.002  0.00  0.00    +0.000 A 
ATOM     21  C   UNL     1      47.178   6.811  12.061  0.00  0.00    +0.000 A 
ATOM     22  C   UNL     1      45.899   6.521  11.582  0.00  0.00    +0.000 A 
BRANCH  20  23
ATOM     23  O   UNL     1      49.055   6.335  13.359  0.00  0.00    +0.000 OA
BRANCH  23  24
ATOM     24  C   UNL     1      49.492   7.597  12.880  0.00  0.00    +0.000 C 
ATOM     25  F   UNL     1      50.249   8.205  13.828  0.00  0.00    +0.000 F 
ATOM     26  F   UNL     1      50.310   7.365  11.823  0.00  0.00    +0.000 F 
ENDBRANCH  23  24
ENDBRANCH  20  23
ENDBRANCH  14  17
ENDBRANCH   5  14
TORSDOF 5
ENDMDL
MODEL 2
REMARK VINA RESULT:    -8.305      1.798      2.264
REMARK INTER + INTRA:         -11.639
REMARK INTER:                 -10.716
REMARK INTRA:                  -0.923
REMARK UNBOUND:                -0.906
REMARK  Name = 
REMARK  5 active torsions:
REMARK  status: ('A' for Active; 'I' for Inactive)
REMARK    1  A    between atoms: C_2  and  C_4
REMARK    2  A    between atoms: N_8  and  C_9
REMARK    3  A    between atoms: C_9  and  C_10
REMARK    4  A    between atoms: C_13  and  O_14
REMARK    5  A    between atoms: O_14  and  C_15
REMARK                            x       y       z     vdW  Elec       q    Type
REMARK                         _______ _______ _______ _____ _____    ______ ____
ROOT
ATOM      1  C   UNL     1      46.603   2.728   7.371  0.00  0.00    +0.000 A 
ATOM      2  C   UNL     1      46.373   4.068   7.628  0.00  0.00    +0.000 A 
ATOM      3  C   UNL     1      45.520   4.406   8.678  0.00  0.00    +0.000 A 
ATOM      4  C   UNL     1      44.927   3.409   9.436  0.00  0.00    +0.000 A 
ATOM      5  N   UNL     1      43.981   3.652  10.436  0.00  0.00    +0.000 N 
ATOM      6  N   UNL     1      45.186   2.110   9.146  0.00  0.00    +0.000 NA
ATOM      7  N   UNL     1      46.031   1.755   8.114  0.00  0.00    +0.000 NA
ATOM      8  H   UNL     1      43.757   2.755  10.864  0.00  0.00    +0.000 HD
ENDROOT
BRANCH   1  10
ATOM      9  N   UNL     1      47.343   2.998   5.066  0.00  0.00    +0.000 N 
ATOM     10  C   UNL     1      47.473   2.306   6.239  0.00  0.00    +0.000 C 
ATOM     11  O   UNL     1      48.281   1.388   6.354  0.00  0.00    +0.000 OA
ATOM     12  H   UNL     1      47.943   2.757   4.289  0.00  0.00    +0.000 HD
ATOM     13  H   UNL     1      46.714   3.787   4.987  0.00  0.00    +0.000 HD
ENDBRANCH   1  10
BRANCH   5  14
ATOM     14  C   UNL     1      43.952   4.816  11.336  0.00  0.00    +0.000 C 
ATOM     15  C   UNL     1      42.588   5.076  11.971  0.00  0.00    +0.000 C 
ATOM     16  C   UNL     1      43.184   6.100  11.067  0.00  0.00    +0.000 C 
BRANCH  14  17
ATOM     17  C   UNL     1      45.192   4.965  12.215  0.00  0.00    +0.000 A 
ATOM     18  C   UNL     1      45.796   6.220  12.401  0.00  0.00    +0.000 A 
ATOM     19  C   UNL     1      46.839   6.405  13.315  0.00  0.00    +0.000 A 
ATOM     20  C   UNL     1      47.308   5.327  14.061  0.00  0.00    +0.000 A 
ATOM     21  C   UNL     1      46.777   4.058  13.834  0.00  0.00    +0.000 A 
ATOM     22  C   UNL     1      45.733   3.880  12.924  0.00  0.00    +0.000 A 
BRANCH  20  23
ATOM     23  O   UNL     1      48.291   5.386  15.009  0.00  0.00    +0.000 OA
BRANCH  23  24
ATOM     24  C   UNL     1      47.926   4.915  16.296  0.00  0.00    +0.000 C 
ATOM     25  F   UNL     1      48.639   3.800  16.591  0.00  0.00    +0.000 F 
ATOM     26  F   UNL     1      48.302   5.862  17.193  0.00  0.00    +0.000 F 
ENDBRANCH  23  24
ENDBRANCH  20  23
ENDBRANCH  14  17
ENDBRANCH   5  14
TORSDOF 5
ENDMDL
MODEL 3
REMARK VINA RESULT:    -7.675      3.619      6.799
REMARK INTER + INTRA:         -10.825
REMARK INTER:                 -10.711
REMARK INTRA:                  -0.114
REMARK UNBOUND:                -0.906
REMARK  Name = 
REMARK  5 active torsions:
REMARK  status: ('A' for Active; 'I' for Inactive)
REMARK    1  A    between atoms: C_2  and  C_4
REMARK    2  A    between atoms: N_8  and  C_9
REMARK    3  A    between atoms: C_9  and  C_10
REMARK    4  A    between atoms: C_13  and  O_14
REMARK    5  A    between atoms: O_14  and  C_15
REMARK                            x       y       z     vdW  Elec       q    Type
REMARK                         _______ _______ _______ _____ _____    ______ ____
ROOT
ATOM      1  C   UNL     1      47.865   5.749  14.689  0.00  0.00    +0.000 A 
ATOM      2  C   UNL     1      47.373   6.144  13.458  0.00  0.00    +0.000 A 
ATOM      3  C   UNL     1      46.588   5.245  12.737  0.00  0.00    +0.000 A 
ATOM      4  C   UNL     1      46.317   3.990  13.259  0.00  0.00    +0.000 A 
ATOM      5  N   UNL     1      45.629   2.991  12.564  0.00  0.00    +0.000 N 
ATOM      6  N   UNL     1      46.820   3.651  14.472  0.00  0.00    +0.000 NA
ATOM      7  N   UNL     1      47.595   4.529  15.203  0.00  0.00    +0.000 NA
ATOM      8  H   UNL     1      45.523   2.201  13.198  0.00  0.00    +0.000 HD
ENDROOT
BRANCH   1  10
ATOM      9  N   UNL     1      48.242   7.890  15.788  0.00  0.00    +0.000 N 
ATOM     10  C   UNL     1      48.740   6.652  15.487  0.00  0.00    +0.000 C 
ATOM     11  O   UNL     1      49.852   6.299  15.871  0.00  0.00    +0.000 OA
ATOM     12  H   UNL     1      48.798   8.514  16.356  0.00  0.00    +0.000 HD
ATOM     13  H   UNL     1      47.306   8.162  15.515  0.00  0.00    +0.000 HD
ENDBRANCH   1  10
BRANCH   5  14
ATOM     14  C   UNL     1      44.527   3.201  11.611  0.00  0.00    +0.000 C 
ATOM     15  C   UNL     1      43.440   4.145  12.120  0.00  0.00    +0.000 C 
ATOM     16  C   UNL     1      43.100   2.724  11.821  0.00  0.00    +0.000 C 
BRANCH  14  17
ATOM     17  C   UNL     1      44.968   3.334  10.156  0.00  0.00    +0.000 A 
ATOM     18  C   UNL     1      45.351   4.580   9.631  0.00  0.00    +0.000 A 
ATOM     19  C   UNL     1      45.897   4.700   8.348  0.00  0.00    +0.000 A 
ATOM     20  C   UNL     1      46.064   3.568   7.555  0.00  0.00    +0.000 A 
ATOM     21  C   UNL     1      45.616   2.334   8.025  0.00  0.00    +0.000 A 
ATOM     22  C   UNL     1      45.077   2.219   9.308  0.00  0.00    +0.000 A 
BRANCH  20  23
ATOM     23  O   UNL     1      46.617   3.549   6.306  0.00  0.00    +0.000 OA
BRANCH  23  24
ATOM     24  C   UNL     1      47.468   2.446   6.033  0.00  0.00    +0.000 C 
ATOM     25  F   UNL     1      47.916   2.524   4.755  0.00  0.00    +0.000 F 
ATOM     26  F   UNL     1      48.557   2.571   6.833  0.00  0.00    +0.000 F 
ENDBRANCH  23  24
ENDBRANCH  20  23
ENDBRANCH  14  17
ENDBRANCH   5  14
TORSDOF 5
ENDMDL
MODEL 4
REMARK VINA RESULT:    -7.368      3.700      6.572
REMARK INTER + INTRA:         -10.428
REMARK INTER:                  -9.556
REMARK INTRA:                  -0.872
REMARK UNBOUND:                -0.906
REMARK  Name = 
REMARK  5 active torsions:
REMARK  status: ('A' for Active; 'I' for Inactive)
REMARK    1  A    between atoms: C_2  and  C_4
REMARK    2  A    between atoms: N_8  and  C_9
REMARK    3  A    between atoms: C_9  and  C_10
REMARK    4  A    between atoms: C_13  and  O_14
REMARK    5  A    between atoms: O_14  and  C_15
REMARK                            x       y       z     vdW  Elec       q    Type
REMARK                         _______ _______ _______ _____ _____    ______ ____
ROOT
ATOM      1  C   UNL     1      48.368   6.846  13.683  0.00  0.00    +0.000 A 
ATOM      2  C   UNL     1      47.566   5.795  14.089  0.00  0.00    +0.000 A 
ATOM      3  C   UNL     1      46.322   5.635  13.480  0.00  0.00    +0.000 A 
ATOM      4  C   UNL     1      45.916   6.518  12.493  0.00  0.00    +0.000 A 
ATOM      5  N   UNL     1      44.648   6.497  11.904  0.00  0.00    +0.000 N 
ATOM      6  N   UNL     1      46.740   7.531  12.127  0.00  0.00    +0.000 NA
ATOM      7  N   UNL     1      47.977   7.703  12.714  0.00  0.00    +0.000 NA
ATOM      8  H   UNL     1      44.641   7.211  11.178  0.00  0.00    +0.000 HD
ENDROOT
BRANCH   1  10
ATOM      9  N   UNL     1      50.592   7.836  13.615  0.00  0.00    +0.000 N 
ATOM     10  C   UNL     1      49.690   7.090  14.323  0.00  0.00    +0.000 C 
ATOM     11  O   UNL     1      49.956   6.656  15.441  0.00  0.00    +0.000 OA
ATOM     12  H   UNL     1      51.487   8.047  14.036  0.00  0.00    +0.000 HD
ATOM     13  H   UNL     1      50.355   8.236  12.716  0.00  0.00    +0.000 HD
ENDBRANCH   1  10
BRANCH   5  14
ATOM     14  C   UNL     1      43.841   5.297  11.630  0.00  0.00    +0.000 C 
ATOM     15  C   UNL     1      42.335   5.527  11.733  0.00  0.00    +0.000 C 
ATOM     16  C   UNL     1      42.998   4.567  12.662  0.00  0.00    +0.000 C 
BRANCH  14  17
ATOM     17  C   UNL     1      44.357   4.438  10.479  0.00  0.00    +0.000 A 
ATOM     18  C   UNL     1      45.102   5.008   9.433  0.00  0.00    +0.000 A 
ATOM     19  C   UNL     1      45.709   4.221   8.448  0.00  0.00    +0.000 A 
ATOM     20  C   UNL     1      45.574   2.835   8.486  0.00  0.00    +0.000 A 
ATOM     21  C   UNL     1      44.773   2.255   9.468  0.00  0.00    +0.000 A 
ATOM     22  C   UNL     1      44.174   3.046  10.451  0.00  0.00    +0.000 A 
BRANCH  20  23
ATOM     23  O   UNL     1      46.147   1.958   7.608  0.00  0.00    +0.000 OA
BRANCH  23  24
ATOM     24  C   UNL     1      47.229   2.475   6.850  0.00  0.00    +0.000 C 
ATOM     25  F   UNL     1      48.317   1.680   7.013  0.00  0.00    +0.000 F 
ATOM     26  F   UNL     1      46.881   2.389   5.541  0.00  0.00    +0.000 F 
ENDBRANCH  23  24
ENDBRANCH  20  23
ENDBRANCH  14  17
ENDBRANCH   5  14
TORSDOF 5
ENDMDL
MODEL 5
REMARK VINA RESULT:    -6.777      3.576      6.795
REMARK INTER + INTRA:          -9.664
REMARK INTER:                  -9.113
REMARK INTRA:                  -0.551
REMARK UNBOUND:                -0.906
REMARK  Name = 
REMARK  5 active torsions:
REMARK  status: ('A' for Active; 'I' for Inactive)
REMARK    1  A    between atoms: C_2  and  C_4
REMARK    2  A    between atoms: N_8  and  C_9
REMARK    3  A    between atoms: C_9  and  C_10
REMARK    4  A    between atoms: C_13  and  O_14
REMARK    5  A    between atoms: O_14  and  C_15
REMARK                            x       y       z     vdW  Elec       q    Type
REMARK                         _______ _______ _______ _____ _____    ______ ____
ROOT
ATOM      1  C   UNL     1      47.761   5.316  15.133  0.00  0.00    +0.000 A 
ATOM      2  C   UNL     1      46.655   4.488  15.064  0.00  0.00    +0.000 A 
ATOM      3  C   UNL     1      45.794   4.620  13.976  0.00  0.00    +0.000 A 
ATOM      4  C   UNL     1      46.056   5.564  12.996  0.00  0.00    +0.000 A 
ATOM      5  N   UNL     1      45.195   5.837  11.929  0.00  0.00    +0.000 N 
ATOM      6  N   UNL     1      47.156   6.350  13.107  0.00  0.00    +0.000 NA
ATOM      7  N   UNL     1      48.023   6.231  14.174  0.00  0.00    +0.000 NA
ATOM      8  H   UNL     1      45.657   6.526  11.337  0.00  0.00    +0.000 HD
ENDROOT
BRANCH   1  10
ATOM      9  N   UNL     1      48.600   6.243  17.224  0.00  0.00    +0.000 N 
ATOM     10  C   UNL     1      48.696   5.247  16.290  0.00  0.00    +0.000 C 
ATOM     11  O   UNL     1      49.507   4.333  16.411  0.00  0.00    +0.000 OA
ATOM     12  H   UNL     1      49.199   6.207  18.037  0.00  0.00    +0.000 HD
ATOM     13  H   UNL     1      47.898   6.968  17.150  0.00  0.00    +0.000 HD
ENDBRANCH   1  10
BRANCH   5  14
ATOM     14  C   UNL     1      44.345   4.859  11.231  0.00  0.00    +0.000 C 
ATOM     15  C   UNL     1      42.884   5.284  11.108  0.00  0.00    +0.000 C 
ATOM     16  C   UNL     1      43.230   4.059  11.884  0.00  0.00    +0.000 C 
BRANCH  14  17
ATOM     17  C   UNL     1      45.004   4.201  10.021  0.00  0.00    +0.000 A 
ATOM     18  C   UNL     1      44.866   2.822   9.788  0.00  0.00    +0.000 A 
ATOM     19  C   UNL     1      45.335   2.225   8.612  0.00  0.00    +0.000 A 
ATOM     20  C   UNL     1      45.963   3.001   7.642  0.00  0.00    +0.000 A 
ATOM     21  C   UNL     1      46.182   4.355   7.888  0.00  0.00    +0.000 A 
ATOM     22  C   UNL     1      45.708   4.947   9.061  0.00  0.00    +0.000 A 
BRANCH  20  23
ATOM     23  O   UNL     1      46.429   2.545   6.441  0.00  0.00    +0.000 OA
BRANCH  23  24
ATOM     24  C   UNL     1      47.761   2.057   6.449  0.00  0.00    +0.000 C 
ATOM     25  F   UNL     1      48.605   3.048   6.833  0.00  0.00    +0.000 F 
ATOM     26  F   UNL     1      47.832   1.097   7.406  0.00  0.00    +0.000 F 
ENDBRANCH  23  24
ENDBRANCH  20  23
ENDBRANCH  14  17
ENDBRANCH   5  14
TORSDOF 5
ENDMDL
MODEL 6
REMARK VINA RESULT:    -5.497      5.451      8.635
REMARK INTER + INTRA:          -8.011
REMARK INTER:                  -7.147
REMARK INTRA:                  -0.864
REMARK UNBOUND:                -0.906
REMARK  Name = 
REMARK  5 active torsions:
REMARK  status: ('A' for Active; 'I' for Inactive)
REMARK    1  A    between atoms: C_2  and  C_4
REMARK    2  A    between atoms: N_8  and  C_9
REMARK    3  A    between atoms: C_9  and  C_10
REMARK    4  A    between atoms: C_13  and  O_14
REMARK    5  A    between atoms: O_14  and  C_15
REMARK                            x       y       z     vdW  Elec       q    Type
REMARK                         _______ _______ _______ _____ _____    ______ ____
ROOT
ATOM      1  C   UNL     1      49.429   7.348  17.966  0.00  0.00    +0.000 A 
ATOM      2  C   UNL     1      48.683   8.265  17.247  0.00  0.00    +0.000 A 
ATOM      3  C   UNL     1      48.659   8.158  15.857  0.00  0.00    +0.000 A 
ATOM      4  C   UNL     1      49.372   7.150  15.228  0.00  0.00    +0.000 A 
ATOM      5  N   UNL     1      49.490   7.030  13.840  0.00  0.00    +0.000 N 
ATOM      6  N   UNL     1      50.086   6.273  15.977  0.00  0.00    +0.000 NA
ATOM      7  N   UNL     1      50.117   6.359  17.355  0.00  0.00    +0.000 NA
ATOM      8  H   UNL     1      50.015   6.177  13.655  0.00  0.00    +0.000 HD
ENDROOT
BRANCH   1  10
ATOM      9  N   UNL     1      50.418   6.601  20.062  0.00  0.00    +0.000 N 
ATOM     10  C   UNL     1      49.523   7.434  19.449  0.00  0.00    +0.000 C 
ATOM     11  O   UNL     1      48.840   8.226  20.094  0.00  0.00    +0.000 OA
ATOM     12  H   UNL     1      50.530   6.659  21.065  0.00  0.00    +0.000 HD
ATOM     13  H   UNL     1      51.017   5.986  19.527  0.00  0.00    +0.000 HD
ENDBRANCH   1  10
BRANCH   5  14
ATOM     14  C   UNL     1      48.456   7.375  12.851  0.00  0.00    +0.000 C 
ATOM     15  C   UNL     1      48.999   7.608  11.443  0.00  0.00    +0.000 C 
ATOM     16  C   UNL     1      48.329   8.726  12.167  0.00  0.00    +0.000 C 
BRANCH  14  17
ATOM     17  C   UNL     1      47.157   6.587  12.996  0.00  0.00    +0.000 A 
ATOM     18  C   UNL     1      45.917   7.188  12.724  0.00  0.00    +0.000 A 
ATOM     19  C   UNL     1      44.729   6.448  12.707  0.00  0.00    +0.000 A 
ATOM     20  C   UNL     1      44.758   5.082  12.973  0.00  0.00    +0.000 A 
ATOM     21  C   UNL     1      45.966   4.481  13.324  0.00  0.00    +0.000 A 
ATOM     22  C   UNL     1      47.149   5.224  13.334  0.00  0.00    +0.000 A 
BRANCH  20  23
ATOM     23  O   UNL     1      43.677   4.246  12.950  0.00  0.00    +0.000 OA
BRANCH  23  24
ATOM     24  C   UNL     1      43.279   3.800  11.663  0.00  0.00    +0.000 C 
ATOM     25  F   UNL     1      44.317   3.924  10.798  0.00  0.00    +0.000 F 
ATOM     26  F   UNL     1      43.014   2.472  11.761  0.00  0.00    +0.000 F 
ENDBRANCH  23  24
ENDBRANCH  20  23
ENDBRANCH  14  17
ENDBRANCH   5  14
TORSDOF 5
ENDMDL
MODEL 7
REMARK VINA RESULT:    -5.411      3.749      5.589
REMARK INTER + INTRA:          -7.899
REMARK INTER:                  -7.516
REMARK INTRA:                  -0.383
REMARK UNBOUND:                -0.906
REMARK  Name = 
REMARK  5 active torsions:
REMARK  status: ('A' for Active; 'I' for Inactive)
REMARK    1  A    between atoms: C_2  and  C_4
REMARK    2  A    between atoms: N_8  and  C_9
REMARK    3  A    between atoms: C_9  and  C_10
REMARK    4  A    between atoms: C_13  and  O_14
REMARK    5  A    between atoms: O_14  and  C_15
REMARK                            x       y       z     vdW  Elec       q    Type
REMARK                         _______ _______ _______ _____ _____    ______ ____
ROOT
ATOM      1  C   UNL     1      44.832   5.045  11.090  0.00  0.00    +0.000 A 
ATOM      2  C   UNL     1      45.893   5.780  10.593  0.00  0.00    +0.000 A 
ATOM      3  C   UNL     1      46.585   6.620  11.465  0.00  0.00    +0.000 A 
ATOM      4  C   UNL     1      46.203   6.704  12.794  0.00  0.00    +0.000 A 
ATOM      5  N   UNL     1      46.769   7.594  13.711  0.00  0.00    +0.000 N 
ATOM      6  N   UNL     1      45.157   5.960  13.234  0.00  0.00    +0.000 NA
ATOM      7  N   UNL     1      44.464   5.119  12.388  0.00  0.00    +0.000 NA
ATOM      8  H   UNL     1      46.345   7.404  14.618  0.00  0.00    +0.000 HD
ENDROOT
BRANCH   1  10
ATOM      9  N   UNL     1      44.085   4.421   8.857  0.00  0.00    +0.000 N 
ATOM     10  C   UNL     1      44.032   4.160  10.199  0.00  0.00    +0.000 C 
ATOM     11  O   UNL     1      43.366   3.228  10.643  0.00  0.00    +0.000 OA
ATOM     12  H   UNL     1      43.580   3.818   8.222  0.00  0.00    +0.000 HD
ATOM     13  H   UNL     1      44.674   5.156   8.486  0.00  0.00    +0.000 HD
ENDBRANCH   1  10
BRANCH   5  14
ATOM     14  C   UNL     1      48.174   8.030  13.740  0.00  0.00    +0.000 C 
ATOM     15  C   UNL     1      48.359   9.539  13.599  0.00  0.00    +0.000 C 
ATOM     16  C   UNL     1      48.920   8.629  12.559  0.00  0.00    +0.000 C 
BRANCH  14  17
ATOM     17  C   UNL     1      49.042   7.295  14.759  0.00  0.00    +0.000 A 
ATOM     18  C   UNL     1      50.428   7.515  14.816  0.00  0.00    +0.000 A 
ATOM     19  C   UNL     1      51.219   6.967  15.833  0.00  0.00    +0.000 A 
ATOM     20  C   UNL     1      50.633   6.174  16.816  0.00  0.00    +0.000 A 
ATOM     21  C   UNL     1      49.274   5.877  16.733  0.00  0.00    +0.000 A 
ATOM     22  C   UNL     1      48.489   6.430  15.719  0.00  0.00    +0.000 A 
BRANCH  20  23
ATOM     23  O   UNL     1      51.287   5.615  17.878  0.00  0.00    +0.000 OA
BRANCH  23  24
ATOM     24  C   UNL     1      50.933   4.273  18.173  0.00  0.00    +0.000 C 
ATOM     25  F   UNL     1      51.112   3.503  17.071  0.00  0.00    +0.000 F 
ATOM     26  F   UNL     1      51.811   3.822  19.106  0.00  0.00    +0.000 F 
ENDBRANCH  23  24
ENDBRANCH  20  23
ENDBRANCH  14  17
ENDBRANCH   5  14
TORSDOF 5
ENDMDL
MODEL 8
REMARK VINA RESULT:    -5.382      5.490      8.719
REMARK INTER + INTRA:          -7.861
REMARK INTER:                  -7.010
REMARK INTRA:                  -0.851
REMARK UNBOUND:                -0.906
REMARK  Name = 
REMARK  5 active torsions:
REMARK  status: ('A' for Active; 'I' for Inactive)
REMARK    1  A    between atoms: C_2  and  C_4
REMARK    2  A    between atoms: N_8  and  C_9
REMARK    3  A    between atoms: C_9  and  C_10
REMARK    4  A    between atoms: C_13  and  O_14
REMARK    5  A    between atoms: O_14  and  C_15
REMARK                            x       y       z     vdW  Elec       q    Type
REMARK                         _______ _______ _______ _____ _____    ______ ____
ROOT
ATOM      1  C   UNL     1      48.468   5.695  18.714  0.00  0.00    +0.000 A 
ATOM      2  C   UNL     1      48.278   7.018  18.360  0.00  0.00    +0.000 A 
ATOM      3  C   UNL     1      48.529   7.395  17.041  0.00  0.00    +0.000 A 
ATOM      4  C   UNL     1      48.958   6.452  16.121  0.00  0.00    +0.000 A 
ATOM      5  N   UNL     1      49.333   6.759  14.810  0.00  0.00    +0.000 N 
ATOM      6  N   UNL     1      49.126   5.165  16.517  0.00  0.00    +0.000 NA
ATOM      7  N   UNL     1      48.877   4.772  17.817  0.00  0.00    +0.000 NA
ATOM      8  H   UNL     1      49.548   5.879  14.344  0.00  0.00    +0.000 HD
ENDROOT
BRANCH   1  10
ATOM      9  N   UNL     1      48.608   3.953  20.411  0.00  0.00    +0.000 N 
ATOM     10  C   UNL     1      48.252   5.240  20.116  0.00  0.00    +0.000 C 
ATOM     11  O   UNL     1      47.790   5.989  20.973  0.00  0.00    +0.000 OA
ATOM     12  H   UNL     1      48.505   3.624  21.361  0.00  0.00    +0.000 HD
ATOM     13  H   UNL     1      49.037   3.352  19.718  0.00  0.00    +0.000 HD
ENDBRANCH   1  10
BRANCH   5  14
ATOM     14  C   UNL     1      48.739   7.805  13.962  0.00  0.00    +0.000 C 
ATOM     15  C   UNL     1      49.752   8.552  13.098  0.00  0.00    +0.000 C 
ATOM     16  C   UNL     1      48.977   9.296  14.132  0.00  0.00    +0.000 C 
BRANCH  14  17
ATOM     17  C   UNL     1      47.403   7.422  13.331  0.00  0.00    +0.000 A 
ATOM     18  C   UNL     1      46.388   8.377  13.159  0.00  0.00    +0.000 A 
ATOM     19  C   UNL     1      45.215   8.086  12.451  0.00  0.00    +0.000 A 
ATOM     20  C   UNL     1      45.031   6.818  11.905  0.00  0.00    +0.000 A 
ATOM     21  C   UNL     1      45.990   5.832  12.133  0.00  0.00    +0.000 A 
ATOM     22  C   UNL     1      47.159   6.130  12.835  0.00  0.00    +0.000 A 
BRANCH  20  23
ATOM     23  O   UNL     1      43.953   6.423  11.164  0.00  0.00    +0.000 OA
BRANCH  23  24
ATOM     24  C   UNL     1      43.273   5.274  11.644  0.00  0.00    +0.000 C 
ATOM     25  F   UNL     1      41.979   5.587  11.903  0.00  0.00    +0.000 F 
ATOM     26  F   UNL     1      43.257   4.366  10.635  0.00  0.00    +0.000 F 
ENDBRANCH  23  24
ENDBRANCH  20  23
ENDBRANCH  14  17
ENDBRANCH   5  14
TORSDOF 5
ENDMDL
