MODEL 1
REMARK VINA RESULT:    -8.178      0.000      0.000
REMARK INTER + INTRA:         -10.768
REMARK INTER:                 -10.091
REMARK INTRA:                  -0.678
REMARK UNBOUND:                -0.678
REMARK  Name = 
REMARK  5 active torsions:
REMARK  status: ('A' for Active; 'I' for Inactive)
REMARK    1  A    between atoms: C_1  and  C_2
REMARK    2  A    between atoms: C_2  and  N_3
REMARK    3  A    between atoms: C_2  and  C_17
REMARK    4  A    between atoms: C_7  and  C_8
REMARK    5  A    between atoms: C_8  and  N_9
REMARK                            x       y       z     vdW  Elec       q    Type
REMARK                         _______ _______ _______ _____ _____    ______ ____
ROOT
ATOM      1  N   UNL     1      46.826   7.091  13.670  0.00  0.00    +0.000 N 
ATOM      2  C   UNL     1      45.912   6.355  12.951  0.00  0.00    +0.000 A 
ATOM      3  N   UNL     1      46.063   5.028  12.842  0.00  0.00    +0.000 NA
ATOM      4  C   UNL     1      45.258   4.373  11.989  0.00  0.00    +0.000 A 
ATOM      5  C   UNL     1      44.349   4.998  11.171  0.00  0.00    +0.000 A 
ATOM      6  C   UNL     1      44.215   6.348  11.404  0.00  0.00    +0.000 A 
ATOM      7  N   UNL     1      44.957   7.034  12.304  0.00  0.00    +0.000 NA
ATOM      8  H   UNL     1      46.398   7.736  14.322  0.00  0.00    +0.000 HD
ENDROOT
BRANCH   1  10
ATOM      9  C   UNL     1      49.162   7.040  13.032  0.00  0.00    +0.000 C 
ATOM     10  C   UNL     1      48.110   6.496  14.001  0.00  0.00    +0.000 C 
BRANCH  10  11
ATOM     11  C   UNL     1      48.571   6.492  15.444  0.00  0.00    +0.000 A 
ATOM     12  C   UNL     1      49.257   7.559  16.008  0.00  0.00    +0.000 A 
ATOM     13  S   UNL     1      50.051   7.139  17.460  0.00  0.00    +0.000 S 
ATOM     14  C   UNL     1      49.390   5.570  17.427  0.00  0.00    +0.000 A 
ATOM     15  N   UNL     1      49.741   4.632  18.347  0.00  0.00    +0.000 NA
ATOM     16  C   UNL     1      49.083   3.525  18.244  0.00  0.00    +0.000 A 
ATOM     17  N   UNL     1      48.080   3.287  17.336  0.00  0.00    +0.000 N 
ATOM     18  C   UNL     1      47.702   4.202  16.376  0.00  0.00    +0.000 A 
ATOM     19  O   UNL     1      46.748   4.005  15.628  0.00  0.00    +0.000 OA
ATOM     20  C   UNL     1      48.485   5.419  16.393  0.00  0.00    +0.000 A 
ATOM     21  H   UNL     1      47.543   2.434  17.376  0.00  0.00    +0.000 HD
ENDBRANCH  10  11
ENDBRANCH   1  10
BRANCH   5  22
ATOM     22  C   UNL     1      43.630   4.268  10.085  0.00  0.00    +0.000 C 
BRANCH  22  23
ATOM     23  N   UNL     1      44.252   4.452   8.799  0.00  0.00    +0.000 N 
ATOM     24  C   UNL     1      45.234   3.683   8.292  0.00  0.00    +0.000 C 
ATOM     25  N   UNL     1      46.101   4.117   7.427  0.00  0.00    +0.000 NA
ATOM     26  C   UNL     1      46.938   2.926   7.117  0.00  0.00    +0.000 C 
ATOM     27  C   UNL     1      46.414   1.775   7.975  0.00  0.00    +0.000 C 
ATOM     28  N   UNL     1      45.309   2.389   8.696  0.00  0.00    +0.000 N 
ATOM     29  H   UNL     1      44.347   5.417   8.503  0.00  0.00    +0.000 HD
ATOM     30  H   UNL     1      44.419   1.894   8.621  0.00  0.00    +0.000 HD
ENDBRANCH  22  23
ENDBRANCH   5  22
TORSDOF 4
ENDMDL
MODEL 2
REMARK VINA RESULT:    -7.402      2.020      2.811
REMARK INTER + INTRA:          -9.811
REMARK INTER:                  -8.995
REMARK INTRA:                  -0.816
REMARK UNBOUND:                -0.678
REMARK  Name = 
REMARK  5 active torsions:
REMARK  status: ('A' for Active; 'I' for Inactive)
REMARK    1  A    between atoms: C_1  and  C_2
REMARK    2  A    between atoms: C_2  and  N_3
REMARK    3  A    between atoms: C_2  and  C_17
REMARK    4  A    between atoms: C_7  and  C_8
REMARK    5  A    between atoms: C_8  and  N_9
REMARK                            x       y       z     vdW  Elec       q    Type
REMARK                         _______ _______ _______ _____ _____    ______ ____
ROOT
ATOM      1  N   UNL     1      46.806   7.227  13.660  0.00  0.00    +0.000 N 
ATOM      2  C   UNL     1      45.914   6.439  12.970  0.00  0.00    +0.000 A 
ATOM      3  N   UNL     1      46.086   5.111  12.936  0.00  0.00    +0.000 NA
ATOM      4  C   UNL     1      45.304   4.398  12.109  0.00  0.00    +0.000 A 
ATOM      5  C   UNL     1      44.399   4.963  11.244  0.00  0.00    +0.000 A 
ATOM      6  C   UNL     1      44.243   6.323  11.400  0.00  0.00    +0.000 A 
ATOM      7  N   UNL     1      44.960   7.068  12.272  0.00  0.00    +0.000 NA
ATOM      8  H   UNL     1      46.359   7.900  14.270  0.00  0.00    +0.000 HD
ENDROOT
BRANCH   1  10
ATOM      9  C   UNL     1      49.096   6.951  12.921  0.00  0.00    +0.000 C 
ATOM     10  C   UNL     1      48.093   6.671  14.043  0.00  0.00    +0.000 C 
BRANCH  10  11
ATOM     11  C   UNL     1      48.642   6.964  15.424  0.00  0.00    +0.000 A 
ATOM     12  C   UNL     1      49.136   5.968  16.255  0.00  0.00    +0.000 A 
ATOM     13  S   UNL     1      49.260   6.468  17.883  0.00  0.00    +0.000 S 
ATOM     14  C   UNL     1      48.780   8.052  17.486  0.00  0.00    +0.000 A 
ATOM     15  N   UNL     1      48.581   8.996  18.445  0.00  0.00    +0.000 NA
ATOM     16  C   UNL     1      48.312  10.170  17.978  0.00  0.00    +0.000 A 
ATOM     17  N   UNL     1      48.268  10.495  16.644  0.00  0.00    +0.000 N 
ATOM     18  C   UNL     1      48.446   9.569  15.638  0.00  0.00    +0.000 A 
ATOM     19  O   UNL     1      48.486   9.893  14.454  0.00  0.00    +0.000 OA
ATOM     20  C   UNL     1      48.651   8.220  16.119  0.00  0.00    +0.000 A 
ATOM     21  H   UNL     1      48.147  11.453  16.353  0.00  0.00    +0.000 HD
ENDBRANCH  10  11
ENDBRANCH   1  10
BRANCH   5  22
ATOM     22  C   UNL     1      43.708   4.165  10.189  0.00  0.00    +0.000 C 
BRANCH  22  23
ATOM     23  N   UNL     1      44.269   4.385   8.881  0.00  0.00    +0.000 N 
ATOM     24  C   UNL     1      45.250   3.653   8.320  0.00  0.00    +0.000 C 
ATOM     25  N   UNL     1      46.066   4.125   7.427  0.00  0.00    +0.000 NA
ATOM     26  C   UNL     1      46.923   2.964   7.063  0.00  0.00    +0.000 C 
ATOM     27  C   UNL     1      46.469   1.786   7.924  0.00  0.00    +0.000 C 
ATOM     28  N   UNL     1      45.379   2.356   8.700  0.00  0.00    +0.000 N 
ATOM     29  H   UNL     1      44.324   5.358   8.597  0.00  0.00    +0.000 HD
ATOM     30  H   UNL     1      44.501   1.837   8.655  0.00  0.00    +0.000 HD
ENDBRANCH  22  23
ENDBRANCH   5  22
TORSDOF 4
ENDMDL
MODEL 3
REMARK VINA RESULT:    -7.197      2.104      3.121
REMARK INTER + INTRA:          -9.557
REMARK INTER:                  -9.060
REMARK INTRA:                  -0.498
REMARK UNBOUND:                -0.678
REMARK  Name = 
REMARK  5 active torsions:
REMARK  status: ('A' for Active; 'I' for Inactive)
REMARK    1  A    between atoms: C_1  and  C_2
REMARK    2  A    between atoms: C_2  and  N_3
REMARK    3  A    between atoms: C_2  and  C_17
REMARK    4  A    between atoms: C_7  and  C_8
REMARK    5  A    between atoms: C_8  and  N_9
REMARK                            x       y       z     vdW  Elec       q    Type
REMARK                         _______ _______ _______ _____ _____    ______ ____
ROOT
ATOM      1  N   UNL     1      47.968   3.663  15.603  0.00  0.00    +0.000 N 
ATOM      2  C   UNL     1      47.308   4.149  14.499  0.00  0.00    +0.000 A 
ATOM      3  N   UNL     1      47.219   5.473  14.305  0.00  0.00    +0.000 NA
ATOM      4  C   UNL     1      46.417   5.909  13.320  0.00  0.00    +0.000 A 
ATOM      5  C   UNL     1      45.629   5.082  12.558  0.00  0.00    +0.000 A 
ATOM      6  C   UNL     1      45.841   3.739  12.781  0.00  0.00    +0.000 A 
ATOM      7  N   UNL     1      46.691   3.256  13.715  0.00  0.00    +0.000 NA
ATOM      8  H   UNL     1      48.627   2.926  15.385  0.00  0.00    +0.000 HD
ENDROOT
BRANCH   1  10
ATOM      9  C   UNL     1      46.990   4.688  17.567  0.00  0.00    +0.000 C 
ATOM     10  C   UNL     1      48.252   4.560  16.711  0.00  0.00    +0.000 C 
BRANCH  10  11
ATOM     11  C   UNL     1      49.510   4.349  17.527  0.00  0.00    +0.000 A 
ATOM     12  C   UNL     1      50.067   5.353  18.307  0.00  0.00    +0.000 A 
ATOM     13  S   UNL     1      51.685   5.027  18.746  0.00  0.00    +0.000 S 
ATOM     14  C   UNL     1      51.627   3.491  18.014  0.00  0.00    +0.000 A 
ATOM     15  N   UNL     1      52.730   2.698  17.938  0.00  0.00    +0.000 NA
ATOM     16  C   UNL     1      52.501   1.529  17.439  0.00  0.00    +0.000 A 
ATOM     17  N   UNL     1      51.267   1.065  17.053  0.00  0.00    +0.000 N 
ATOM     18  C   UNL     1      50.126   1.838  17.096  0.00  0.00    +0.000 A 
ATOM     19  O   UNL     1      49.019   1.382  16.826  0.00  0.00    +0.000 OA
ATOM     20  C   UNL     1      50.358   3.191  17.555  0.00  0.00    +0.000 A 
ATOM     21  H   UNL     1      51.146   0.107  16.762  0.00  0.00    +0.000 HD
ENDBRANCH  10  11
ENDBRANCH   1  10
BRANCH   5  22
ATOM     22  C   UNL     1      44.593   5.614  11.625  0.00  0.00    +0.000 C 
BRANCH  22  23
ATOM     23  N   UNL     1      45.099   5.788  10.288  0.00  0.00    +0.000 N 
ATOM     24  C   UNL     1      45.225   4.812   9.369  0.00  0.00    +0.000 C 
ATOM     25  N   UNL     1      46.101   4.847   8.411  0.00  0.00    +0.000 NA
ATOM     26  C   UNL     1      45.836   3.611   7.626  0.00  0.00    +0.000 C 
ATOM     27  C   UNL     1      44.695   2.872   8.326  0.00  0.00    +0.000 C 
ATOM     28  N   UNL     1      44.384   3.749   9.444  0.00  0.00    +0.000 N 
ATOM     29  H   UNL     1      45.833   6.481  10.195  0.00  0.00    +0.000 HD
ATOM     30  H   UNL     1      43.402   4.019   9.518  0.00  0.00    +0.000 HD
ENDBRANCH  22  23
ENDBRANCH   5  22
TORSDOF 4
ENDMDL
MODEL 4
REMARK VINA RESULT:    -6.943      1.924      2.446
REMARK INTER + INTRA:          -9.244
REMARK INTER:                  -8.750
REMARK INTRA:                  -0.494
REMARK UNBOUND:                -0.678
REMARK  Name = 
REMARK  5 active torsions:
REMARK  status: ('A' for Active; 'I' for Inactive)
REMARK    1  A    between atoms: C_1  and  C_2
REMARK    2  A    between atoms: C_2  and  N_3
REMARK    3  A    between atoms: C_2  and  C_17
REMARK    4  A    between atoms: C_7  and  C_8
REMARK    5  A    between atoms: C_8  and  N_9
REMARK                            x       y       z     vdW  Elec       q    Type
REMARK                         _______ _______ _______ _____ _____    ______ ____
ROOT
ATOM      1  N   UNL     1      47.573   6.461  14.160  0.00  0.00    +0.000 N 
ATOM      2  C   UNL     1      46.766   5.874  13.212  0.00  0.00    +0.000 A 
ATOM      3  N   UNL     1      46.837   6.276  11.936  0.00  0.00    +0.000 NA
ATOM      4  C   UNL     1      45.913   5.810  11.079  0.00  0.00    +0.000 A 
ATOM      5  C   UNL     1      44.861   5.012  11.457  0.00  0.00    +0.000 A 
ATOM      6  C   UNL     1      44.911   4.595  12.769  0.00  0.00    +0.000 A 
ATOM      7  N   UNL     1      45.864   4.985  13.646  0.00  0.00    +0.000 NA
ATOM      8  H   UNL     1      48.049   5.792  14.752  0.00  0.00    +0.000 HD
ENDROOT
BRANCH   1  10
ATOM      9  C   UNL     1      47.274   8.863  14.214  0.00  0.00    +0.000 C 
ATOM     10  C   UNL     1      48.226   7.722  13.850  0.00  0.00    +0.000 C 
BRANCH  10  11
ATOM     11  C   UNL     1      49.646   7.952  14.325  0.00  0.00    +0.000 A 
ATOM     12  C   UNL     1      50.538   8.762  13.635  0.00  0.00    +0.000 A 
ATOM     13  S   UNL     1      52.161   8.499  14.097  0.00  0.00    +0.000 S 
ATOM     14  C   UNL     1      51.691   7.399  15.308  0.00  0.00    +0.000 A 
ATOM     15  N   UNL     1      52.610   6.712  16.039  0.00  0.00    +0.000 NA
ATOM     16  C   UNL     1      52.098   5.990  16.979  0.00  0.00    +0.000 A 
ATOM     17  N   UNL     1      50.759   5.926  17.283  0.00  0.00    +0.000 N 
ATOM     18  C   UNL     1      49.792   6.591  16.560  0.00  0.00    +0.000 A 
ATOM     19  O   UNL     1      48.611   6.590  16.896  0.00  0.00    +0.000 OA
ATOM     20  C   UNL     1      50.316   7.334  15.434  0.00  0.00    +0.000 A 
ATOM     21  H   UNL     1      50.440   5.416  18.092  0.00  0.00    +0.000 HD
ENDBRANCH  10  11
ENDBRANCH   1  10
BRANCH   5  22
ATOM     22  C   UNL     1      43.736   4.694  10.529  0.00  0.00    +0.000 C 
BRANCH  22  23
ATOM     23  N   UNL     1      44.156   4.665   9.152  0.00  0.00    +0.000 N 
ATOM     24  C   UNL     1      44.977   3.748   8.606  0.00  0.00    +0.000 C 
ATOM     25  N   UNL     1      45.725   3.990   7.573  0.00  0.00    +0.000 NA
ATOM     26  C   UNL     1      46.401   2.693   7.297  0.00  0.00    +0.000 C 
ATOM     27  C   UNL     1      45.930   1.707   8.365  0.00  0.00    +0.000 C 
ATOM     28  N   UNL     1      45.009   2.508   9.158  0.00  0.00    +0.000 N 
ATOM     29  H   UNL     1      44.281   5.576   8.723  0.00  0.00    +0.000 HD
ATOM     30  H   UNL     1      44.081   2.100   9.281  0.00  0.00    +0.000 HD
ENDBRANCH  22  23
ENDBRANCH   5  22
TORSDOF 4
ENDMDL
MODEL 5
REMARK VINA RESULT:    -6.795      2.058      3.289
REMARK INTER + INTRA:          -9.062
REMARK INTER:                  -8.406
REMARK INTRA:                  -0.656
REMARK UNBOUND:                -0.678
REMARK  Name = 
REMARK  5 active torsions:
REMARK  status: ('A' for Active; 'I' for Inactive)
REMARK    1  A    between atoms: C_1  and  C_2
REMARK    2  A    between atoms: C_2  and  N_3
REMARK    3  A    between atoms: C_2  and  C_17
REMARK    4  A    between atoms: C_7  and  C_8
REMARK    5  A    between atoms: C_8  and  N_9
REMARK                            x       y       z     vdW  Elec       q    Type
REMARK                         _______ _______ _______ _____ _____    ______ ____
ROOT
ATOM      1  N   UNL     1      47.608   3.521  15.508  0.00  0.00    +0.000 N 
ATOM      2  C   UNL     1      47.098   4.059  14.348  0.00  0.00    +0.000 A 
ATOM      3  N   UNL     1      47.307   5.353  14.066  0.00  0.00    +0.000 NA
ATOM      4  C   UNL     1      46.646   5.881  13.023  0.00  0.00    +0.000 A 
ATOM      5  C   UNL     1      45.716   5.192  12.285  0.00  0.00    +0.000 A 
ATOM      6  C   UNL     1      45.622   3.855  12.602  0.00  0.00    +0.000 A 
ATOM      7  N   UNL     1      46.321   3.267  13.599  0.00  0.00    +0.000 NA
ATOM      8  H   UNL     1      48.094   2.645  15.364  0.00  0.00    +0.000 HD
ENDROOT
BRANCH   1  10
ATOM      9  C   UNL     1      47.112   4.254  17.762  0.00  0.00    +0.000 C 
ATOM     10  C   UNL     1      48.053   4.413  16.566  0.00  0.00    +0.000 C 
BRANCH  10  11
ATOM     11  C   UNL     1      49.517   4.424  16.953  0.00  0.00    +0.000 A 
ATOM     12  C   UNL     1      50.174   3.290  17.409  0.00  0.00    +0.000 A 
ATOM     13  S   UNL     1      51.644   3.651  18.198  0.00  0.00    +0.000 S 
ATOM     14  C   UNL     1      51.492   5.307  17.834  0.00  0.00    +0.000 A 
ATOM     15  N   UNL     1      52.379   6.223  18.307  0.00  0.00    +0.000 NA
ATOM     16  C   UNL     1      52.181   7.421  17.866  0.00  0.00    +0.000 A 
ATOM     17  N   UNL     1      51.207   7.776  16.964  0.00  0.00    +0.000 N 
ATOM     18  C   UNL     1      50.276   6.886  16.472  0.00  0.00    +0.000 A 
ATOM     19  O   UNL     1      49.467   7.202  15.604  0.00  0.00    +0.000 OA
ATOM     20  C   UNL     1      50.402   5.553  17.019  0.00  0.00    +0.000 A 
ATOM     21  H   UNL     1      51.172   8.712  16.589  0.00  0.00    +0.000 HD
ENDBRANCH  10  11
ENDBRANCH   1  10
BRANCH   5  22
ATOM     22  C   UNL     1      44.845   5.869  11.278  0.00  0.00    +0.000 C 
BRANCH  22  23
ATOM     23  N   UNL     1      45.455   5.919   9.974  0.00  0.00    +0.000 N 
ATOM     24  C   UNL     1      45.474   4.910   9.083  0.00  0.00    +0.000 C 
ATOM     25  N   UNL     1      46.402   4.774   8.184  0.00  0.00    +0.000 NA
ATOM     26  C   UNL     1      45.985   3.577   7.405  0.00  0.00    +0.000 C 
ATOM     27  C   UNL     1      44.696   3.056   8.040  0.00  0.00    +0.000 C 
ATOM     28  N   UNL     1      44.465   4.003   9.121  0.00  0.00    +0.000 N 
ATOM     29  H   UNL     1      46.299   6.479   9.918  0.00  0.00    +0.000 HD
ATOM     30  H   UNL     1      43.539   4.434   9.125  0.00  0.00    +0.000 HD
ENDBRANCH  22  23
ENDBRANCH   5  22
TORSDOF 4
ENDMDL
MODEL 6
REMARK VINA RESULT:    -6.631      3.509      5.109
REMARK INTER + INTRA:          -8.859
REMARK INTER:                  -8.235
REMARK INTRA:                  -0.624
REMARK UNBOUND:                -0.678
REMARK  Name = 
REMARK  5 active torsions:
REMARK  status: ('A' for Active; 'I' for Inactive)
REMARK    1  A    between atoms: C_1  and  C_2
REMARK    2  A    between atoms: C_2  and  N_3
REMARK    3  A    between atoms: C_2  and  C_17
REMARK    4  A    between atoms: C_7  and  C_8
REMARK    5  A    between atoms: C_8  and  N_9
REMARK                            x       y       z     vdW  Elec       q    Type
REMARK                         _______ _______ _______ _____ _____    ______ ____
ROOT
ATOM      1  N   UNL     1      47.261   3.688  15.903  0.00  0.00    +0.000 N 
ATOM      2  C   UNL     1      47.036   4.389  14.740  0.00  0.00    +0.000 A 
ATOM      3  N   UNL     1      47.899   5.342  14.360  0.00  0.00    +0.000 NA
ATOM      4  C   UNL     1      47.554   6.122  13.323  0.00  0.00    +0.000 A 
ATOM      5  C   UNL     1      46.339   6.047  12.687  0.00  0.00    +0.000 A 
ATOM      6  C   UNL     1      45.550   4.996  13.099  0.00  0.00    +0.000 A 
ATOM      7  N   UNL     1      45.891   4.143  14.092  0.00  0.00    +0.000 NA
ATOM      8  H   UNL     1      47.168   2.686  15.792  0.00  0.00    +0.000 HD
ENDROOT
BRANCH   1  10
ATOM      9  C   UNL     1      47.489   4.403  18.205  0.00  0.00    +0.000 C 
ATOM     10  C   UNL     1      48.212   4.208  16.871  0.00  0.00    +0.000 C 
BRANCH  10  11
ATOM     11  C   UNL     1      49.561   3.535  17.014  0.00  0.00    +0.000 A 
ATOM     12  C   UNL     1      49.726   2.163  16.879  0.00  0.00    +0.000 A 
ATOM     13  S   UNL     1      51.206   1.609  17.525  0.00  0.00    +0.000 S 
ATOM     14  C   UNL     1      51.705   3.198  17.878  0.00  0.00    +0.000 A 
ATOM     15  N   UNL     1      52.865   3.447  18.542  0.00  0.00    +0.000 NA
ATOM     16  C   UNL     1      53.148   4.703  18.650  0.00  0.00    +0.000 A 
ATOM     17  N   UNL     1      52.403   5.727  18.116  0.00  0.00    +0.000 N 
ATOM     18  C   UNL     1      51.213   5.522  17.450  0.00  0.00    +0.000 A 
ATOM     19  O   UNL     1      50.604   6.440  16.908  0.00  0.00    +0.000 OA
ATOM     20  C   UNL     1      50.808   4.134  17.396  0.00  0.00    +0.000 A 
ATOM     21  H   UNL     1      52.735   6.678  18.155  0.00  0.00    +0.000 HD
ENDBRANCH  10  11
ENDBRANCH   1  10
BRANCH   5  22
ATOM     22  C   UNL     1      45.904   7.068  11.688  0.00  0.00    +0.000 C 
BRANCH  22  23
ATOM     23  N   UNL     1      45.457   8.287  12.311  0.00  0.00    +0.000 N 
ATOM     24  C   UNL     1      44.534   9.127  11.807  0.00  0.00    +0.000 C 
ATOM     25  N   UNL     1      44.505  10.397  12.080  0.00  0.00    +0.000 NA
ATOM     26  C   UNL     1      43.304  10.900  11.360  0.00  0.00    +0.000 C 
ATOM     27  C   UNL     1      42.695   9.709  10.620  0.00  0.00    +0.000 C 
ATOM     28  N   UNL     1      43.582   8.616  10.986  0.00  0.00    +0.000 N 
ATOM     29  H   UNL     1      46.170   8.788  12.831  0.00  0.00    +0.000 HD
ATOM     30  H   UNL     1      43.115   7.796  11.376  0.00  0.00    +0.000 HD
ENDBRANCH  22  23
ENDBRANCH   5  22
TORSDOF 4
ENDMDL
MODEL 7
REMARK VINA RESULT:    -6.618      2.947      8.192
REMARK INTER + INTRA:          -8.843
REMARK INTER:                  -8.045
REMARK INTRA:                  -0.799
REMARK UNBOUND:                -0.678
REMARK  Name = 
REMARK  5 active torsions:
REMARK  status: ('A' for Active; 'I' for Inactive)
REMARK    1  A    between atoms: C_1  and  C_2
REMARK    2  A    between atoms: C_2  and  N_3
REMARK    3  A    between atoms: C_2  and  C_17
REMARK    4  A    between atoms: C_7  and  C_8
REMARK    5  A    between atoms: C_8  and  N_9
REMARK                            x       y       z     vdW  Elec       q    Type
REMARK                         _______ _______ _______ _____ _____    ______ ____
ROOT
ATOM      1  N   UNL     1      46.800   6.486  11.530  0.00  0.00    +0.000 N 
ATOM      2  C   UNL     1      47.697   6.526  12.574  0.00  0.00    +0.000 A 
ATOM      3  N   UNL     1      47.319   6.116  13.792  0.00  0.00    +0.000 NA
ATOM      4  C   UNL     1      48.159   6.337  14.817  0.00  0.00    +0.000 A 
ATOM      5  C   UNL     1      49.339   7.028  14.696  0.00  0.00    +0.000 A 
ATOM      6  C   UNL     1      49.676   7.347  13.399  0.00  0.00    +0.000 A 
ATOM      7  N   UNL     1      48.892   7.079  12.330  0.00  0.00    +0.000 NA
ATOM      8  H   UNL     1      47.180   6.065  10.692  0.00  0.00    +0.000 HD
ENDROOT
BRANCH   1  10
ATOM      9  C   UNL     1      44.668   7.627  11.409  0.00  0.00    +0.000 C 
ATOM     10  C   UNL     1      45.384   6.339  11.819  0.00  0.00    +0.000 C 
BRANCH  10  11
ATOM     11  C   UNL     1      44.666   5.084  11.365  0.00  0.00    +0.000 A 
ATOM     12  C   UNL     1      43.689   4.467  12.134  0.00  0.00    +0.000 A 
ATOM     13  S   UNL     1      43.373   2.864  11.638  0.00  0.00    +0.000 S 
ATOM     14  C   UNL     1      44.436   3.010  10.317  0.00  0.00    +0.000 A 
ATOM     15  N   UNL     1      44.717   1.951   9.511  0.00  0.00    +0.000 NA
ATOM     16  C   UNL     1      45.465   2.245   8.500  0.00  0.00    +0.000 A 
ATOM     17  N   UNL     1      45.920   3.506   8.198  0.00  0.00    +0.000 N 
ATOM     18  C   UNL     1      45.675   4.605   8.994  0.00  0.00    +0.000 A 
ATOM     19  O   UNL     1      46.018   5.737   8.666  0.00  0.00    +0.000 OA
ATOM     20  C   UNL     1      44.923   4.298  10.192  0.00  0.00    +0.000 A 
ATOM     21  H   UNL     1      46.420   3.679   7.340  0.00  0.00    +0.000 HD
ENDBRANCH  10  11
ENDBRANCH   1  10
BRANCH   5  22
ATOM     22  C   UNL     1      50.138   7.445  15.886  0.00  0.00    +0.000 C 
BRANCH  22  23
ATOM     23  N   UNL     1      51.362   6.696  16.012  0.00  0.00    +0.000 N 
ATOM     24  C   UNL     1      51.569   5.681  16.873  0.00  0.00    +0.000 C 
ATOM     25  N   UNL     1      52.744   5.366  17.330  0.00  0.00    +0.000 NA
ATOM     26  C   UNL     1      52.497   4.173  18.183  0.00  0.00    +0.000 C 
ATOM     27  C   UNL     1      50.994   3.900  18.149  0.00  0.00    +0.000 C 
ATOM     28  N   UNL     1      50.498   4.946  17.267  0.00  0.00    +0.000 N 
ATOM     29  H   UNL     1      52.209   7.232  15.861  0.00  0.00    +0.000 HD
ATOM     30  H   UNL     1      49.929   4.617  16.486  0.00  0.00    +0.000 HD
ENDBRANCH  22  23
ENDBRANCH   5  22
TORSDOF 4
ENDMDL
MODEL 8
REMARK VINA RESULT:    -6.545      3.422      4.926
REMARK INTER + INTRA:          -8.753
REMARK INTER:                  -8.617
REMARK INTRA:                  -0.137
REMARK UNBOUND:                -0.678
REMARK  Name = 
REMARK  5 active torsions:
REMARK  status: ('A' for Active; 'I' for Inactive)
REMARK    1  A    between atoms: C_1  and  C_2
REMARK    2  A    between atoms: C_2  and  N_3
REMARK    3  A    between atoms: C_2  and  C_17
REMARK    4  A    between atoms: C_7  and  C_8
REMARK    5  A    between atoms: C_8  and  N_9
REMARK                            x       y       z     vdW  Elec       q    Type
REMARK                         _______ _______ _______ _____ _____    ______ ____
ROOT
ATOM      1  N   UNL     1      48.120   4.348  16.319  0.00  0.00    +0.000 N 
ATOM      2  C   UNL     1      47.590   4.843  15.150  0.00  0.00    +0.000 A 
ATOM      3  N   UNL     1      48.169   5.890  14.546  0.00  0.00    +0.000 NA
ATOM      4  C   UNL     1      47.523   6.454  13.513  0.00  0.00    +0.000 A 
ATOM      5  C   UNL     1      46.273   6.067  13.096  0.00  0.00    +0.000 A 
ATOM      6  C   UNL     1      45.790   4.943  13.728  0.00  0.00    +0.000 A 
ATOM      7  N   UNL     1      46.441   4.302  14.725  0.00  0.00    +0.000 NA
ATOM      8  H   UNL     1      48.226   3.341  16.318  0.00  0.00    +0.000 HD
ENDROOT
BRANCH   1  10
ATOM      9  C   UNL     1      48.295   6.246  17.813  0.00  0.00    +0.000 C 
ATOM     10  C   UNL     1      49.068   5.159  17.065  0.00  0.00    +0.000 C 
BRANCH  10  11
ATOM     11  C   UNL     1      50.113   4.471  17.920  0.00  0.00    +0.000 A 
ATOM     12  C   UNL     1      50.738   5.106  18.984  0.00  0.00    +0.000 A 
ATOM     13  S   UNL     1      52.164   4.310  19.482  0.00  0.00    +0.000 S 
ATOM     14  C   UNL     1      51.904   3.043  18.377  0.00  0.00    +0.000 A 
ATOM     15  N   UNL     1      52.816   2.048  18.208  0.00  0.00    +0.000 NA
ATOM     16  C   UNL     1      52.430   1.113  17.405  0.00  0.00    +0.000 A 
ATOM     17  N   UNL     1      51.202   1.060  16.791  0.00  0.00    +0.000 N 
ATOM     18  C   UNL     1      50.254   2.053  16.919  0.00  0.00    +0.000 A 
ATOM     19  O   UNL     1      49.131   1.949  16.431  0.00  0.00    +0.000 OA
ATOM     20  C   UNL     1      50.687   3.169  17.732  0.00  0.00    +0.000 A 
ATOM     21  H   UNL     1      50.932   0.252  16.252  0.00  0.00    +0.000 HD
ENDBRANCH  10  11
ENDBRANCH   1  10
BRANCH   5  22
ATOM     22  C   UNL     1      45.495   6.853  12.093  0.00  0.00    +0.000 C 
BRANCH  22  23
ATOM     23  N   UNL     1      45.136   8.160  12.581  0.00  0.00    +0.000 N 
ATOM     24  C   UNL     1      44.409   9.071  11.907  0.00  0.00    +0.000 C 
ATOM     25  N   UNL     1      44.514  10.350  12.105  0.00  0.00    +0.000 NA
ATOM     26  C   UNL     1      43.497  10.946  11.197  0.00  0.00    +0.000 C 
ATOM     27  C   UNL     1      42.838   9.792  10.443  0.00  0.00    +0.000 C 
ATOM     28  N   UNL     1      43.514   8.625  10.988  0.00  0.00    +0.000 N 
ATOM     29  H   UNL     1      45.834   8.603  13.168  0.00  0.00    +0.000 HD
ATOM     30  H   UNL     1      42.895   7.899  11.352  0.00  0.00    +0.000 HD
ENDBRANCH  22  23
ENDBRANCH   5  22
TORSDOF 4
ENDMDL
MODEL 9
REMARK VINA RESULT:    -6.495      2.998      4.528
REMARK INTER + INTRA:          -8.692
REMARK INTER:                  -7.908
REMARK INTRA:                  -0.784
REMARK UNBOUND:                -0.678
REMARK  Name = 
REMARK  5 active torsions:
REMARK  status: ('A' for Active; 'I' for Inactive)
REMARK    1  A    between atoms: C_1  and  C_2
REMARK    2  A    between atoms: C_2  and  N_3
REMARK    3  A    between atoms: C_2  and  C_17
REMARK    4  A    between atoms: C_7  and  C_8
REMARK    5  A    between atoms: C_8  and  N_9
REMARK                            x       y       z     vdW  Elec       q    Type
REMARK                         _______ _______ _______ _____ _____    ______ ____
ROOT
ATOM      1  N   UNL     1      48.055   7.090  14.434  0.00  0.00    +0.000 N 
ATOM      2  C   UNL     1      47.185   6.382  13.637  0.00  0.00    +0.000 A 
ATOM      3  N   UNL     1      46.499   7.015  12.674  0.00  0.00    +0.000 NA
ATOM      4  C   UNL     1      45.532   6.331  12.041  0.00  0.00    +0.000 A 
ATOM      5  C   UNL     1      45.159   5.053  12.379  0.00  0.00    +0.000 A 
ATOM      6  C   UNL     1      45.963   4.463  13.328  0.00  0.00    +0.000 A 
ATOM      7  N   UNL     1      46.992   5.092  13.940  0.00  0.00    +0.000 NA
ATOM      8  H   UNL     1      48.961   6.648  14.529  0.00  0.00    +0.000 HD
ENDROOT
BRANCH   1  10
ATOM      9  C   UNL     1      48.221   9.012  15.897  0.00  0.00    +0.000 C 
ATOM     10  C   UNL     1      47.968   8.540  14.464  0.00  0.00    +0.000 C 
BRANCH  10  11
ATOM     11  C   UNL     1      48.722   9.346  13.426  0.00  0.00    +0.000 A 
ATOM     12  C   UNL     1      48.136  10.393  12.728  0.00  0.00    +0.000 A 
ATOM     13  S   UNL     1      49.015  10.826  11.329  0.00  0.00    +0.000 S 
ATOM     14  C   UNL     1      50.251   9.716  11.700  0.00  0.00    +0.000 A 
ATOM     15  N   UNL     1      51.290   9.501  10.850  0.00  0.00    +0.000 NA
ATOM     16  C   UNL     1      52.191   8.701  11.315  0.00  0.00    +0.000 A 
ATOM     17  N   UNL     1      52.170   8.134  12.567  0.00  0.00    +0.000 N 
ATOM     18  C   UNL     1      51.130   8.311  13.455  0.00  0.00    +0.000 A 
ATOM     19  O   UNL     1      51.167   7.866  14.598  0.00  0.00    +0.000 OA
ATOM     20  C   UNL     1      50.051   9.120  12.932  0.00  0.00    +0.000 A 
ATOM     21  H   UNL     1      52.955   7.597  12.900  0.00  0.00    +0.000 HD
ENDBRANCH  10  11
ENDBRANCH   1  10
BRANCH   5  22
ATOM     22  C   UNL     1      43.942   4.406  11.805  0.00  0.00    +0.000 C 
BRANCH  22  23
ATOM     23  N   UNL     1      43.878   4.537  10.372  0.00  0.00    +0.000 N 
ATOM     24  C   UNL     1      44.571   3.792   9.490  0.00  0.00    +0.000 C 
ATOM     25  N   UNL     1      44.898   4.214   8.306  0.00  0.00    +0.000 NA
ATOM     26  C   UNL     1      45.589   3.054   7.681  0.00  0.00    +0.000 C 
ATOM     27  C   UNL     1      45.619   1.936   8.723  0.00  0.00    +0.000 C 
ATOM     28  N   UNL     1      44.930   2.534   9.856  0.00  0.00    +0.000 N 
ATOM     29  H   UNL     1      43.746   5.484  10.034  0.00  0.00    +0.000 HD
ATOM     30  H   UNL     1      44.150   1.986  10.223  0.00  0.00    +0.000 HD
ENDBRANCH  22  23
ENDBRANCH   5  22
TORSDOF 4
ENDMDL
