MODEL 1
REMARK VINA RESULT:    -7.508      0.000      0.000
REMARK INTER + INTRA:         -11.752
REMARK INTER:                 -10.581
REMARK INTRA:                  -1.171
REMARK UNBOUND:                -1.171
REMARK  Name = 
REMARK  9 active torsions:
REMARK  status: ('A' for Active; 'I' for Inactive)
REMARK    1  A    between atoms: C_1  and  O_2
REMARK    2  A    between atoms: O_2  and  C_3
REMARK    3  A    between atoms: C_10  and  C_11
REMARK    4  A    between atoms: N_13  and  C_14
REMARK    5  A    between atoms: C_14  and  C_15
REMARK    6  A    between atoms: C_18  and  N_19
REMARK    7  A    between atoms: N_19  and  C_20
REMARK    8  A    between atoms: C_20  and  C_21
REMARK    9  A    between atoms: N_25  and  C_26
REMARK                            x       y       z     vdW  Elec       q    Type
REMARK                         _______ _______ _______ _____ _____    ______ ____
ROOT
ATOM      1  C   UNL     1      48.444   7.217  14.839  0.00  0.00    +0.000 C 
ENDROOT
BRANCH   1   2
ATOM      2  C   UNL     1      47.525   6.415  13.957  0.00  0.00    +0.000 A 
ATOM      3  C   UNL     1      47.109   5.131  14.324  0.00  0.00    +0.000 A 
ATOM      4  C   UNL     1      46.212   4.409  13.519  0.00  0.00    +0.000 A 
ATOM      5  C   UNL     1      45.698   4.955  12.340  0.00  0.00    +0.000 A 
ATOM      6  C   UNL     1      46.188   6.208  11.943  0.00  0.00    +0.000 A 
ATOM      7  C   UNL     1      47.079   6.935  12.740  0.00  0.00    +0.000 A 
BRANCH   5   8
ATOM      8  N   UNL     1      44.840   4.279  11.468  0.00  0.00    +0.000 N 
ATOM      9  H   UNL     1      43.908   4.191  11.864  0.00  0.00    +0.000 HD
BRANCH   8  10
ATOM     10  C   UNL     1      45.275   3.050  10.797  0.00  0.00    +0.000 C 
BRANCH  10  11
ATOM     11  C   UNL     1      44.491   2.877   9.475  0.00  0.00    +0.000 C 
ATOM     12  C   UNL     1      44.624   4.095   8.546  0.00  0.00    +0.000 C 
ATOM     13  C   UNL     1      46.035   4.206   7.972  0.00  0.00    +0.000 C 
ATOM     14  C   UNL     1      46.490   2.892   7.333  0.00  0.00    +0.000 C 
ATOM     15  N   UNL     1      46.340   1.748   8.248  0.00  0.00    +0.000 NA
ATOM     16  C   UNL     1      46.778   0.515   7.592  0.00  0.00    +0.000 C 
ATOM     17  C   UNL     1      44.953   1.619   8.716  0.00  0.00    +0.000 C 
ENDBRANCH  10  11
ENDBRANCH   8  10
ENDBRANCH   5   8
ENDBRANCH   1   2
BRANCH   1  20
ATOM     18  C   UNL     1      49.506   6.082  16.725  0.00  0.00    +0.000 C 
ATOM     19  O   UNL     1      48.609   6.472  17.473  0.00  0.00    +0.000 OA
ATOM     20  N   UNL     1      49.505   6.415  15.397  0.00  0.00    +0.000 N 
ATOM     21  H   UNL     1      50.219   6.062  14.772  0.00  0.00    +0.000 HD
BRANCH  18  29
ATOM     22  C   UNL     1      50.041   2.679  16.926  0.00  0.00    +0.000 A 
ATOM     23  N   UNL     1      50.500   1.429  17.148  0.00  0.00    +0.000 NA
ATOM     24  C   UNL     1      51.700   1.289  17.718  0.00  0.00    +0.000 A 
ATOM     25  N   UNL     1      52.520   2.262  18.102  0.00  0.00    +0.000 NA
ATOM     26  C   UNL     1      52.021   3.489  17.876  0.00  0.00    +0.000 A 
ATOM     27  S   UNL     1      52.939   4.851  18.305  0.00  0.00    +0.000 S 
ATOM     28  C   UNL     1      51.726   5.900  17.753  0.00  0.00    +0.000 A 
ATOM     29  C   UNL     1      50.608   5.252  17.231  0.00  0.00    +0.000 A 
ATOM     30  C   UNL     1      50.792   3.805  17.304  0.00  0.00    +0.000 A 
BRANCH  22  32
ATOM     31  C   UNL     1      47.742   2.875  17.299  0.00  0.00    +0.000 C 
ATOM     32  O   UNL     1      48.799   2.821  16.342  0.00  0.00    +0.000 OA
ENDBRANCH  22  32
ENDBRANCH  18  29
ENDBRANCH   1  20
TORSDOF 7
ENDMDL
MODEL 2
REMARK VINA RESULT:    -7.274      2.019      2.325
REMARK INTER + INTRA:         -11.423
REMARK INTER:                 -10.246
REMARK INTRA:                  -1.177
REMARK UNBOUND:                -1.171
REMARK  Name = 
REMARK  9 active torsions:
REMARK  status: ('A' for Active; 'I' for Inactive)
REMARK    1  A    between atoms: C_1  and  O_2
REMARK    2  A    between atoms: O_2  and  C_3
REMARK    3  A    between atoms: C_10  and  C_11
REMARK    4  A    between atoms: N_13  and  C_14
REMARK    5  A    between atoms: C_14  and  C_15
REMARK    6  A    between atoms: C_18  and  N_19
REMARK    7  A    between atoms: N_19  and  C_20
REMARK    8  A    between atoms: C_20  and  C_21
REMARK    9  A    between atoms: N_25  and  C_26
REMARK                            x       y       z     vdW  Elec       q    Type
REMARK                         _______ _______ _______ _____ _____    ______ ____
ROOT
ATOM      1  C   UNL     1      48.177   7.921  13.739  0.00  0.00    +0.000 C 
ENDROOT
BRANCH   1   2
ATOM      2  C   UNL     1      47.259   6.904  13.118  0.00  0.00    +0.000 A 
ATOM      3  C   UNL     1      47.043   5.660  13.722  0.00  0.00    +0.000 A 
ATOM      4  C   UNL     1      46.146   4.736  13.161  0.00  0.00    +0.000 A 
ATOM      5  C   UNL     1      45.432   5.035  11.998  0.00  0.00    +0.000 A 
ATOM      6  C   UNL     1      45.721   6.250  11.359  0.00  0.00    +0.000 A 
ATOM      7  C   UNL     1      46.610   7.178  11.912  0.00  0.00    +0.000 A 
BRANCH   5   8
ATOM      8  N   UNL     1      44.560   4.148  11.360  0.00  0.00    +0.000 N 
ATOM      9  H   UNL     1      43.742   3.960  11.934  0.00  0.00    +0.000 HD
BRANCH   8  10
ATOM     10  C   UNL     1      45.070   2.937  10.709  0.00  0.00    +0.000 C 
BRANCH  10  11
ATOM     11  C   UNL     1      44.410   2.780   9.320  0.00  0.00    +0.000 C 
ATOM     12  C   UNL     1      44.705   3.966   8.387  0.00  0.00    +0.000 C 
ATOM     13  C   UNL     1      46.169   3.983   7.953  0.00  0.00    +0.000 C 
ATOM     14  C   UNL     1      46.605   2.630   7.385  0.00  0.00    +0.000 C 
ATOM     15  N   UNL     1      46.300   1.518   8.301  0.00  0.00    +0.000 NA
ATOM     16  C   UNL     1      46.725   0.247   7.713  0.00  0.00    +0.000 C 
ATOM     17  C   UNL     1      44.868   1.480   8.632  0.00  0.00    +0.000 C 
ENDBRANCH  10  11
ENDBRANCH   8  10
ENDBRANCH   5   8
ENDBRANCH   1   2
BRANCH   1  20
ATOM     18  C   UNL     1      49.400   7.315  15.767  0.00  0.00    +0.000 C 
ATOM     19  O   UNL     1      50.374   6.989  15.090  0.00  0.00    +0.000 OA
ATOM     20  N   UNL     1      48.259   7.784  15.172  0.00  0.00    +0.000 N 
ATOM     21  H   UNL     1      47.470   8.090  15.729  0.00  0.00    +0.000 HD
BRANCH  18  29
ATOM     22  C   UNL     1      48.882   4.726  17.989  0.00  0.00    +0.000 A 
ATOM     23  N   UNL     1      48.713   3.927  19.063  0.00  0.00    +0.000 NA
ATOM     24  C   UNL     1      48.868   4.461  20.277  0.00  0.00    +0.000 A 
ATOM     25  N   UNL     1      49.181   5.722  20.561  0.00  0.00    +0.000 NA
ATOM     26  C   UNL     1      49.328   6.486  19.466  0.00  0.00    +0.000 A 
ATOM     27  S   UNL     1      49.730   8.125  19.644  0.00  0.00    +0.000 S 
ATOM     28  C   UNL     1      49.725   8.356  17.963  0.00  0.00    +0.000 A 
ATOM     29  C   UNL     1      49.424   7.209  17.232  0.00  0.00    +0.000 A 
ATOM     30  C   UNL     1      49.192   6.088  18.138  0.00  0.00    +0.000 A 
BRANCH  22  32
ATOM     31  C   UNL     1      47.872   3.022  16.747  0.00  0.00    +0.000 C 
ATOM     32  O   UNL     1      48.716   4.173  16.735  0.00  0.00    +0.000 OA
ENDBRANCH  22  32
ENDBRANCH  18  29
ENDBRANCH   1  20
TORSDOF 7
ENDMDL
MODEL 3
REMARK VINA RESULT:    -6.966      2.667      3.961
REMARK INTER + INTRA:         -10.988
REMARK INTER:                  -9.726
REMARK INTRA:                  -1.261
REMARK UNBOUND:                -1.171
REMARK  Name = 
REMARK  9 active torsions:
REMARK  status: ('A' for Active; 'I' for Inactive)
REMARK    1  A    between atoms: C_1  and  O_2
REMARK    2  A    between atoms: O_2  and  C_3
REMARK    3  A    between atoms: C_10  and  C_11
REMARK    4  A    between atoms: N_13  and  C_14
REMARK    5  A    between atoms: C_14  and  C_15
REMARK    6  A    between atoms: C_18  and  N_19
REMARK    7  A    between atoms: N_19  and  C_20
REMARK    8  A    between atoms: C_20  and  C_21
REMARK    9  A    between atoms: N_25  and  C_26
REMARK                            x       y       z     vdW  Elec       q    Type
REMARK                         _______ _______ _______ _____ _____    ______ ____
ROOT
ATOM      1  C   UNL     1      48.174   7.613  13.994  0.00  0.00    +0.000 C 
ENDROOT
BRANCH   1   2
ATOM      2  C   UNL     1      47.245   6.676  13.271  0.00  0.00    +0.000 A 
ATOM      3  C   UNL     1      46.954   5.407  13.783  0.00  0.00    +0.000 A 
ATOM      4  C   UNL     1      46.049   4.557  13.127  0.00  0.00    +0.000 A 
ATOM      5  C   UNL     1      45.399   4.958  11.957  0.00  0.00    +0.000 A 
ATOM      6  C   UNL     1      45.763   6.198  11.410  0.00  0.00    +0.000 A 
ATOM      7  C   UNL     1      46.662   7.051  12.058  0.00  0.00    +0.000 A 
BRANCH   5   8
ATOM      8  N   UNL     1      44.523   4.151  11.226  0.00  0.00    +0.000 N 
ATOM      9  H   UNL     1      43.639   4.032  11.715  0.00  0.00    +0.000 HD
BRANCH   8  10
ATOM     10  C   UNL     1      44.990   2.901  10.617  0.00  0.00    +0.000 C 
BRANCH  10  11
ATOM     11  C   UNL     1      44.381   2.755   9.203  0.00  0.00    +0.000 C 
ATOM     12  C   UNL     1      44.625   3.992   8.324  0.00  0.00    +0.000 C 
ATOM     13  C   UNL     1      46.096   4.119   7.936  0.00  0.00    +0.000 C 
ATOM     14  C   UNL     1      46.635   2.819   7.333  0.00  0.00    +0.000 C 
ATOM     15  N   UNL     1      46.376   1.656   8.197  0.00  0.00    +0.000 NA
ATOM     16  C   UNL     1      46.899   0.438   7.576  0.00  0.00    +0.000 C 
ATOM     17  C   UNL     1      44.941   1.515   8.483  0.00  0.00    +0.000 C 
ENDBRANCH  10  11
ENDBRANCH   8  10
ENDBRANCH   5   8
ENDBRANCH   1   2
BRANCH   1  20
ATOM     18  C   UNL     1      49.175   6.906  16.109  0.00  0.00    +0.000 C 
ATOM     19  O   UNL     1      50.190   6.544  15.515  0.00  0.00    +0.000 OA
ATOM     20  N   UNL     1      48.117   7.444  15.425  0.00  0.00    +0.000 N 
ATOM     21  H   UNL     1      47.298   7.780  15.915  0.00  0.00    +0.000 HD
BRANCH  18  29
ATOM     22  C   UNL     1      47.920   8.929  18.608  0.00  0.00    +0.000 A 
ATOM     23  N   UNL     1      47.533   9.505  19.765  0.00  0.00    +0.000 NA
ATOM     24  C   UNL     1      47.721   8.828  20.901  0.00  0.00    +0.000 A 
ATOM     25  N   UNL     1      48.258   7.619  21.030  0.00  0.00    +0.000 NA
ATOM     26  C   UNL     1      48.641   7.086  19.858  0.00  0.00    +0.000 A 
ATOM     27  S   UNL     1      49.347   5.543  19.838  0.00  0.00    +0.000 S 
ATOM     28  C   UNL     1      49.528   5.597  18.153  0.00  0.00    +0.000 A 
ATOM     29  C   UNL     1      49.061   6.772  17.568  0.00  0.00    +0.000 A 
ATOM     30  C   UNL     1      48.525   7.661  18.595  0.00  0.00    +0.000 A 
BRANCH  22  32
ATOM     31  C   UNL     1      48.136  10.997  17.538  0.00  0.00    +0.000 C 
ATOM     32  O   UNL     1      47.729   9.632  17.436  0.00  0.00    +0.000 OA
ENDBRANCH  22  32
ENDBRANCH  18  29
ENDBRANCH   1  20
TORSDOF 7
ENDMDL
MODEL 4
REMARK VINA RESULT:    -6.580      3.334      9.219
REMARK INTER + INTRA:         -10.445
REMARK INTER:                  -9.094
REMARK INTRA:                  -1.350
REMARK UNBOUND:                -1.171
REMARK  Name = 
REMARK  9 active torsions:
REMARK  status: ('A' for Active; 'I' for Inactive)
REMARK    1  A    between atoms: C_1  and  O_2
REMARK    2  A    between atoms: O_2  and  C_3
REMARK    3  A    between atoms: C_10  and  C_11
REMARK    4  A    between atoms: N_13  and  C_14
REMARK    5  A    between atoms: C_14  and  C_15
REMARK    6  A    between atoms: C_18  and  N_19
REMARK    7  A    between atoms: N_19  and  C_20
REMARK    8  A    between atoms: C_20  and  C_21
REMARK    9  A    between atoms: N_25  and  C_26
REMARK                            x       y       z     vdW  Elec       q    Type
REMARK                         _______ _______ _______ _____ _____    ______ ____
ROOT
ATOM      1  C   UNL     1      47.223   3.272  16.897  0.00  0.00    +0.000 C 
ENDROOT
BRANCH   1   2
ATOM      2  C   UNL     1      48.658   3.317  17.349  0.00  0.00    +0.000 A 
ATOM      3  C   UNL     1      49.561   2.311  16.988  0.00  0.00    +0.000 A 
ATOM      4  C   UNL     1      50.910   2.386  17.373  0.00  0.00    +0.000 A 
ATOM      5  C   UNL     1      51.393   3.470  18.111  0.00  0.00    +0.000 A 
ATOM      6  C   UNL     1      50.459   4.426  18.536  0.00  0.00    +0.000 A 
ATOM      7  C   UNL     1      49.115   4.362  18.155  0.00  0.00    +0.000 A 
BRANCH   5   8
ATOM      8  N   UNL     1      52.708   3.588  18.567  0.00  0.00    +0.000 N 
ATOM      9  H   UNL     1      52.797   4.344  19.241  0.00  0.00    +0.000 HD
BRANCH   8  10
ATOM     10  C   UNL     1      53.832   3.552  17.626  0.00  0.00    +0.000 C 
BRANCH  10  11
ATOM     11  C   UNL     1      54.833   4.678  17.972  0.00  0.00    +0.000 C 
ATOM     12  C   UNL     1      55.644   5.143  16.751  0.00  0.00    +0.000 C 
ATOM     13  C   UNL     1      54.768   5.902  15.757  0.00  0.00    +0.000 C 
ATOM     14  C   UNL     1      53.983   7.025  16.438  0.00  0.00    +0.000 C 
ATOM     15  N   UNL     1      53.227   6.545  17.606  0.00  0.00    +0.000 NA
ATOM     16  C   UNL     1      52.501   7.653  18.230  0.00  0.00    +0.000 C 
ATOM     17  C   UNL     1      54.112   5.894  18.583  0.00  0.00    +0.000 C 
ENDBRANCH  10  11
ENDBRANCH   8  10
ENDBRANCH   5   8
ENDBRANCH   1   2
BRANCH   1  20
ATOM     18  C   UNL     1      46.991   4.208  14.651  0.00  0.00    +0.000 C 
ATOM     19  O   UNL     1      47.373   3.145  14.162  0.00  0.00    +0.000 OA
ATOM     20  N   UNL     1      46.895   4.360  16.008  0.00  0.00    +0.000 N 
ATOM     21  H   UNL     1      46.543   5.219  16.412  0.00  0.00    +0.000 HD
BRANCH  18  29
ATOM     22  C   UNL     1      44.248   4.964  12.699  0.00  0.00    +0.000 A 
ATOM     23  N   UNL     1      43.336   5.499  11.860  0.00  0.00    +0.000 NA
ATOM     24  C   UNL     1      43.601   6.690  11.316  0.00  0.00    +0.000 A 
ATOM     25  N   UNL     1      44.686   7.432  11.511  0.00  0.00    +0.000 NA
ATOM     26  C   UNL     1      45.573   6.859  12.342  0.00  0.00    +0.000 A 
ATOM     27  S   UNL     1      47.019   7.672  12.703  0.00  0.00    +0.000 S 
ATOM     28  C   UNL     1      47.533   6.407  13.709  0.00  0.00    +0.000 A 
ATOM     29  C   UNL     1      46.631   5.349  13.799  0.00  0.00    +0.000 A 
ATOM     30  C   UNL     1      45.454   5.627  12.979  0.00  0.00    +0.000 A 
BRANCH  22  32
ATOM     31  C   UNL     1      43.543   2.772  12.290  0.00  0.00    +0.000 C 
ATOM     32  O   UNL     1      43.974   3.731  13.256  0.00  0.00    +0.000 OA
ENDBRANCH  22  32
ENDBRANCH  18  29
ENDBRANCH   1  20
TORSDOF 7
ENDMDL
MODEL 5
REMARK VINA RESULT:    -6.502      2.649      3.495
REMARK INTER + INTRA:         -10.334
REMARK INTER:                  -8.679
REMARK INTRA:                  -1.655
REMARK UNBOUND:                -1.171
REMARK  Name = 
REMARK  9 active torsions:
REMARK  status: ('A' for Active; 'I' for Inactive)
REMARK    1  A    between atoms: C_1  and  O_2
REMARK    2  A    between atoms: O_2  and  C_3
REMARK    3  A    between atoms: C_10  and  C_11
REMARK    4  A    between atoms: N_13  and  C_14
REMARK    5  A    between atoms: C_14  and  C_15
REMARK    6  A    between atoms: C_18  and  N_19
REMARK    7  A    between atoms: N_19  and  C_20
REMARK    8  A    between atoms: C_20  and  C_21
REMARK    9  A    between atoms: N_25  and  C_26
REMARK                            x       y       z     vdW  Elec       q    Type
REMARK                         _______ _______ _______ _____ _____    ______ ____
ROOT
ATOM      1  C   UNL     1      47.991   8.971  14.677  0.00  0.00    +0.000 C 
ENDROOT
BRANCH   1   2
ATOM      2  C   UNL     1      47.288   8.344  13.503  0.00  0.00    +0.000 A 
ATOM      3  C   UNL     1      47.877   7.300  12.781  0.00  0.00    +0.000 A 
ATOM      4  C   UNL     1      47.193   6.688  11.717  0.00  0.00    +0.000 A 
ATOM      5  C   UNL     1      45.903   7.089  11.361  0.00  0.00    +0.000 A 
ATOM      6  C   UNL     1      45.361   8.191  12.039  0.00  0.00    +0.000 A 
ATOM      7  C   UNL     1      46.033   8.804  13.101  0.00  0.00    +0.000 A 
BRANCH   5   8
ATOM      8  N   UNL     1      45.182   6.559  10.287  0.00  0.00    +0.000 N 
ATOM      9  H   UNL     1      44.181   6.652  10.435  0.00  0.00    +0.000 HD
BRANCH   8  10
ATOM     10  C   UNL     1      45.539   5.255   9.719  0.00  0.00    +0.000 C 
BRANCH  10  11
ATOM     11  C   UNL     1      44.292   4.340   9.701  0.00  0.00    +0.000 C 
ATOM     12  C   UNL     1      44.633   2.870   9.993  0.00  0.00    +0.000 C 
ATOM     13  C   UNL     1      45.050   2.673  11.450  0.00  0.00    +0.000 C 
ATOM     14  C   UNL     1      44.024   3.271  12.415  0.00  0.00    +0.000 C 
ATOM     15  N   UNL     1      43.715   4.676  12.100  0.00  0.00    +0.000 NA
ATOM     16  C   UNL     1      42.725   5.200  13.041  0.00  0.00    +0.000 C 
ATOM     17  C   UNL     1      43.238   4.818  10.717  0.00  0.00    +0.000 C 
ENDBRANCH  10  11
ENDBRANCH   8  10
ENDBRANCH   5   8
ENDBRANCH   1   2
BRANCH   1  20
ATOM     18  C   UNL     1      49.081   8.179  16.717  0.00  0.00    +0.000 C 
ATOM     19  O   UNL     1      49.974   9.013  16.571  0.00  0.00    +0.000 OA
ATOM     20  N   UNL     1      48.056   8.084  15.814  0.00  0.00    +0.000 N 
ATOM     21  H   UNL     1      47.299   7.427  15.953  0.00  0.00    +0.000 HD
BRANCH  18  29
ATOM     22  C   UNL     1      48.474   4.800  17.067  0.00  0.00    +0.000 A 
ATOM     23  N   UNL     1      48.272   3.537  17.495  0.00  0.00    +0.000 NA
ATOM     24  C   UNL     1      48.424   3.279  18.796  0.00  0.00    +0.000 A 
ATOM     25  N   UNL     1      48.763   4.144  19.747  0.00  0.00    +0.000 NA
ATOM     26  C   UNL     1      48.942   5.392  19.283  0.00  0.00    +0.000 A 
ATOM     27  S   UNL     1      49.379   6.625  20.363  0.00  0.00    +0.000 S 
ATOM     28  C   UNL     1      49.401   7.774  19.115  0.00  0.00    +0.000 A 
ATOM     29  C   UNL     1      49.084   7.257  17.860  0.00  0.00    +0.000 A 
ATOM     30  C   UNL     1      48.813   5.826  17.966  0.00  0.00    +0.000 A 
BRANCH  22  32
ATOM     31  C   UNL     1      47.132   4.470  15.181  0.00  0.00    +0.000 C 
ATOM     32  O   UNL     1      48.312   5.065  15.722  0.00  0.00    +0.000 OA
ENDBRANCH  22  32
ENDBRANCH  18  29
ENDBRANCH   1  20
TORSDOF 7
ENDMDL
MODEL 6
REMARK VINA RESULT:    -6.491      1.708      2.636
REMARK INTER + INTRA:         -10.318
REMARK INTER:                  -8.818
REMARK INTRA:                  -1.501
REMARK UNBOUND:                -1.171
REMARK  Name = 
REMARK  9 active torsions:
REMARK  status: ('A' for Active; 'I' for Inactive)
REMARK    1  A    between atoms: C_1  and  O_2
REMARK    2  A    between atoms: O_2  and  C_3
REMARK    3  A    between atoms: C_10  and  C_11
REMARK    4  A    between atoms: N_13  and  C_14
REMARK    5  A    between atoms: C_14  and  C_15
REMARK    6  A    between atoms: C_18  and  N_19
REMARK    7  A    between atoms: N_19  and  C_20
REMARK    8  A    between atoms: C_20  and  C_21
REMARK    9  A    between atoms: N_25  and  C_26
REMARK                            x       y       z     vdW  Elec       q    Type
REMARK                         _______ _______ _______ _____ _____    ______ ____
ROOT
ATOM      1  C   UNL     1      48.623   8.212  15.269  0.00  0.00    +0.000 C 
ENDROOT
BRANCH   1   2
ATOM      2  C   UNL     1      47.833   7.784  14.062  0.00  0.00    +0.000 A 
ATOM      3  C   UNL     1      47.669   6.430  13.747  0.00  0.00    +0.000 A 
ATOM      4  C   UNL     1      46.889   6.038  12.647  0.00  0.00    +0.000 A 
ATOM      5  C   UNL     1      46.241   6.982  11.847  0.00  0.00    +0.000 A 
ATOM      6  C   UNL     1      46.482   8.336  12.124  0.00  0.00    +0.000 A 
ATOM      7  C   UNL     1      47.255   8.736  13.219  0.00  0.00    +0.000 A 
BRANCH   5   8
ATOM      8  N   UNL     1      45.488   6.668  10.711  0.00  0.00    +0.000 N 
ATOM      9  H   UNL     1      44.498   6.835  10.870  0.00  0.00    +0.000 HD
BRANCH   8  10
ATOM     10  C   UNL     1      45.728   5.422   9.977  0.00  0.00    +0.000 C 
BRANCH  10  11
ATOM     11  C   UNL     1      44.388   4.682   9.760  0.00  0.00    +0.000 C 
ATOM     12  C   UNL     1      44.548   3.154   9.764  0.00  0.00    +0.000 C 
ATOM     13  C   UNL     1      44.882   2.632  11.160  0.00  0.00    +0.000 C 
ATOM     14  C   UNL     1      43.894   3.150  12.208  0.00  0.00    +0.000 C 
ATOM     15  N   UNL     1      43.760   4.615  12.169  0.00  0.00    +0.000 NA
ATOM     16  C   UNL     1      42.800   5.062  13.179  0.00  0.00    +0.000 C 
ATOM     17  C   UNL     1      43.356   5.077  10.833  0.00  0.00    +0.000 C 
ENDBRANCH  10  11
ENDBRANCH   8  10
ENDBRANCH   5   8
ENDBRANCH   1   2
BRANCH   1  20
ATOM     18  C   UNL     1      49.476   6.613  16.910  0.00  0.00    +0.000 C 
ATOM     19  O   UNL     1      48.578   6.926  17.691  0.00  0.00    +0.000 OA
ATOM     20  N   UNL     1      49.577   7.212  15.682  0.00  0.00    +0.000 N 
ATOM     21  H   UNL     1      50.290   6.927  15.022  0.00  0.00    +0.000 HD
BRANCH  18  29
ATOM     22  C   UNL     1      49.513   3.164  16.795  0.00  0.00    +0.000 A 
ATOM     23  N   UNL     1      49.794   1.848  16.881  0.00  0.00    +0.000 NA
ATOM     24  C   UNL     1      50.990   1.487  17.352  0.00  0.00    +0.000 A 
ATOM     25  N   UNL     1      51.966   2.295  17.755  0.00  0.00    +0.000 NA
ATOM     26  C   UNL     1      51.643   3.595  17.665  0.00  0.00    +0.000 A 
ATOM     27  S   UNL     1      52.774   4.768  18.138  0.00  0.00    +0.000 S 
ATOM     28  C   UNL     1      51.700   6.025  17.759  0.00  0.00    +0.000 A 
ATOM     29  C   UNL     1      50.470   5.593  17.267  0.00  0.00    +0.000 A 
ATOM     30  C   UNL     1      50.442   4.134  17.209  0.00  0.00    +0.000 A 
BRANCH  22  32
ATOM     31  C   UNL     1      47.267   3.540  17.325  0.00  0.00    +0.000 C 
ATOM     32  O   UNL     1      48.274   3.535  16.313  0.00  0.00    +0.000 OA
ENDBRANCH  22  32
ENDBRANCH  18  29
ENDBRANCH   1  20
TORSDOF 7
ENDMDL
MODEL 7
REMARK VINA RESULT:    -6.480      1.814      3.086
REMARK INTER + INTRA:         -10.303
REMARK INTER:                  -8.887
REMARK INTRA:                  -1.415
REMARK UNBOUND:                -1.171
REMARK  Name = 
REMARK  9 active torsions:
REMARK  status: ('A' for Active; 'I' for Inactive)
REMARK    1  A    between atoms: C_1  and  O_2
REMARK    2  A    between atoms: O_2  and  C_3
REMARK    3  A    between atoms: C_10  and  C_11
REMARK    4  A    between atoms: N_13  and  C_14
REMARK    5  A    between atoms: C_14  and  C_15
REMARK    6  A    between atoms: C_18  and  N_19
REMARK    7  A    between atoms: N_19  and  C_20
REMARK    8  A    between atoms: C_20  and  C_21
REMARK    9  A    between atoms: N_25  and  C_26
REMARK                            x       y       z     vdW  Elec       q    Type
REMARK                         _______ _______ _______ _____ _____    ______ ____
ROOT
ATOM      1  C   UNL     1      50.957   7.350  16.204  0.00  0.00    +0.000 C 
ENDROOT
BRANCH   1   2
ATOM      2  C   UNL     1      49.854   7.026  15.233  0.00  0.00    +0.000 A 
ATOM      3  C   UNL     1      49.880   7.510  13.920  0.00  0.00    +0.000 A 
ATOM      4  C   UNL     1      48.872   7.163  13.007  0.00  0.00    +0.000 A 
ATOM      5  C   UNL     1      47.825   6.313  13.373  0.00  0.00    +0.000 A 
ATOM      6  C   UNL     1      47.767   5.905  14.713  0.00  0.00    +0.000 A 
ATOM      7  C   UNL     1      48.768   6.243  15.630  0.00  0.00    +0.000 A 
BRANCH   5   8
ATOM      8  N   UNL     1      46.765   5.963  12.532  0.00  0.00    +0.000 N 
ATOM      9  H   UNL     1      46.963   6.213  11.567  0.00  0.00    +0.000 HD
BRANCH   8  10
ATOM     10  C   UNL     1      45.381   6.267  12.909  0.00  0.00    +0.000 C 
BRANCH  10  11
ATOM     11  C   UNL     1      44.605   4.950  13.140  0.00  0.00    +0.000 C 
ATOM     12  C   UNL     1      43.085   5.123  12.988  0.00  0.00    +0.000 C 
ATOM     13  C   UNL     1      42.696   5.376  11.533  0.00  0.00    +0.000 C 
ATOM     14  C   UNL     1      43.291   4.320  10.599  0.00  0.00    +0.000 C 
ATOM     15  N   UNL     1      44.744   4.175  10.778  0.00  0.00    +0.000 NA
ATOM     16  C   UNL     1      45.266   3.150   9.872  0.00  0.00    +0.000 C 
ATOM     17  C   UNL     1      45.079   3.850  12.171  0.00  0.00    +0.000 C 
ENDBRANCH  10  11
ENDBRANCH   8  10
ENDBRANCH   5   8
ENDBRANCH   1   2
BRANCH   1  20
ATOM     18  C   UNL     1      51.739   5.807  17.931  0.00  0.00    +0.000 C 
ATOM     19  O   UNL     1      51.173   6.476  18.795  0.00  0.00    +0.000 OA
ATOM     20  N   UNL     1      51.689   6.176  16.613  0.00  0.00    +0.000 N 
ATOM     21  H   UNL     1      52.119   5.606  15.896  0.00  0.00    +0.000 HD
BRANCH  18  29
ATOM     22  C   UNL     1      51.239   2.438  17.379  0.00  0.00    +0.000 A 
ATOM     23  N   UNL     1      51.288   1.090  17.331  0.00  0.00    +0.000 NA
ATOM     24  C   UNL     1      52.325   0.476  17.905  0.00  0.00    +0.000 A 
ATOM     25  N   UNL     1      53.345   1.051  18.535  0.00  0.00    +0.000 NA
ATOM     26  C   UNL     1      53.252   2.390  18.571  0.00  0.00    +0.000 A 
ATOM     27  S   UNL     1      54.473   3.287  19.336  0.00  0.00    +0.000 S 
ATOM     28  C   UNL     1      53.684   4.748  18.984  0.00  0.00    +0.000 A 
ATOM     29  C   UNL     1      52.491   4.595  18.282  0.00  0.00    +0.000 A 
ATOM     30  C   UNL     1      52.238   3.178  18.033  0.00  0.00    +0.000 A 
BRANCH  22  32
ATOM     31  C   UNL     1      48.980   3.006  17.586  0.00  0.00    +0.000 C 
ATOM     32  O   UNL     1      50.163   3.070  16.789  0.00  0.00    +0.000 OA
ENDBRANCH  22  32
ENDBRANCH  18  29
ENDBRANCH   1  20
TORSDOF 7
ENDMDL
MODEL 8
REMARK VINA RESULT:    -6.278      3.229      8.403
REMARK INTER + INTRA:         -10.018
REMARK INTER:                  -8.783
REMARK INTRA:                  -1.235
REMARK UNBOUND:                -1.171
REMARK  Name = 
REMARK  9 active torsions:
REMARK  status: ('A' for Active; 'I' for Inactive)
REMARK    1  A    between atoms: C_1  and  O_2
REMARK    2  A    between atoms: O_2  and  C_3
REMARK    3  A    between atoms: C_10  and  C_11
REMARK    4  A    between atoms: N_13  and  C_14
REMARK    5  A    between atoms: C_14  and  C_15
REMARK    6  A    between atoms: C_18  and  N_19
REMARK    7  A    between atoms: N_19  and  C_20
REMARK    8  A    between atoms: C_20  and  C_21
REMARK    9  A    between atoms: N_25  and  C_26
REMARK                            x       y       z     vdW  Elec       q    Type
REMARK                         _______ _______ _______ _____ _____    ______ ____
ROOT
ATOM      1  C   UNL     1      48.186   8.164  11.875  0.00  0.00    +0.000 C 
ENDROOT
BRANCH   1   2
ATOM      2  C   UNL     1      48.851   7.875  13.193  0.00  0.00    +0.000 A 
ATOM      3  C   UNL     1      48.105   7.487  14.311  0.00  0.00    +0.000 A 
ATOM      4  C   UNL     1      48.739   7.172  15.524  0.00  0.00    +0.000 A 
ATOM      5  C   UNL     1      50.130   7.220  15.647  0.00  0.00    +0.000 A 
ATOM      6  C   UNL     1      50.858   7.691  14.545  0.00  0.00    +0.000 A 
ATOM      7  C   UNL     1      50.236   8.004  13.332  0.00  0.00    +0.000 A 
BRANCH   5   8
ATOM      8  N   UNL     1      50.824   6.966  16.833  0.00  0.00    +0.000 N 
ATOM      9  H   UNL     1      51.367   7.776  17.122  0.00  0.00    +0.000 HD
BRANCH   8  10
ATOM     10  C   UNL     1      51.565   5.713  17.012  0.00  0.00    +0.000 C 
BRANCH  10  11
ATOM     11  C   UNL     1      51.071   4.998  18.291  0.00  0.00    +0.000 C 
ATOM     12  C   UNL     1      49.538   4.930  18.376  0.00  0.00    +0.000 C 
ATOM     13  C   UNL     1      48.964   3.972  17.334  0.00  0.00    +0.000 C 
ATOM     14  C   UNL     1      49.645   2.603  17.391  0.00  0.00    +0.000 C 
ATOM     15  N   UNL     1      51.112   2.708  17.316  0.00  0.00    +0.000 NA
ATOM     16  C   UNL     1      51.719   1.378  17.383  0.00  0.00    +0.000 C 
ATOM     17  C   UNL     1      51.639   3.570  18.384  0.00  0.00    +0.000 C 
ENDBRANCH  10  11
ENDBRANCH   8  10
ENDBRANCH   5   8
ENDBRANCH   1   2
BRANCH   1  20
ATOM     18  C   UNL     1      46.168   6.891  11.342  0.00  0.00    +0.000 C 
ATOM     19  O   UNL     1      45.471   7.776  11.840  0.00  0.00    +0.000 OA
ATOM     20  N   UNL     1      47.533   7.001  11.325  0.00  0.00    +0.000 N 
ATOM     21  H   UNL     1      48.106   6.294  10.881  0.00  0.00    +0.000 HD
BRANCH  18  29
ATOM     22  C   UNL     1      44.410   4.220  12.641  0.00  0.00    +0.000 A 
ATOM     23  N   UNL     1      43.734   3.075  12.868  0.00  0.00    +0.000 NA
ATOM     24  C   UNL     1      43.452   2.291  11.825  0.00  0.00    +0.000 A 
ATOM     25  N   UNL     1      43.765   2.513  10.552  0.00  0.00    +0.000 NA
ATOM     26  C   UNL     1      44.447   3.656  10.370  0.00  0.00    +0.000 A 
ATOM     27  S   UNL     1      44.928   4.097   8.803  0.00  0.00    +0.000 S 
ATOM     28  C   UNL     1      45.663   5.514   9.377  0.00  0.00    +0.000 A 
ATOM     29  C   UNL     1      45.562   5.689  10.756  0.00  0.00    +0.000 A 
ATOM     30  C   UNL     1      44.828   4.573  11.347  0.00  0.00    +0.000 A 
BRANCH  22  32
ATOM     31  C   UNL     1      46.001   4.771  14.264  0.00  0.00    +0.000 C 
ATOM     32  O   UNL     1      44.705   5.027  13.722  0.00  0.00    +0.000 OA
ENDBRANCH  22  32
ENDBRANCH  18  29
ENDBRANCH   1  20
TORSDOF 7
ENDMDL
MODEL 9
REMARK VINA RESULT:    -5.350      3.316      9.673
REMARK INTER + INTRA:          -8.711
REMARK INTER:                  -7.561
REMARK INTRA:                  -1.150
REMARK UNBOUND:                -1.171
REMARK  Name = 
REMARK  9 active torsions:
REMARK  status: ('A' for Active; 'I' for Inactive)
REMARK    1  A    between atoms: C_1  and  O_2
REMARK    2  A    between atoms: O_2  and  C_3
REMARK    3  A    between atoms: C_10  and  C_11
REMARK    4  A    between atoms: N_13  and  C_14
REMARK    5  A    between atoms: C_14  and  C_15
REMARK    6  A    between atoms: C_18  and  N_19
REMARK    7  A    between atoms: N_19  and  C_20
REMARK    8  A    between atoms: C_20  and  C_21
REMARK    9  A    between atoms: N_25  and  C_26
REMARK                            x       y       z     vdW  Elec       q    Type
REMARK                         _______ _______ _______ _____ _____    ______ ____
ROOT
ATOM      1  C   UNL     1      47.491   3.335  16.748  0.00  0.00    +0.000 C 
ENDROOT
BRANCH   1   2
ATOM      2  C   UNL     1      48.963   3.351  17.060  0.00  0.00    +0.000 A 
ATOM      3  C   UNL     1      49.623   4.543  17.381  0.00  0.00    +0.000 A 
ATOM      4  C   UNL     1      50.986   4.541  17.718  0.00  0.00    +0.000 A 
ATOM      5  C   UNL     1      51.719   3.353  17.761  0.00  0.00    +0.000 A 
ATOM      6  C   UNL     1      51.067   2.179  17.356  0.00  0.00    +0.000 A 
ATOM      7  C   UNL     1      49.709   2.170  17.021  0.00  0.00    +0.000 A 
BRANCH   5   8
ATOM      8  N   UNL     1      53.086   3.280  18.042  0.00  0.00    +0.000 N 
ATOM      9  H   UNL     1      53.584   2.770  17.317  0.00  0.00    +0.000 HD
BRANCH   8  10
ATOM     10  C   UNL     1      53.555   2.930  19.387  0.00  0.00    +0.000 C 
BRANCH  10  11
ATOM     11  C   UNL     1      55.098   2.842  19.390  0.00  0.00    +0.000 C 
ATOM     12  C   UNL     1      55.621   1.657  20.219  0.00  0.00    +0.000 C 
ATOM     13  C   UNL     1      55.310   0.324  19.543  0.00  0.00    +0.000 C 
ATOM     14  C   UNL     1      55.775   0.308  18.085  0.00  0.00    +0.000 C 
ATOM     15  N   UNL     1      55.263   1.461  17.325  0.00  0.00    +0.000 NA
ATOM     16  C   UNL     1      55.741   1.408  15.943  0.00  0.00    +0.000 C 
ATOM     17  C   UNL     1      55.652   2.729  17.958  0.00  0.00    +0.000 C 
ENDBRANCH  10  11
ENDBRANCH   8  10
ENDBRANCH   5   8
ENDBRANCH   1   2
BRANCH   1  20
ATOM     18  C   UNL     1      46.954   4.200  14.525  0.00  0.00    +0.000 C 
ATOM     19  O   UNL     1      47.156   3.088  14.037  0.00  0.00    +0.000 OA
ATOM     20  N   UNL     1      47.106   4.413  15.869  0.00  0.00    +0.000 N 
ATOM     21  H   UNL     1      46.902   5.316  16.279  0.00  0.00    +0.000 HD
BRANCH  18  29
ATOM     22  C   UNL     1      44.156   4.892  12.627  0.00  0.00    +0.000 A 
ATOM     23  N   UNL     1      43.216   5.407  11.808  0.00  0.00    +0.000 NA
ATOM     24  C   UNL     1      43.440   6.607  11.266  0.00  0.00    +0.000 A 
ATOM     25  N   UNL     1      44.508   7.377  11.444  0.00  0.00    +0.000 NA
ATOM     26  C   UNL     1      45.425   6.824  12.256  0.00  0.00    +0.000 A 
ATOM     27  S   UNL     1      46.855   7.672  12.594  0.00  0.00    +0.000 S 
ATOM     28  C   UNL     1      47.420   6.416  13.585  0.00  0.00    +0.000 A 
ATOM     29  C   UNL     1      46.548   5.335  13.685  0.00  0.00    +0.000 A 
ATOM     30  C   UNL     1      45.350   5.585  12.889  0.00  0.00    +0.000 A 
BRANCH  22  32
ATOM     31  C   UNL     1      43.442   2.701  12.232  0.00  0.00    +0.000 C 
ATOM     32  O   UNL     1      43.925   3.650  13.183  0.00  0.00    +0.000 OA
ENDBRANCH  22  32
ENDBRANCH  18  29
ENDBRANCH   1  20
TORSDOF 7
ENDMDL
