MODEL 1
REMARK VINA RESULT:    -8.396      0.000      0.000
REMARK INTER + INTRA:         -14.072
REMARK INTER:                 -12.568
REMARK INTRA:                  -1.503
REMARK UNBOUND:                -1.503
REMARK  Name = 
REMARK  9 active torsions:
REMARK  status: ('A' for Active; 'I' for Inactive)
REMARK    1  A    between atoms: C_2  and  C_22
REMARK    2  A    between atoms: N_3  and  CA_4
REMARK    3  A    between atoms: CA_4  and  C_5
REMARK    4  A    between atoms: CA_4  and  C_7
REMARK    5  A    between atoms: C_5  and  O_6
REMARK    6  A    between atoms: C_10  and  C_11
REMARK    7  A    between atoms: C_11  and  N_12
REMARK    8  A    between atoms: N_12  and  C_13
REMARK    9  A    between atoms: C_13  and  C_14
REMARK                            x       y       z     vdW  Elec       q    Type
REMARK                         _______ _______ _______ _____ _____    ______ ____
ROOT
ATOM      1  CA  UNL     1      46.905   8.071  12.877  0.00  0.00    +0.000 C 
ENDROOT
BRANCH   1   2
ATOM      2  C   UNL     1      46.076   6.939  12.289  0.00  0.00    +0.000 A 
ATOM      3  C   UNL     1      46.385   6.345  11.068  0.00  0.00    +0.000 A 
ATOM      4  C   UNL     1      45.570   5.336  10.568  0.00  0.00    +0.000 A 
ATOM      5  C   UNL     1      44.487   4.882  11.316  0.00  0.00    +0.000 A 
ATOM      6  C   UNL     1      44.256   5.512  12.532  0.00  0.00    +0.000 A 
ATOM      7  N   UNL     1      45.015   6.519  13.027  0.00  0.00    +0.000 NA
BRANCH   5   8
ATOM      8  C   UNL     1      43.628   3.751  10.828  0.00  0.00    +0.000 C 
BRANCH   8   9
ATOM      9  N   UNL     1      43.956   3.438   9.435  0.00  0.00    +0.000 NA
ATOM     10  H   UNL     1      44.574   4.161   9.071  0.00  0.00    +0.000 HD
BRANCH   9  11
ATOM     11  C   UNL     1      44.593   2.132   9.309  0.00  0.00    +0.000 C 
BRANCH  11  12
ATOM     12  C   UNL     1      45.692   2.176   8.296  0.00  0.00    +0.000 A 
ATOM     13  C   UNL     1      46.024   3.325   7.608  0.00  0.00    +0.000 A 
ATOM     14  N   UNL     1      47.008   3.397   6.689  0.00  0.00    +0.000 NA
ATOM     15  C   UNL     1      47.677   2.255   6.467  0.00  0.00    +0.000 A 
ATOM     16  N   UNL     1      47.455   1.079   7.070  0.00  0.00    +0.000 NA
ATOM     17  C   UNL     1      46.456   1.069   7.977  0.00  0.00    +0.000 A 
ENDBRANCH  11  12
ENDBRANCH   9  11
ENDBRANCH   8   9
ENDBRANCH   5   8
ENDBRANCH   1   2
BRANCH   1  20
ATOM     18  O   UNL     1      49.322   6.694  13.722  0.00  0.00    +0.000 OA
ATOM     19  C   UNL     1      48.476   7.037  14.539  0.00  0.00    +0.000 C 
ATOM     20  N   UNL     1      47.402   7.830  14.236  0.00  0.00    +0.000 N 
ATOM     21  H   UNL     1      46.681   7.932  14.943  0.00  0.00    +0.000 HD
BRANCH  19  22
ATOM     22  C   UNL     1      48.551   6.516  15.902  0.00  0.00    +0.000 A 
ATOM     23  C   UNL     1      49.170   7.250  16.904  0.00  0.00    +0.000 A 
ATOM     24  S   UNL     1      49.523   6.313  18.288  0.00  0.00    +0.000 S 
ATOM     25  C   UNL     1      48.828   4.925  17.585  0.00  0.00    +0.000 A 
ATOM     26  N   UNL     1      48.931   3.701  18.170  0.00  0.00    +0.000 NA
ATOM     27  C   UNL     1      48.339   2.754  17.519  0.00  0.00    +0.000 A 
ATOM     28  N   UNL     1      47.605   2.926  16.371  0.00  0.00    +0.000 N 
ATOM     29  C   UNL     1      47.413   4.157  15.794  0.00  0.00    +0.000 A 
ATOM     30  O   UNL     1      46.597   4.335  14.898  0.00  0.00    +0.000 OA
ATOM     31  C   UNL     1      48.192   5.218  16.397  0.00  0.00    +0.000 A 
ATOM     32  H   UNL     1      47.072   2.166  15.977  0.00  0.00    +0.000 HD
ENDBRANCH  19  22
ENDBRANCH   1  20
BRANCH   1  33
ATOM     33  C   UNL     1      46.251   9.462  12.719  0.00  0.00    +0.000 C 
BRANCH  33  34
ATOM     34  O   UNL     1      44.829   9.377  12.888  0.00  0.00    +0.000 OA
ATOM     35  H   UNL     1      44.466  10.252  12.668  0.00  0.00    +0.000 HD
ENDBRANCH  33  34
ENDBRANCH   1  33
TORSDOF 9
ENDMDL
MODEL 2
REMARK VINA RESULT:    -7.623      1.925      2.255
REMARK INTER + INTRA:         -12.915
REMARK INTER:                 -11.636
REMARK INTRA:                  -1.279
REMARK UNBOUND:                -1.503
REMARK  Name = 
REMARK  9 active torsions:
REMARK  status: ('A' for Active; 'I' for Inactive)
REMARK    1  A    between atoms: C_2  and  C_22
REMARK    2  A    between atoms: N_3  and  CA_4
REMARK    3  A    between atoms: CA_4  and  C_5
REMARK    4  A    between atoms: CA_4  and  C_7
REMARK    5  A    between atoms: C_5  and  O_6
REMARK    6  A    between atoms: C_10  and  C_11
REMARK    7  A    between atoms: C_11  and  N_12
REMARK    8  A    between atoms: N_12  and  C_13
REMARK    9  A    between atoms: C_13  and  C_14
REMARK                            x       y       z     vdW  Elec       q    Type
REMARK                         _______ _______ _______ _____ _____    ______ ____
ROOT
ATOM      1  CA  UNL     1      48.250   6.625  13.691  0.00  0.00    +0.000 C 
ENDROOT
BRANCH   1   2
ATOM      2  C   UNL     1      46.953   6.119  13.077  0.00  0.00    +0.000 A 
ATOM      3  C   UNL     1      46.447   6.624  11.882  0.00  0.00    +0.000 A 
ATOM      4  C   UNL     1      45.240   6.143  11.388  0.00  0.00    +0.000 A 
ATOM      5  C   UNL     1      44.574   5.119  12.056  0.00  0.00    +0.000 A 
ATOM      6  C   UNL     1      45.152   4.656  13.231  0.00  0.00    +0.000 A 
ATOM      7  N   UNL     1      46.310   5.129  13.751  0.00  0.00    +0.000 NA
BRANCH   5   8
ATOM      8  C   UNL     1      43.300   4.538  11.511  0.00  0.00    +0.000 C 
BRANCH   8   9
ATOM      9  N   UNL     1      43.507   4.084  10.134  0.00  0.00    +0.000 NA
ATOM     10  H   UNL     1      44.002   4.809   9.618  0.00  0.00    +0.000 HD
BRANCH   9  11
ATOM     11  C   UNL     1      44.261   2.837  10.082  0.00  0.00    +0.000 C 
BRANCH  11  12
ATOM     12  C   UNL     1      45.247   2.861   8.958  0.00  0.00    +0.000 A 
ATOM     13  C   UNL     1      45.597   4.023   8.301  0.00  0.00    +0.000 A 
ATOM     14  N   UNL     1      46.481   4.079   7.285  0.00  0.00    +0.000 NA
ATOM     15  C   UNL     1      47.028   2.906   6.929  0.00  0.00    +0.000 A 
ATOM     16  N   UNL     1      46.776   1.715   7.489  0.00  0.00    +0.000 NA
ATOM     17  C   UNL     1      45.881   1.722   8.498  0.00  0.00    +0.000 A 
ENDBRANCH  11  12
ENDBRANCH   9  11
ENDBRANCH   8   9
ENDBRANCH   5   8
ENDBRANCH   1   2
BRANCH   1  20
ATOM     18  O   UNL     1      50.119   6.272  15.889  0.00  0.00    +0.000 OA
ATOM     19  C   UNL     1      49.002   6.736  16.083  0.00  0.00    +0.000 C 
ATOM     20  N   UNL     1      48.137   7.082  15.080  0.00  0.00    +0.000 N 
ATOM     21  H   UNL     1      47.184   7.315  15.342  0.00  0.00    +0.000 HD
BRANCH  19  22
ATOM     22  C   UNL     1      48.511   6.859  17.453  0.00  0.00    +0.000 A 
ATOM     23  C   UNL     1      48.264   8.109  18.004  0.00  0.00    +0.000 A 
ATOM     24  S   UNL     1      48.110   8.063  19.704  0.00  0.00    +0.000 S 
ATOM     25  C   UNL     1      48.339   6.375  19.729  0.00  0.00    +0.000 A 
ATOM     26  N   UNL     1      48.486   5.691  20.896  0.00  0.00    +0.000 NA
ATOM     27  C   UNL     1      48.637   4.416  20.745  0.00  0.00    +0.000 A 
ATOM     28  N   UNL     1      48.595   3.756  19.542  0.00  0.00    +0.000 N 
ATOM     29  C   UNL     1      48.371   4.400  18.350  0.00  0.00    +0.000 A 
ATOM     30  O   UNL     1      48.130   3.790  17.316  0.00  0.00    +0.000 OA
ATOM     31  C   UNL     1      48.359   5.844  18.456  0.00  0.00    +0.000 A 
ATOM     32  H   UNL     1      48.603   2.748  19.503  0.00  0.00    +0.000 HD
ENDBRANCH  19  22
ENDBRANCH   1  20
BRANCH   1  33
ATOM     33  C   UNL     1      49.009   7.626  12.792  0.00  0.00    +0.000 C 
BRANCH  33  34
ATOM     34  O   UNL     1      50.164   7.008  12.206  0.00  0.00    +0.000 OA
ATOM     35  H   UNL     1      50.348   7.485  11.378  0.00  0.00    +0.000 HD
ENDBRANCH  33  34
ENDBRANCH   1  33
TORSDOF 9
ENDMDL
MODEL 3
REMARK VINA RESULT:    -7.508      2.022      2.737
REMARK INTER + INTRA:         -12.742
REMARK INTER:                 -11.493
REMARK INTRA:                  -1.249
REMARK UNBOUND:                -1.503
REMARK  Name = 
REMARK  9 active torsions:
REMARK  status: ('A' for Active; 'I' for Inactive)
REMARK    1  A    between atoms: C_2  and  C_22
REMARK    2  A    between atoms: N_3  and  CA_4
REMARK    3  A    between atoms: CA_4  and  C_5
REMARK    4  A    between atoms: CA_4  and  C_7
REMARK    5  A    between atoms: C_5  and  O_6
REMARK    6  A    between atoms: C_10  and  C_11
REMARK    7  A    between atoms: C_11  and  N_12
REMARK    8  A    between atoms: N_12  and  C_13
REMARK    9  A    between atoms: C_13  and  C_14
REMARK                            x       y       z     vdW  Elec       q    Type
REMARK                         _______ _______ _______ _____ _____    ______ ____
ROOT
ATOM      1  CA  UNL     1      47.704   6.769  13.787  0.00  0.00    +0.000 C 
ENDROOT
BRANCH   1   2
ATOM      2  C   UNL     1      46.591   5.979  13.114  0.00  0.00    +0.000 A 
ATOM      3  C   UNL     1      46.407   4.616  13.332  0.00  0.00    +0.000 A 
ATOM      4  C   UNL     1      45.391   3.943  12.664  0.00  0.00    +0.000 A 
ATOM      5  C   UNL     1      44.526   4.644  11.828  0.00  0.00    +0.000 A 
ATOM      6  C   UNL     1      44.762   6.004  11.678  0.00  0.00    +0.000 A 
ATOM      7  N   UNL     1      45.764   6.678  12.292  0.00  0.00    +0.000 NA
BRANCH   5   8
ATOM      8  C   UNL     1      43.381   3.953  11.143  0.00  0.00    +0.000 C 
BRANCH   8   9
ATOM      9  N   UNL     1      43.891   3.035  10.121  0.00  0.00    +0.000 NA
ATOM     10  H   UNL     1      43.127   2.442   9.800  0.00  0.00    +0.000 HD
BRANCH   9  11
ATOM     11  C   UNL     1      44.472   3.750   8.991  0.00  0.00    +0.000 C 
BRANCH  11  12
ATOM     12  C   UNL     1      45.518   2.918   8.321  0.00  0.00    +0.000 A 
ATOM     13  C   UNL     1      45.661   1.567   8.561  0.00  0.00    +0.000 A 
ATOM     14  N   UNL     1      46.593   0.790   7.974  0.00  0.00    +0.000 NA
ATOM     15  C   UNL     1      47.407   1.416   7.109  0.00  0.00    +0.000 A 
ATOM     16  N   UNL     1      47.368   2.716   6.788  0.00  0.00    +0.000 NA
ATOM     17  C   UNL     1      46.417   3.442   7.410  0.00  0.00    +0.000 A 
ENDBRANCH  11  12
ENDBRANCH   9  11
ENDBRANCH   8   9
ENDBRANCH   5   8
ENDBRANCH   1   2
BRANCH   1  20
ATOM     18  O   UNL     1      50.127   6.707  15.391  0.00  0.00    +0.000 OA
ATOM     19  C   UNL     1      49.051   6.363  15.865  0.00  0.00    +0.000 C 
ATOM     20  N   UNL     1      47.852   6.524  15.225  0.00  0.00    +0.000 N 
ATOM     21  H   UNL     1      47.039   6.072  15.633  0.00  0.00    +0.000 HD
BRANCH  19  22
ATOM     22  C   UNL     1      49.029   5.667  17.149  0.00  0.00    +0.000 A 
ATOM     23  C   UNL     1      49.049   4.280  17.200  0.00  0.00    +0.000 A 
ATOM     24  S   UNL     1      48.598   3.669  18.730  0.00  0.00    +0.000 S 
ATOM     25  C   UNL     1      48.401   5.241  19.355  0.00  0.00    +0.000 A 
ATOM     26  N   UNL     1      47.865   5.459  20.586  0.00  0.00    +0.000 NA
ATOM     27  C   UNL     1      47.796   6.706  20.919  0.00  0.00    +0.000 A 
ATOM     28  N   UNL     1      48.267   7.750  20.162  0.00  0.00    +0.000 N 
ATOM     29  C   UNL     1      48.884   7.566  18.950  0.00  0.00    +0.000 A 
ATOM     30  O   UNL     1      49.482   8.472  18.380  0.00  0.00    +0.000 OA
ATOM     31  C   UNL     1      48.836   6.202  18.466  0.00  0.00    +0.000 A 
ATOM     32  H   UNL     1      48.288   8.689  20.530  0.00  0.00    +0.000 HD
ENDBRANCH  19  22
ENDBRANCH   1  20
BRANCH   1  33
ATOM     33  C   UNL     1      47.691   8.274  13.437  0.00  0.00    +0.000 C 
BRANCH  33  34
ATOM     34  O   UNL     1      46.611   8.942  14.106  0.00  0.00    +0.000 OA
ATOM     35  H   UNL     1      45.799   8.455  13.885  0.00  0.00    +0.000 HD
ENDBRANCH  33  34
ENDBRANCH   1  33
TORSDOF 9
ENDMDL
MODEL 4
REMARK VINA RESULT:    -6.850      2.562      7.663
REMARK INTER + INTRA:         -11.757
REMARK INTER:                 -10.139
REMARK INTRA:                  -1.618
REMARK UNBOUND:                -1.503
REMARK  Name = 
REMARK  9 active torsions:
REMARK  status: ('A' for Active; 'I' for Inactive)
REMARK    1  A    between atoms: C_2  and  C_22
REMARK    2  A    between atoms: N_3  and  CA_4
REMARK    3  A    between atoms: CA_4  and  C_5
REMARK    4  A    between atoms: CA_4  and  C_7
REMARK    5  A    between atoms: C_5  and  O_6
REMARK    6  A    between atoms: C_10  and  C_11
REMARK    7  A    between atoms: C_11  and  N_12
REMARK    8  A    between atoms: N_12  and  C_13
REMARK    9  A    between atoms: C_13  and  C_14
REMARK                            x       y       z     vdW  Elec       q    Type
REMARK                         _______ _______ _______ _____ _____    ______ ____
ROOT
ATOM      1  CA  UNL     1      48.260   7.625  12.149  0.00  0.00    +0.000 C 
ENDROOT
BRANCH   1   2
ATOM      2  C   UNL     1      48.415   7.713  13.660  0.00  0.00    +0.000 A 
ATOM      3  C   UNL     1      47.987   8.818  14.392  0.00  0.00    +0.000 A 
ATOM      4  C   UNL     1      48.185   8.852  15.767  0.00  0.00    +0.000 A 
ATOM      5  C   UNL     1      48.755   7.759  16.414  0.00  0.00    +0.000 A 
ATOM      6  C   UNL     1      49.137   6.687  15.618  0.00  0.00    +0.000 A 
ATOM      7  N   UNL     1      48.985   6.642  14.273  0.00  0.00    +0.000 NA
BRANCH   5   8
ATOM      8  C   UNL     1      48.923   7.743  17.907  0.00  0.00    +0.000 C 
BRANCH   8   9
ATOM      9  N   UNL     1      47.775   7.083  18.533  0.00  0.00    +0.000 NA
ATOM     10  H   UNL     1      47.088   6.863  17.814  0.00  0.00    +0.000 HD
BRANCH   9  11
ATOM     11  C   UNL     1      48.166   5.866  19.234  0.00  0.00    +0.000 C 
BRANCH  11  12
ATOM     12  C   UNL     1      48.251   4.713  18.285  0.00  0.00    +0.000 A 
ATOM     13  C   UNL     1      47.169   4.274  17.550  0.00  0.00    +0.000 A 
ATOM     14  N   UNL     1      47.213   3.238  16.687  0.00  0.00    +0.000 NA
ATOM     15  C   UNL     1      48.405   2.632  16.571  0.00  0.00    +0.000 A 
ATOM     16  N   UNL     1      49.527   2.964  17.224  0.00  0.00    +0.000 NA
ATOM     17  C   UNL     1      49.420   4.005  18.075  0.00  0.00    +0.000 A 
ENDBRANCH  11  12
ENDBRANCH   9  11
ENDBRANCH   8   9
ENDBRANCH   5   8
ENDBRANCH   1   2
BRANCH   1  20
ATOM     18  O   UNL     1      45.465   8.218  11.615  0.00  0.00    +0.000 OA
ATOM     19  C   UNL     1      45.873   7.063  11.612  0.00  0.00    +0.000 C 
ATOM     20  N   UNL     1      47.198   6.725  11.690  0.00  0.00    +0.000 N 
ATOM     21  H   UNL     1      47.423   5.745  11.832  0.00  0.00    +0.000 HD
BRANCH  19  22
ATOM     22  C   UNL     1      44.908   5.967  11.609  0.00  0.00    +0.000 A 
ATOM     23  C   UNL     1      44.036   5.791  12.674  0.00  0.00    +0.000 A 
ATOM     24  S   UNL     1      43.301   4.249  12.679  0.00  0.00    +0.000 S 
ATOM     25  C   UNL     1      44.109   3.805  11.246  0.00  0.00    +0.000 A 
ATOM     26  N   UNL     1      44.062   2.534  10.764  0.00  0.00    +0.000 NA
ATOM     27  C   UNL     1      44.714   2.363   9.661  0.00  0.00    +0.000 A 
ATOM     28  N   UNL     1      45.360   3.356   8.967  0.00  0.00    +0.000 N 
ATOM     29  C   UNL     1      45.365   4.665   9.380  0.00  0.00    +0.000 A 
ATOM     30  O   UNL     1      45.762   5.573   8.658  0.00  0.00    +0.000 OA
ATOM     31  C   UNL     1      44.786   4.871  10.690  0.00  0.00    +0.000 A 
ATOM     32  H   UNL     1      45.752   3.180   8.054  0.00  0.00    +0.000 HD
ENDBRANCH  19  22
ENDBRANCH   1  20
BRANCH   1  33
ATOM     33  C   UNL     1      49.595   7.403  11.403  0.00  0.00    +0.000 C 
BRANCH  33  34
ATOM     34  O   UNL     1      50.709   7.611  12.283  0.00  0.00    +0.000 OA
ATOM     35  H   UNL     1      50.351   7.647  13.187  0.00  0.00    +0.000 HD
ENDBRANCH  33  34
ENDBRANCH   1  33
TORSDOF 9
ENDMDL
MODEL 5
REMARK VINA RESULT:    -6.806      2.788      4.086
REMARK INTER + INTRA:         -11.692
REMARK INTER:                 -10.522
REMARK INTRA:                  -1.170
REMARK UNBOUND:                -1.503
REMARK  Name = 
REMARK  9 active torsions:
REMARK  status: ('A' for Active; 'I' for Inactive)
REMARK    1  A    between atoms: C_2  and  C_22
REMARK    2  A    between atoms: N_3  and  CA_4
REMARK    3  A    between atoms: CA_4  and  C_5
REMARK    4  A    between atoms: CA_4  and  C_7
REMARK    5  A    between atoms: C_5  and  O_6
REMARK    6  A    between atoms: C_10  and  C_11
REMARK    7  A    between atoms: C_11  and  N_12
REMARK    8  A    between atoms: N_12  and  C_13
REMARK    9  A    between atoms: C_13  and  C_14
REMARK                            x       y       z     vdW  Elec       q    Type
REMARK                         _______ _______ _______ _____ _____    ______ ____
ROOT
ATOM      1  CA  UNL     1      47.487   5.191  15.522  0.00  0.00    +0.000 C 
ENDROOT
BRANCH   1   2
ATOM      2  C   UNL     1      46.693   5.215  14.224  0.00  0.00    +0.000 A 
ATOM      3  C   UNL     1      46.802   6.253  13.302  0.00  0.00    +0.000 A 
ATOM      4  C   UNL     1      46.026   6.234  12.149  0.00  0.00    +0.000 A 
ATOM      5  C   UNL     1      45.191   5.149  11.891  0.00  0.00    +0.000 A 
ATOM      6  C   UNL     1      45.153   4.144  12.849  0.00  0.00    +0.000 A 
ATOM      7  N   UNL     1      45.874   4.154  13.996  0.00  0.00    +0.000 NA
BRANCH   5   8
ATOM      8  C   UNL     1      44.390   5.073  10.623  0.00  0.00    +0.000 C 
BRANCH   8   9
ATOM      9  N   UNL     1      45.286   4.937   9.473  0.00  0.00    +0.000 NA
ATOM     10  H   UNL     1      46.178   4.562   9.791  0.00  0.00    +0.000 HD
BRANCH   9  11
ATOM     11  C   UNL     1      44.721   4.070   8.445  0.00  0.00    +0.000 C 
BRANCH  11  12
ATOM     12  C   UNL     1      45.730   3.064   7.989  0.00  0.00    +0.000 A 
ATOM     13  C   UNL     1      46.760   3.381   7.129  0.00  0.00    +0.000 A 
ATOM     14  N   UNL     1      47.684   2.498   6.699  0.00  0.00    +0.000 NA
ATOM     15  C   UNL     1      47.551   1.248   7.168  0.00  0.00    +0.000 A 
ATOM     16  N   UNL     1      46.600   0.816   8.008  0.00  0.00    +0.000 NA
ATOM     17  C   UNL     1      45.703   1.744   8.400  0.00  0.00    +0.000 A 
ENDBRANCH  11  12
ENDBRANCH   9  11
ENDBRANCH   8   9
ENDBRANCH   5   8
ENDBRANCH   1   2
BRANCH   1  20
ATOM     18  O   UNL     1      48.540   6.911  17.615  0.00  0.00    +0.000 OA
ATOM     19  C   UNL     1      49.036   6.910  16.495  0.00  0.00    +0.000 C 
ATOM     20  N   UNL     1      48.702   6.012  15.517  0.00  0.00    +0.000 N 
ATOM     21  H   UNL     1      49.056   6.187  14.581  0.00  0.00    +0.000 HD
BRANCH  19  22
ATOM     22  C   UNL     1      49.979   7.964  16.133  0.00  0.00    +0.000 A 
ATOM     23  C   UNL     1      49.536   9.260  15.906  0.00  0.00    +0.000 A 
ATOM     24  S   UNL     1      50.693  10.223  15.100  0.00  0.00    +0.000 S 
ATOM     25  C   UNL     1      51.813   8.939  15.070  0.00  0.00    +0.000 A 
ATOM     26  N   UNL     1      52.979   9.024  14.374  0.00  0.00    +0.000 NA
ATOM     27  C   UNL     1      53.725   7.972  14.464  0.00  0.00    +0.000 A 
ATOM     28  N   UNL     1      53.441   6.869  15.230  0.00  0.00    +0.000 N 
ATOM     29  C   UNL     1      52.312   6.777  16.007  0.00  0.00    +0.000 A 
ATOM     30  O   UNL     1      52.166   5.890  16.839  0.00  0.00    +0.000 OA
ATOM     31  C   UNL     1      51.373   7.861  15.810  0.00  0.00    +0.000 A 
ATOM     32  H   UNL     1      54.119   6.131  15.348  0.00  0.00    +0.000 HD
ENDBRANCH  19  22
ENDBRANCH   1  20
BRANCH   1  33
ATOM     33  C   UNL     1      47.732   3.767  16.069  0.00  0.00    +0.000 C 
BRANCH  33  34
ATOM     34  O   UNL     1      46.643   3.349  16.905  0.00  0.00    +0.000 OA
ATOM     35  H   UNL     1      46.003   4.081  16.919  0.00  0.00    +0.000 HD
ENDBRANCH  33  34
ENDBRANCH   1  33
TORSDOF 9
ENDMDL
MODEL 6
REMARK VINA RESULT:    -6.615      2.407      2.921
REMARK INTER + INTRA:         -11.405
REMARK INTER:                 -10.803
REMARK INTRA:                  -0.602
REMARK UNBOUND:                -1.503
REMARK  Name = 
REMARK  9 active torsions:
REMARK  status: ('A' for Active; 'I' for Inactive)
REMARK    1  A    between atoms: C_2  and  C_22
REMARK    2  A    between atoms: N_3  and  CA_4
REMARK    3  A    between atoms: CA_4  and  C_5
REMARK    4  A    between atoms: CA_4  and  C_7
REMARK    5  A    between atoms: C_5  and  O_6
REMARK    6  A    between atoms: C_10  and  C_11
REMARK    7  A    between atoms: C_11  and  N_12
REMARK    8  A    between atoms: N_12  and  C_13
REMARK    9  A    between atoms: C_13  and  C_14
REMARK                            x       y       z     vdW  Elec       q    Type
REMARK                         _______ _______ _______ _____ _____    ______ ____
ROOT
ATOM      1  CA  UNL     1      48.864   7.457  13.989  0.00  0.00    +0.000 C 
ENDROOT
BRANCH   1   2
ATOM      2  C   UNL     1      47.633   6.680  13.547  0.00  0.00    +0.000 A 
ATOM      3  C   UNL     1      46.552   7.291  12.914  0.00  0.00    +0.000 A 
ATOM      4  C   UNL     1      45.442   6.532  12.562  0.00  0.00    +0.000 A 
ATOM      5  C   UNL     1      45.439   5.158  12.788  0.00  0.00    +0.000 A 
ATOM      6  C   UNL     1      46.561   4.621  13.405  0.00  0.00    +0.000 A 
ATOM      7  N   UNL     1      47.642   5.342  13.787  0.00  0.00    +0.000 NA
BRANCH   5   8
ATOM      8  C   UNL     1      44.278   4.305  12.361  0.00  0.00    +0.000 C 
BRANCH   8   9
ATOM      9  N   UNL     1      44.766   3.074  11.735  0.00  0.00    +0.000 NA
ATOM     10  H   UNL     1      44.648   2.302  12.389  0.00  0.00    +0.000 HD
BRANCH   9  11
ATOM     11  C   UNL     1      44.062   2.783  10.492  0.00  0.00    +0.000 C 
BRANCH  11  12
ATOM     12  C   UNL     1      44.971   2.957   9.316  0.00  0.00    +0.000 A 
ATOM     13  C   UNL     1      45.598   1.895   8.698  0.00  0.00    +0.000 A 
ATOM     14  N   UNL     1      46.422   2.018   7.638  0.00  0.00    +0.000 NA
ATOM     15  C   UNL     1      46.610   3.271   7.194  0.00  0.00    +0.000 A 
ATOM     16  N   UNL     1      46.058   4.380   7.704  0.00  0.00    +0.000 NA
ATOM     17  C   UNL     1      45.246   4.194   8.764  0.00  0.00    +0.000 A 
ENDBRANCH  11  12
ENDBRANCH   9  11
ENDBRANCH   8   9
ENDBRANCH   5   8
ENDBRANCH   1   2
BRANCH   1  20
ATOM     18  O   UNL     1      48.546   6.715  16.781  0.00  0.00    +0.000 OA
ATOM     19  C   UNL     1      49.612   6.544  16.204  0.00  0.00    +0.000 C 
ATOM     20  N   UNL     1      49.784   6.713  14.856  0.00  0.00    +0.000 N 
ATOM     21  H   UNL     1      50.734   6.693  14.498  0.00  0.00    +0.000 HD
BRANCH  19  22
ATOM     22  C   UNL     1      50.802   6.219  16.987  0.00  0.00    +0.000 A 
ATOM     23  C   UNL     1      51.800   7.164  17.179  0.00  0.00    +0.000 A 
ATOM     24  S   UNL     1      53.259   6.479  17.742  0.00  0.00    +0.000 S 
ATOM     25  C   UNL     1      52.575   4.919  17.768  0.00  0.00    +0.000 A 
ATOM     26  N   UNL     1      53.329   3.811  18.003  0.00  0.00    +0.000 NA
ATOM     27  C   UNL     1      52.658   2.706  18.003  0.00  0.00    +0.000 A 
ATOM     28  N   UNL     1      51.297   2.611  17.848  0.00  0.00    +0.000 N 
ATOM     29  C   UNL     1      50.492   3.712  17.686  0.00  0.00    +0.000 A 
ATOM     30  O   UNL     1      49.271   3.640  17.755  0.00  0.00    +0.000 OA
ATOM     31  C   UNL     1      51.218   4.952  17.518  0.00  0.00    +0.000 A 
ATOM     32  H   UNL     1      50.821   1.731  17.974  0.00  0.00    +0.000 HD
ENDBRANCH  19  22
ENDBRANCH   1  20
BRANCH   1  33
ATOM     33  C   UNL     1      48.542   8.867  14.531  0.00  0.00    +0.000 C 
BRANCH  33  34
ATOM     34  O   UNL     1      47.357   8.843  15.339  0.00  0.00    +0.000 OA
ATOM     35  H   UNL     1      47.646   8.920  16.265  0.00  0.00    +0.000 HD
ENDBRANCH  33  34
ENDBRANCH   1  33
TORSDOF 9
ENDMDL
MODEL 7
REMARK VINA RESULT:    -6.482      3.769      8.198
REMARK INTER + INTRA:         -11.206
REMARK INTER:                  -9.646
REMARK INTRA:                  -1.560
REMARK UNBOUND:                -1.503
REMARK  Name = 
REMARK  9 active torsions:
REMARK  status: ('A' for Active; 'I' for Inactive)
REMARK    1  A    between atoms: C_2  and  C_22
REMARK    2  A    between atoms: N_3  and  CA_4
REMARK    3  A    between atoms: CA_4  and  C_5
REMARK    4  A    between atoms: CA_4  and  C_7
REMARK    5  A    between atoms: C_5  and  O_6
REMARK    6  A    between atoms: C_10  and  C_11
REMARK    7  A    between atoms: C_11  and  N_12
REMARK    8  A    between atoms: N_12  and  C_13
REMARK    9  A    between atoms: C_13  and  C_14
REMARK                            x       y       z     vdW  Elec       q    Type
REMARK                         _______ _______ _______ _____ _____    ______ ____
ROOT
ATOM      1  CA  UNL     1      47.897   4.701  16.583  0.00  0.00    +0.000 C 
ENDROOT
BRANCH   1   2
ATOM      2  C   UNL     1      48.910   5.785  16.920  0.00  0.00    +0.000 A 
ATOM      3  C   UNL     1      48.776   6.613  18.033  0.00  0.00    +0.000 A 
ATOM      4  C   UNL     1      49.719   7.606  18.270  0.00  0.00    +0.000 A 
ATOM      5  C   UNL     1      50.824   7.730  17.432  0.00  0.00    +0.000 A 
ATOM      6  C   UNL     1      50.897   6.855  16.356  0.00  0.00    +0.000 A 
ATOM      7  N   UNL     1      49.976   5.900  16.083  0.00  0.00    +0.000 NA
BRANCH   5   8
ATOM      8  C   UNL     1      51.890   8.753  17.702  0.00  0.00    +0.000 C 
BRANCH   8   9
ATOM      9  N   UNL     1      52.097   9.584  16.513  0.00  0.00    +0.000 NA
ATOM     10  H   UNL     1      52.140   8.982  15.692  0.00  0.00    +0.000 HD
BRANCH   9  11
ATOM     11  C   UNL     1      51.037  10.571  16.350  0.00  0.00    +0.000 C 
BRANCH  11  12
ATOM     12  C   UNL     1      50.281  10.331  15.082  0.00  0.00    +0.000 A 
ATOM     13  C   UNL     1      50.824  10.571  13.836  0.00  0.00    +0.000 A 
ATOM     14  N   UNL     1      50.170  10.365  12.675  0.00  0.00    +0.000 NA
ATOM     15  C   UNL     1      48.918   9.896  12.792  0.00  0.00    +0.000 A 
ATOM     16  N   UNL     1      48.282   9.620  13.939  0.00  0.00    +0.000 NA
ATOM     17  C   UNL     1      48.986   9.848  15.066  0.00  0.00    +0.000 A 
ENDBRANCH  11  12
ENDBRANCH   9  11
ENDBRANCH   8   9
ENDBRANCH   5   8
ENDBRANCH   1   2
BRANCH   1  20
ATOM     18  O   UNL     1      47.479   3.403  14.016  0.00  0.00    +0.000 OA
ATOM     19  C   UNL     1      46.935   4.470  14.277  0.00  0.00    +0.000 C 
ATOM     20  N   UNL     1      46.953   5.050  15.516  0.00  0.00    +0.000 N 
ATOM     21  H   UNL     1      46.605   6.001  15.594  0.00  0.00    +0.000 HD
BRANCH  19  22
ATOM     22  C   UNL     1      46.294   5.223  13.202  0.00  0.00    +0.000 A 
ATOM     23  C   UNL     1      46.815   6.440  12.785  0.00  0.00    +0.000 A 
ATOM     24  S   UNL     1      45.714   7.343  11.842  0.00  0.00    +0.000 S 
ATOM     25  C   UNL     1      44.540   6.113  11.948  0.00  0.00    +0.000 A 
ATOM     26  N   UNL     1      43.271   6.295  11.491  0.00  0.00    +0.000 NA
ATOM     27  C   UNL     1      42.506   5.263  11.632  0.00  0.00    +0.000 A 
ATOM     28  N   UNL     1      42.907   4.049  12.132  0.00  0.00    +0.000 N 
ATOM     29  C   UNL     1      44.197   3.801  12.531  0.00  0.00    +0.000 A 
ATOM     30  O   UNL     1      44.595   2.669  12.780  0.00  0.00    +0.000 OA
ATOM     31  C   UNL     1      45.044   4.975  12.543  0.00  0.00    +0.000 A 
ATOM     32  H   UNL     1      42.292   3.249  12.108  0.00  0.00    +0.000 HD
ENDBRANCH  19  22
ENDBRANCH   1  20
BRANCH   1  33
ATOM     33  C   UNL     1      47.200   4.101  17.824  0.00  0.00    +0.000 C 
BRANCH  33  34
ATOM     34  O   UNL     1      46.444   2.934  17.467  0.00  0.00    +0.000 OA
ATOM     35  H   UNL     1      46.968   2.163  17.747  0.00  0.00    +0.000 HD
ENDBRANCH  33  34
ENDBRANCH   1  33
TORSDOF 9
ENDMDL
MODEL 8
REMARK VINA RESULT:    -6.413      3.197      7.977
REMARK INTER + INTRA:         -11.103
REMARK INTER:                  -9.956
REMARK INTRA:                  -1.147
REMARK UNBOUND:                -1.503
REMARK  Name = 
REMARK  9 active torsions:
REMARK  status: ('A' for Active; 'I' for Inactive)
REMARK    1  A    between atoms: C_2  and  C_22
REMARK    2  A    between atoms: N_3  and  CA_4
REMARK    3  A    between atoms: CA_4  and  C_5
REMARK    4  A    between atoms: CA_4  and  C_7
REMARK    5  A    between atoms: C_5  and  O_6
REMARK    6  A    between atoms: C_10  and  C_11
REMARK    7  A    between atoms: C_11  and  N_12
REMARK    8  A    between atoms: N_12  and  C_13
REMARK    9  A    between atoms: C_13  and  C_14
REMARK                            x       y       z     vdW  Elec       q    Type
REMARK                         _______ _______ _______ _____ _____    ______ ____
ROOT
ATOM      1  CA  UNL     1      46.903   8.318  13.026  0.00  0.00    +0.000 C 
ENDROOT
BRANCH   1   2
ATOM      2  C   UNL     1      47.788   7.900  14.190  0.00  0.00    +0.000 A 
ATOM      3  C   UNL     1      48.412   8.826  15.023  0.00  0.00    +0.000 A 
ATOM      4  C   UNL     1      49.235   8.382  16.052  0.00  0.00    +0.000 A 
ATOM      5  C   UNL     1      49.382   7.016  16.284  0.00  0.00    +0.000 A 
ATOM      6  C   UNL     1      48.712   6.157  15.423  0.00  0.00    +0.000 A 
ATOM      7  N   UNL     1      47.931   6.563  14.393  0.00  0.00    +0.000 NA
BRANCH   5   8
ATOM      8  C   UNL     1      50.215   6.510  17.427  0.00  0.00    +0.000 C 
BRANCH   8   9
ATOM      9  N   UNL     1      50.699   5.159  17.134  0.00  0.00    +0.000 NA
ATOM     10  H   UNL     1      51.046   5.134  16.176  0.00  0.00    +0.000 HD
BRANCH   9  11
ATOM     11  C   UNL     1      51.753   4.749  18.054  0.00  0.00    +0.000 C 
BRANCH  11  12
ATOM     12  C   UNL     1      51.974   3.272  17.980  0.00  0.00    +0.000 A 
ATOM     13  C   UNL     1      53.089   2.660  18.515  0.00  0.00    +0.000 A 
ATOM     14  N   UNL     1      53.318   1.332  18.465  0.00  0.00    +0.000 NA
ATOM     15  C   UNL     1      52.374   0.605  17.848  0.00  0.00    +0.000 A 
ATOM     16  N   UNL     1      51.249   1.078  17.294  0.00  0.00    +0.000 NA
ATOM     17  C   UNL     1      51.077   2.413  17.373  0.00  0.00    +0.000 A 
ENDBRANCH  11  12
ENDBRANCH   9  11
ENDBRANCH   8   9
ENDBRANCH   5   8
ENDBRANCH   1   2
BRANCH   1  20
ATOM     18  O   UNL     1      44.549   7.748  11.418  0.00  0.00    +0.000 OA
ATOM     19  C   UNL     1      45.520   7.001  11.396  0.00  0.00    +0.000 C 
ATOM     20  N   UNL     1      46.717   7.292  11.994  0.00  0.00    +0.000 N 
ATOM     21  H   UNL     1      47.406   6.549  12.048  0.00  0.00    +0.000 HD
BRANCH  19  22
ATOM     22  C   UNL     1      45.393   5.686  10.774  0.00  0.00    +0.000 A 
ATOM     23  C   UNL     1      45.644   5.519   9.419  0.00  0.00    +0.000 A 
ATOM     24  S   UNL     1      45.043   4.040   8.813  0.00  0.00    +0.000 S 
ATOM     25  C   UNL     1      44.469   3.586  10.351  0.00  0.00    +0.000 A 
ATOM     26  N   UNL     1      43.693   2.482  10.527  0.00  0.00    +0.000 NA
ATOM     27  C   UNL     1      43.351   2.267  11.754  0.00  0.00    +0.000 A 
ATOM     28  N   UNL     1      43.759   3.019  12.828  0.00  0.00    +0.000 N 
ATOM     29  C   UNL     1      44.604   4.094  12.701  0.00  0.00    +0.000 A 
ATOM     30  O   UNL     1      45.126   4.630  13.672  0.00  0.00    +0.000 OA
ATOM     31  C   UNL     1      44.880   4.467  11.330  0.00  0.00    +0.000 A 
ATOM     32  H   UNL     1      43.552   2.731  13.773  0.00  0.00    +0.000 HD
ENDBRANCH  19  22
ENDBRANCH   1  20
BRANCH   1  33
ATOM     33  C   UNL     1      47.269   9.698  12.437  0.00  0.00    +0.000 C 
BRANCH  33  34
ATOM     34  O   UNL     1      46.090  10.489  12.224  0.00  0.00    +0.000 OA
ATOM     35  H   UNL     1      45.401   9.884  11.898  0.00  0.00    +0.000 HD
ENDBRANCH  33  34
ENDBRANCH   1  33
TORSDOF 9
ENDMDL
MODEL 9
REMARK VINA RESULT:    -5.784      4.475      7.136
REMARK INTER + INTRA:         -10.161
REMARK INTER:                  -9.253
REMARK INTRA:                  -0.908
REMARK UNBOUND:                -1.503
REMARK  Name = 
REMARK  9 active torsions:
REMARK  status: ('A' for Active; 'I' for Inactive)
REMARK    1  A    between atoms: C_2  and  C_22
REMARK    2  A    between atoms: N_3  and  CA_4
REMARK    3  A    between atoms: CA_4  and  C_5
REMARK    4  A    between atoms: CA_4  and  C_7
REMARK    5  A    between atoms: C_5  and  O_6
REMARK    6  A    between atoms: C_10  and  C_11
REMARK    7  A    between atoms: C_11  and  N_12
REMARK    8  A    between atoms: N_12  and  C_13
REMARK    9  A    between atoms: C_13  and  C_14
REMARK                            x       y       z     vdW  Elec       q    Type
REMARK                         _______ _______ _______ _____ _____    ______ ____
ROOT
ATOM      1  CA  UNL     1      47.048   7.230  13.291  0.00  0.00    +0.000 C 
ENDROOT
BRANCH   1   2
ATOM      2  C   UNL     1      48.489   7.583  12.954  0.00  0.00    +0.000 A 
ATOM      3  C   UNL     1      49.429   7.895  13.934  0.00  0.00    +0.000 A 
ATOM      4  C   UNL     1      50.723   8.240  13.561  0.00  0.00    +0.000 A 
ATOM      5  C   UNL     1      51.090   8.213  12.218  0.00  0.00    +0.000 A 
ATOM      6  C   UNL     1      50.101   7.873  11.303  0.00  0.00    +0.000 A 
ATOM      7  N   UNL     1      48.825   7.565  11.637  0.00  0.00    +0.000 NA
BRANCH   5   8
ATOM      8  C   UNL     1      52.498   8.520  11.793  0.00  0.00    +0.000 C 
BRANCH   8   9
ATOM      9  N   UNL     1      53.006   7.447  10.935  0.00  0.00    +0.000 NA
ATOM     10  H   UNL     1      52.331   6.684  10.925  0.00  0.00    +0.000 HD
BRANCH   9  11
ATOM     11  C   UNL     1      53.251   7.911   9.574  0.00  0.00    +0.000 C 
BRANCH  11  12
ATOM     12  C   UNL     1      53.350   6.754   8.631  0.00  0.00    +0.000 A 
ATOM     13  C   UNL     1      52.494   6.591   7.562  0.00  0.00    +0.000 A 
ATOM     14  N   UNL     1      52.557   5.561   6.694  0.00  0.00    +0.000 NA
ATOM     15  C   UNL     1      53.530   4.667   6.928  0.00  0.00    +0.000 A 
ATOM     16  N   UNL     1      54.424   4.714   7.926  0.00  0.00    +0.000 NA
ATOM     17  C   UNL     1      54.309   5.766   8.762  0.00  0.00    +0.000 A 
ENDBRANCH  11  12
ENDBRANCH   9  11
ENDBRANCH   8   9
ENDBRANCH   5   8
ENDBRANCH   1   2
BRANCH   1  20
ATOM     18  O   UNL     1      45.405   7.334  10.895  0.00  0.00    +0.000 OA
ATOM     19  C   UNL     1      45.595   6.275  11.481  0.00  0.00    +0.000 C 
ATOM     20  N   UNL     1      46.485   6.124  12.509  0.00  0.00    +0.000 N 
ATOM     21  H   UNL     1      46.460   5.250  13.026  0.00  0.00    +0.000 HD
BRANCH  19  22
ATOM     22  C   UNL     1      44.780   5.114  11.134  0.00  0.00    +0.000 A 
ATOM     23  C   UNL     1      43.789   4.665  11.994  0.00  0.00    +0.000 A 
ATOM     24  S   UNL     1      43.252   3.087  11.620  0.00  0.00    +0.000 S 
ATOM     25  C   UNL     1      44.309   2.991  10.287  0.00  0.00    +0.000 A 
ATOM     26  N   UNL     1      44.486   1.832   9.598  0.00  0.00    +0.000 NA
ATOM     27  C   UNL     1      45.309   1.928   8.606  0.00  0.00    +0.000 A 
ATOM     28  N   UNL     1      45.926   3.087   8.205  0.00  0.00    +0.000 N 
ATOM     29  C   UNL     1      45.713   4.293   8.826  0.00  0.00    +0.000 A 
ATOM     30  O   UNL     1      46.098   5.351   8.342  0.00  0.00    +0.000 OA
ATOM     31  C   UNL     1      44.927   4.199  10.038  0.00  0.00    +0.000 A 
ATOM     32  H   UNL     1      46.466   3.119   7.353  0.00  0.00    +0.000 HD
ENDBRANCH  19  22
ENDBRANCH   1  20
BRANCH   1  33
ATOM     33  C   UNL     1      46.109   8.457  13.349  0.00  0.00    +0.000 C 
BRANCH  33  34
ATOM     34  O   UNL     1      46.604   9.515  12.516  0.00  0.00    +0.000 OA
ATOM     35  H   UNL     1      46.901  10.226  13.110  0.00  0.00    +0.000 HD
ENDBRANCH  33  34
ENDBRANCH   1  33
TORSDOF 9
ENDMDL
