MODEL 1
REMARK VINA RESULT:    -9.206      0.000      0.000
REMARK INTER + INTRA:         -13.507
REMARK INTER:                 -12.705
REMARK INTRA:                  -0.802
REMARK UNBOUND:                -0.802
REMARK  Name = 
REMARK  9 active torsions:
REMARK  status: ('A' for Active; 'I' for Inactive)
REMARK    1  A    between atoms: C_1  and  C_2
REMARK    2  A    between atoms: C_2  and  C_3
REMARK    3  A    between atoms: C_2  and  C_14
REMARK    4  A    between atoms: C_3  and  N_4
REMARK    5  A    between atoms: C_8  and  C_9
REMARK    6  A    between atoms: C_20  and  O_21
REMARK    7  A    between atoms: O_21  and  C_22
REMARK    8  A    between atoms: C_24  and  C_25
REMARK    9  A    between atoms: C_24  and  O_26
REMARK                            x       y       z     vdW  Elec       q    Type
REMARK                         _______ _______ _______ _____ _____    ______ ____
ROOT
ATOM      1  C   UNL     1      42.388   6.170  12.141  0.00  0.00    +0.000 C 
ATOM      2  C   UNL     1      43.247   4.910  12.314  0.00  0.00    +0.000 C 
ENDROOT
BRANCH   2   3
ATOM      3  C   UNL     1      44.672   5.279  12.721  0.00  0.00    +0.000 A 
ATOM      4  C   UNL     1      45.324   6.397  12.178  0.00  0.00    +0.000 A 
ATOM      5  C   UNL     1      46.634   6.693  12.543  0.00  0.00    +0.000 A 
ATOM      6  F   UNL     1      47.234   7.762  11.999  0.00  0.00    +0.000 F 
ATOM      7  C   UNL     1      47.320   5.901  13.453  0.00  0.00    +0.000 A 
ATOM      8  F   UNL     1      48.585   6.218  13.766  0.00  0.00    +0.000 F 
ATOM      9  C   UNL     1      46.689   4.796  14.020  0.00  0.00    +0.000 A 
ATOM     10  C   UNL     1      45.375   4.480  13.642  0.00  0.00    +0.000 A 
BRANCH   9  11
ATOM     11  O   UNL     1      47.255   3.942  14.935  0.00  0.00    +0.000 OA
BRANCH  11  12
ATOM     12  C   UNL     1      47.242   4.316  16.336  0.00  0.00    +0.000 C 
ATOM     13  C   UNL     1      47.115   3.179  17.382  0.00  0.00    +0.000 C 
ATOM     14  C   UNL     1      48.659   3.173  17.516  0.00  0.00    +0.000 C 
ATOM     15  C   UNL     1      49.369   2.138  16.651  0.00  0.00    +0.000 C 
ATOM     16  C   UNL     1      48.643   4.609  16.930  0.00  0.00    +0.000 C 
BRANCH  14  17
ATOM     17  O   UNL     1      49.158   3.060  18.867  0.00  0.00    +0.000 OA
ATOM     18  H   UNL     1      49.861   3.726  18.952  0.00  0.00    +0.000 HD
ENDBRANCH  14  17
ENDBRANCH  11  12
ENDBRANCH   9  11
ENDBRANCH   2   3
BRANCH   2  19
ATOM     19  C   UNL     1      43.271   4.042  11.036  0.00  0.00    +0.000 C 
BRANCH  19  20
ATOM     20  N   UNL     1      43.922   4.726   9.911  0.00  0.00    +0.000 N 
ATOM     21  C   UNL     1      44.773   3.874   9.179  0.00  0.00    +0.000 A 
ATOM     22  C   UNL     1      45.469   4.399   8.093  0.00  0.00    +0.000 A 
ATOM     23  C   UNL     1      46.313   3.567   7.351  0.00  0.00    +0.000 A 
ATOM     24  C   UNL     1      46.445   2.224   7.704  0.00  0.00    +0.000 A 
ATOM     25  C   UNL     1      45.711   1.786   8.793  0.00  0.00    +0.000 A 
ATOM     26  N   UNL     1      44.887   2.577   9.523  0.00  0.00    +0.000 NA
ATOM     27  H   UNL     1      44.473   5.527  10.208  0.00  0.00    +0.000 HD
BRANCH  24  28
ATOM     28  C   UNL     1      47.345   1.344   6.920  0.00  0.00    +0.000 C 
ATOM     29  N   UNL     1      48.357   1.904   6.193  0.00  0.00    +0.000 N 
ATOM     30  O   UNL     1      47.193   0.128   6.919  0.00  0.00    +0.000 OA
ATOM     31  H   UNL     1      48.580   2.886   6.134  0.00  0.00    +0.000 HD
ATOM     32  H   UNL     1      48.950   1.264   5.678  0.00  0.00    +0.000 HD
ENDBRANCH  24  28
ENDBRANCH  19  20
ENDBRANCH   2  19
TORSDOF 7
ENDMDL
MODEL 2
REMARK VINA RESULT:    -8.173      3.365      7.921
REMARK INTER + INTRA:         -12.080
REMARK INTER:                 -11.153
REMARK INTRA:                  -0.927
REMARK UNBOUND:                -0.802
REMARK  Name = 
REMARK  9 active torsions:
REMARK  status: ('A' for Active; 'I' for Inactive)
REMARK    1  A    between atoms: C_1  and  C_2
REMARK    2  A    between atoms: C_2  and  C_3
REMARK    3  A    between atoms: C_2  and  C_14
REMARK    4  A    between atoms: C_3  and  N_4
REMARK    5  A    between atoms: C_8  and  C_9
REMARK    6  A    between atoms: C_20  and  O_21
REMARK    7  A    between atoms: O_21  and  C_22
REMARK    8  A    between atoms: C_24  and  C_25
REMARK    9  A    between atoms: C_24  and  O_26
REMARK                            x       y       z     vdW  Elec       q    Type
REMARK                         _______ _______ _______ _____ _____    ______ ____
ROOT
ATOM      1  C   UNL     1      46.210   8.524  13.225  0.00  0.00    +0.000 C 
ATOM      2  C   UNL     1      46.684   7.523  12.162  0.00  0.00    +0.000 C 
ENDROOT
BRANCH   2   3
ATOM      3  C   UNL     1      45.656   6.411  11.969  0.00  0.00    +0.000 A 
ATOM      4  C   UNL     1      44.548   6.281  12.821  0.00  0.00    +0.000 A 
ATOM      5  C   UNL     1      43.643   5.238  12.643  0.00  0.00    +0.000 A 
ATOM      6  F   UNL     1      42.600   5.133  13.479  0.00  0.00    +0.000 F 
ATOM      7  C   UNL     1      43.808   4.315  11.620  0.00  0.00    +0.000 A 
ATOM      8  F   UNL     1      42.917   3.319  11.493  0.00  0.00    +0.000 F 
ATOM      9  C   UNL     1      44.889   4.432  10.750  0.00  0.00    +0.000 A 
ATOM     10  C   UNL     1      45.817   5.469  10.937  0.00  0.00    +0.000 A 
BRANCH   9  11
ATOM     11  O   UNL     1      45.157   3.590   9.698  0.00  0.00    +0.000 OA
BRANCH  11  12
ATOM     12  C   UNL     1      45.240   4.150   8.364  0.00  0.00    +0.000 C 
ATOM     13  C   UNL     1      46.633   4.186   7.685  0.00  0.00    +0.000 C 
ATOM     14  C   UNL     1      46.288   2.850   6.979  0.00  0.00    +0.000 C 
ATOM     15  C   UNL     1      46.798   1.603   7.692  0.00  0.00    +0.000 C 
ATOM     16  C   UNL     1      44.795   3.182   7.238  0.00  0.00    +0.000 C 
BRANCH  14  17
ATOM     17  O   UNL     1      46.673   2.772   5.589  0.00  0.00    +0.000 OA
ATOM     18  H   UNL     1      46.868   3.682   5.310  0.00  0.00    +0.000 HD
ENDBRANCH  14  17
ENDBRANCH  11  12
ENDBRANCH   9  11
ENDBRANCH   2   3
BRANCH   2  19
ATOM     19  C   UNL     1      48.062   6.916  12.509  0.00  0.00    +0.000 C 
BRANCH  19  20
ATOM     20  N   UNL     1      48.516   7.298  13.853  0.00  0.00    +0.000 N 
ATOM     21  C   UNL     1      48.256   6.302  14.816  0.00  0.00    +0.000 A 
ATOM     22  C   UNL     1      48.620   6.540  16.138  0.00  0.00    +0.000 A 
ATOM     23  C   UNL     1      48.377   5.560  17.106  0.00  0.00    +0.000 A 
ATOM     24  C   UNL     1      47.776   4.357  16.735  0.00  0.00    +0.000 A 
ATOM     25  C   UNL     1      47.454   4.201  15.398  0.00  0.00    +0.000 A 
ATOM     26  N   UNL     1      47.684   5.139  14.446  0.00  0.00    +0.000 NA
ATOM     27  H   UNL     1      48.084   8.158  14.180  0.00  0.00    +0.000 HD
BRANCH  24  28
ATOM     28  C   UNL     1      47.513   3.321  17.763  0.00  0.00    +0.000 C 
ATOM     29  N   UNL     1      48.339   3.234  18.848  0.00  0.00    +0.000 N 
ATOM     30  O   UNL     1      46.569   2.548  17.651  0.00  0.00    +0.000 OA
ATOM     31  H   UNL     1      49.133   3.824  19.045  0.00  0.00    +0.000 HD
ATOM     32  H   UNL     1      48.117   2.515  19.527  0.00  0.00    +0.000 HD
ENDBRANCH  24  28
ENDBRANCH  19  20
ENDBRANCH   2  19
TORSDOF 7
ENDMDL
MODEL 3
REMARK VINA RESULT:    -7.645      3.672      7.501
REMARK INTER + INTRA:         -11.351
REMARK INTER:                 -10.125
REMARK INTRA:                  -1.226
REMARK UNBOUND:                -0.802
REMARK  Name = 
REMARK  9 active torsions:
REMARK  status: ('A' for Active; 'I' for Inactive)
REMARK    1  A    between atoms: C_1  and  C_2
REMARK    2  A    between atoms: C_2  and  C_3
REMARK    3  A    between atoms: C_2  and  C_14
REMARK    4  A    between atoms: C_3  and  N_4
REMARK    5  A    between atoms: C_8  and  C_9
REMARK    6  A    between atoms: C_20  and  O_21
REMARK    7  A    between atoms: O_21  and  C_22
REMARK    8  A    between atoms: C_24  and  C_25
REMARK    9  A    between atoms: C_24  and  O_26
REMARK                            x       y       z     vdW  Elec       q    Type
REMARK                         _______ _______ _______ _____ _____    ______ ____
ROOT
ATOM      1  C   UNL     1      48.588   9.785  13.938  0.00  0.00    +0.000 C 
ATOM      2  C   UNL     1      48.579   8.841  12.728  0.00  0.00    +0.000 C 
ENDROOT
BRANCH   2   3
ATOM      3  C   UNL     1      47.151   8.582  12.256  0.00  0.00    +0.000 A 
ATOM      4  C   UNL     1      46.208   9.618  12.165  0.00  0.00    +0.000 A 
ATOM      5  C   UNL     1      44.903   9.349  11.761  0.00  0.00    +0.000 A 
ATOM      6  F   UNL     1      44.022  10.358  11.695  0.00  0.00    +0.000 F 
ATOM      7  C   UNL     1      44.508   8.059  11.432  0.00  0.00    +0.000 A 
ATOM      8  F   UNL     1      43.237   7.845  11.060  0.00  0.00    +0.000 F 
ATOM      9  C   UNL     1      45.428   7.017  11.497  0.00  0.00    +0.000 A 
ATOM     10  C   UNL     1      46.740   7.277  11.922  0.00  0.00    +0.000 A 
BRANCH   9  11
ATOM     11  O   UNL     1      45.164   5.704  11.190  0.00  0.00    +0.000 OA
BRANCH  11  12
ATOM     12  C   UNL     1      44.390   4.914  12.127  0.00  0.00    +0.000 C 
ATOM     13  C   UNL     1      43.050   4.315  11.628  0.00  0.00    +0.000 C 
ATOM     14  C   UNL     1      43.797   2.995  11.307  0.00  0.00    +0.000 C 
ATOM     15  C   UNL     1      44.260   2.861   9.861  0.00  0.00    +0.000 C 
ATOM     16  C   UNL     1      44.894   3.458  12.301  0.00  0.00    +0.000 C 
BRANCH  14  17
ATOM     17  O   UNL     1      43.096   1.787  11.677  0.00  0.00    +0.000 OA
ATOM     18  H   UNL     1      42.454   1.619  10.967  0.00  0.00    +0.000 HD
ENDBRANCH  14  17
ENDBRANCH  11  12
ENDBRANCH   9  11
ENDBRANCH   2   3
BRANCH   2  19
ATOM     19  C   UNL     1      49.287   7.501  13.031  0.00  0.00    +0.000 C 
BRANCH  19  20
ATOM     20  N   UNL     1      49.843   7.460  14.390  0.00  0.00    +0.000 N 
ATOM     21  C   UNL     1      49.222   6.490  15.201  0.00  0.00    +0.000 A 
ATOM     22  C   UNL     1      49.641   6.356  16.521  0.00  0.00    +0.000 A 
ATOM     23  C   UNL     1      49.040   5.393  17.339  0.00  0.00    +0.000 A 
ATOM     24  C   UNL     1      48.032   4.579  16.822  0.00  0.00    +0.000 A 
ATOM     25  C   UNL     1      47.683   4.776  15.498  0.00  0.00    +0.000 A 
ATOM     26  N   UNL     1      48.256   5.703  14.690  0.00  0.00    +0.000 NA
ATOM     27  H   UNL     1      49.767   8.353  14.869  0.00  0.00    +0.000 HD
BRANCH  24  28
ATOM     28  C   UNL     1      47.392   3.563  17.691  0.00  0.00    +0.000 C 
ATOM     29  N   UNL     1      47.949   3.279  18.906  0.00  0.00    +0.000 N 
ATOM     30  O   UNL     1      46.375   2.980  17.335  0.00  0.00    +0.000 OA
ATOM     31  H   UNL     1      48.773   3.705  19.302  0.00  0.00    +0.000 HD
ATOM     32  H   UNL     1      47.474   2.582  19.468  0.00  0.00    +0.000 HD
ENDBRANCH  24  28
ENDBRANCH  19  20
ENDBRANCH   2  19
TORSDOF 7
ENDMDL
MODEL 4
REMARK VINA RESULT:    -7.276      2.994      4.691
REMARK INTER + INTRA:         -10.843
REMARK INTER:                  -9.621
REMARK INTRA:                  -1.221
REMARK UNBOUND:                -0.802
REMARK  Name = 
REMARK  9 active torsions:
REMARK  status: ('A' for Active; 'I' for Inactive)
REMARK    1  A    between atoms: C_1  and  C_2
REMARK    2  A    between atoms: C_2  and  C_3
REMARK    3  A    between atoms: C_2  and  C_14
REMARK    4  A    between atoms: C_3  and  N_4
REMARK    5  A    between atoms: C_8  and  C_9
REMARK    6  A    between atoms: C_20  and  O_21
REMARK    7  A    between atoms: O_21  and  C_22
REMARK    8  A    between atoms: C_24  and  C_25
REMARK    9  A    between atoms: C_24  and  O_26
REMARK                            x       y       z     vdW  Elec       q    Type
REMARK                         _______ _______ _______ _____ _____    ______ ____
ROOT
ATOM      1  C   UNL     1      49.289   7.178  12.786  0.00  0.00    +0.000 C 
ATOM      2  C   UNL     1      48.443   8.268  13.459  0.00  0.00    +0.000 C 
ENDROOT
BRANCH   2   3
ATOM      3  C   UNL     1      48.572   8.192  14.978  0.00  0.00    +0.000 A 
ATOM      4  C   UNL     1      48.261   9.290  15.797  0.00  0.00    +0.000 A 
ATOM      5  C   UNL     1      48.418   9.204  17.178  0.00  0.00    +0.000 A 
ATOM      6  F   UNL     1      48.122  10.272  17.932  0.00  0.00    +0.000 F 
ATOM      7  C   UNL     1      48.874   8.037  17.774  0.00  0.00    +0.000 A 
ATOM      8  F   UNL     1      49.021   8.004  19.108  0.00  0.00    +0.000 F 
ATOM      9  C   UNL     1      49.173   6.928  16.986  0.00  0.00    +0.000 A 
ATOM     10  C   UNL     1      49.036   7.014  15.592  0.00  0.00    +0.000 A 
BRANCH   9  11
ATOM     11  O   UNL     1      49.623   5.718  17.456  0.00  0.00    +0.000 OA
BRANCH  11  12
ATOM     12  C   UNL     1      48.799   4.990  18.401  0.00  0.00    +0.000 C 
ATOM     13  C   UNL     1      47.268   4.978  18.160  0.00  0.00    +0.000 C 
ATOM     14  C   UNL     1      47.426   3.622  17.426  0.00  0.00    +0.000 C 
ATOM     15  C   UNL     1      47.545   3.728  15.911  0.00  0.00    +0.000 C 
ATOM     16  C   UNL     1      48.775   3.457  18.175  0.00  0.00    +0.000 C 
BRANCH  14  17
ATOM     17  O   UNL     1      46.419   2.634  17.739  0.00  0.00    +0.000 OA
ATOM     18  H   UNL     1      46.473   1.962  17.039  0.00  0.00    +0.000 HD
ENDBRANCH  14  17
ENDBRANCH  11  12
ENDBRANCH   9  11
ENDBRANCH   2   3
BRANCH   2  19
ATOM     19  C   UNL     1      46.955   8.183  13.050  0.00  0.00    +0.000 C 
BRANCH  19  20
ATOM     20  N   UNL     1      46.292   6.997  13.607  0.00  0.00    +0.000 N 
ATOM     21  C   UNL     1      45.810   6.128  12.608  0.00  0.00    +0.000 A 
ATOM     22  C   UNL     1      45.142   4.969  12.997  0.00  0.00    +0.000 A 
ATOM     23  C   UNL     1      44.663   4.091  12.020  0.00  0.00    +0.000 A 
ATOM     24  C   UNL     1      44.861   4.383  10.671  0.00  0.00    +0.000 A 
ATOM     25  C   UNL     1      45.541   5.552  10.374  0.00  0.00    +0.000 A 
ATOM     26  N   UNL     1      46.014   6.414  11.308  0.00  0.00    +0.000 NA
ATOM     27  H   UNL     1      45.508   7.236  14.208  0.00  0.00    +0.000 HD
BRANCH  24  28
ATOM     28  C   UNL     1      44.347   3.455   9.635  0.00  0.00    +0.000 C 
ATOM     29  N   UNL     1      44.216   3.898   8.349  0.00  0.00    +0.000 N 
ATOM     30  O   UNL     1      44.043   2.302   9.918  0.00  0.00    +0.000 OA
ATOM     31  H   UNL     1      44.448   4.817   8.006  0.00  0.00    +0.000 HD
ATOM     32  H   UNL     1      43.867   3.226   7.675  0.00  0.00    +0.000 HD
ENDBRANCH  24  28
ENDBRANCH  19  20
ENDBRANCH   2  19
TORSDOF 7
ENDMDL
MODEL 5
REMARK VINA RESULT:    -6.989      3.535      5.131
REMARK INTER + INTRA:         -10.446
REMARK INTER:                  -9.158
REMARK INTRA:                  -1.288
REMARK UNBOUND:                -0.802
REMARK  Name = 
REMARK  9 active torsions:
REMARK  status: ('A' for Active; 'I' for Inactive)
REMARK    1  A    between atoms: C_1  and  C_2
REMARK    2  A    between atoms: C_2  and  C_3
REMARK    3  A    between atoms: C_2  and  C_14
REMARK    4  A    between atoms: C_3  and  N_4
REMARK    5  A    between atoms: C_8  and  C_9
REMARK    6  A    between atoms: C_20  and  O_21
REMARK    7  A    between atoms: O_21  and  C_22
REMARK    8  A    between atoms: C_24  and  C_25
REMARK    9  A    between atoms: C_24  and  O_26
REMARK                            x       y       z     vdW  Elec       q    Type
REMARK                         _______ _______ _______ _____ _____    ______ ____
ROOT
ATOM      1  C   UNL     1      49.286   8.076  12.446  0.00  0.00    +0.000 C 
ATOM      2  C   UNL     1      48.576   8.717  13.647  0.00  0.00    +0.000 C 
ENDROOT
BRANCH   2   3
ATOM      3  C   UNL     1      49.246   8.302  14.955  0.00  0.00    +0.000 A 
ATOM      4  C   UNL     1      49.754   9.254  15.853  0.00  0.00    +0.000 A 
ATOM      5  C   UNL     1      50.389   8.848  17.024  0.00  0.00    +0.000 A 
ATOM      6  F   UNL     1      50.873   9.781  17.857  0.00  0.00    +0.000 F 
ATOM      7  C   UNL     1      50.525   7.502  17.333  0.00  0.00    +0.000 A 
ATOM      8  F   UNL     1      51.155   7.157  18.467  0.00  0.00    +0.000 F 
ATOM      9  C   UNL     1      50.015   6.538  16.468  0.00  0.00    +0.000 A 
ATOM     10  C   UNL     1      49.392   6.940  15.276  0.00  0.00    +0.000 A 
BRANCH   9  11
ATOM     11  O   UNL     1      50.079   5.180  16.665  0.00  0.00    +0.000 OA
BRANCH  11  12
ATOM     12  C   UNL     1      49.347   4.604  17.775  0.00  0.00    +0.000 C 
ATOM     13  C   UNL     1      47.836   4.934  17.888  0.00  0.00    +0.000 C 
ATOM     14  C   UNL     1      47.524   3.611  17.143  0.00  0.00    +0.000 C 
ATOM     15  C   UNL     1      47.324   3.759  15.639  0.00  0.00    +0.000 C 
ATOM     16  C   UNL     1      48.935   3.124  17.566  0.00  0.00    +0.000 C 
BRANCH  14  17
ATOM     17  O   UNL     1      46.420   2.849  17.679  0.00  0.00    +0.000 OA
ATOM     18  H   UNL     1      46.078   3.361  18.431  0.00  0.00    +0.000 HD
ENDBRANCH  14  17
ENDBRANCH  11  12
ENDBRANCH   9  11
ENDBRANCH   2   3
BRANCH   2  19
ATOM     19  C   UNL     1      47.072   8.364  13.689  0.00  0.00    +0.000 C 
BRANCH  19  20
ATOM     20  N   UNL     1      46.500   8.206  12.345  0.00  0.00    +0.000 N 
ATOM     21  C   UNL     1      45.871   6.958  12.168  0.00  0.00    +0.000 A 
ATOM     22  C   UNL     1      45.299   6.669  10.932  0.00  0.00    +0.000 A 
ATOM     23  C   UNL     1      44.664   5.438  10.739  0.00  0.00    +0.000 A 
ATOM     24  C   UNL     1      44.609   4.517  11.786  0.00  0.00    +0.000 A 
ATOM     25  C   UNL     1      45.196   4.891  12.982  0.00  0.00    +0.000 A 
ATOM     26  N   UNL     1      45.814   6.080  13.188  0.00  0.00    +0.000 NA
ATOM     27  H   UNL     1      47.196   8.305  11.612  0.00  0.00    +0.000 HD
BRANCH  24  28
ATOM     28  C   UNL     1      43.941   3.210  11.579  0.00  0.00    +0.000 C 
ATOM     29  N   UNL     1      43.772   2.372  12.646  0.00  0.00    +0.000 N 
ATOM     30  O   UNL     1      43.540   2.875  10.471  0.00  0.00    +0.000 OA
ATOM     31  H   UNL     1      44.050   2.552  13.599  0.00  0.00    +0.000 HD
ATOM     32  H   UNL     1      43.305   1.493  12.458  0.00  0.00    +0.000 HD
ENDBRANCH  24  28
ENDBRANCH  19  20
ENDBRANCH   2  19
TORSDOF 7
ENDMDL
MODEL 6
REMARK VINA RESULT:    -6.682      4.231      8.480
REMARK INTER + INTRA:         -10.023
REMARK INTER:                  -9.201
REMARK INTRA:                  -0.822
REMARK UNBOUND:                -0.802
REMARK  Name = 
REMARK  9 active torsions:
REMARK  status: ('A' for Active; 'I' for Inactive)
REMARK    1  A    between atoms: C_1  and  C_2
REMARK    2  A    between atoms: C_2  and  C_3
REMARK    3  A    between atoms: C_2  and  C_14
REMARK    4  A    between atoms: C_3  and  N_4
REMARK    5  A    between atoms: C_8  and  C_9
REMARK    6  A    between atoms: C_20  and  O_21
REMARK    7  A    between atoms: O_21  and  C_22
REMARK    8  A    between atoms: C_24  and  C_25
REMARK    9  A    between atoms: C_24  and  O_26
REMARK                            x       y       z     vdW  Elec       q    Type
REMARK                         _______ _______ _______ _____ _____    ______ ____
ROOT
ATOM      1  C   UNL     1      50.110   8.929  11.855  0.00  0.00    +0.000 C 
ATOM      2  C   UNL     1      49.316   7.906  12.680  0.00  0.00    +0.000 C 
ENDROOT
BRANCH   2   3
ATOM      3  C   UNL     1      47.840   7.926  12.287  0.00  0.00    +0.000 A 
ATOM      4  C   UNL     1      47.078   9.103  12.356  0.00  0.00    +0.000 A 
ATOM      5  C   UNL     1      45.726   9.085  12.022  0.00  0.00    +0.000 A 
ATOM      6  F   UNL     1      45.022  10.223  12.108  0.00  0.00    +0.000 F 
ATOM      7  C   UNL     1      45.107   7.914  11.607  0.00  0.00    +0.000 A 
ATOM      8  F   UNL     1      43.799   7.943  11.307  0.00  0.00    +0.000 F 
ATOM      9  C   UNL     1      45.845   6.737  11.514  0.00  0.00    +0.000 A 
ATOM     10  C   UNL     1      47.203   6.743  11.868  0.00  0.00    +0.000 A 
BRANCH   9  11
ATOM     11  O   UNL     1      45.351   5.520  11.111  0.00  0.00    +0.000 OA
BRANCH  11  12
ATOM     12  C   UNL     1      44.456   4.805  11.998  0.00  0.00    +0.000 C 
ATOM     13  C   UNL     1      43.135   4.258  11.399  0.00  0.00    +0.000 C 
ATOM     14  C   UNL     1      43.834   2.891  11.187  0.00  0.00    +0.000 C 
ATOM     15  C   UNL     1      44.415   2.683   9.794  0.00  0.00    +0.000 C 
ATOM     16  C   UNL     1      44.863   3.332  12.261  0.00  0.00    +0.000 C 
BRANCH  14  17
ATOM     17  O   UNL     1      43.039   1.735  11.529  0.00  0.00    +0.000 OA
ATOM     18  H   UNL     1      42.126   2.053  11.627  0.00  0.00    +0.000 HD
ENDBRANCH  14  17
ENDBRANCH  11  12
ENDBRANCH   9  11
ENDBRANCH   2   3
BRANCH   2  19
ATOM     19  C   UNL     1      49.462   8.146  14.199  0.00  0.00    +0.000 C 
BRANCH  19  20
ATOM     20  N   UNL     1      50.466   7.264  14.808  0.00  0.00    +0.000 N 
ATOM     21  C   UNL     1      50.076   6.794  16.077  0.00  0.00    +0.000 A 
ATOM     22  C   UNL     1      50.945   5.960  16.776  0.00  0.00    +0.000 A 
ATOM     23  C   UNL     1      50.572   5.478  18.035  0.00  0.00    +0.000 A 
ATOM     24  C   UNL     1      49.335   5.834  18.573  0.00  0.00    +0.000 A 
ATOM     25  C   UNL     1      48.532   6.661  17.807  0.00  0.00    +0.000 A 
ATOM     26  N   UNL     1      48.876   7.136  16.584  0.00  0.00    +0.000 NA
ATOM     27  H   UNL     1      51.369   7.718  14.914  0.00  0.00    +0.000 HD
BRANCH  24  28
ATOM     28  C   UNL     1      48.943   5.328  19.910  0.00  0.00    +0.000 C 
ATOM     29  N   UNL     1      49.787   4.486  20.577  0.00  0.00    +0.000 N 
ATOM     30  O   UNL     1      47.878   5.654  20.420  0.00  0.00    +0.000 OA
ATOM     31  H   UNL     1      50.688   4.164  20.258  0.00  0.00    +0.000 HD
ATOM     32  H   UNL     1      49.480   4.170  21.490  0.00  0.00    +0.000 HD
ENDBRANCH  24  28
ENDBRANCH  19  20
ENDBRANCH   2  19
TORSDOF 7
ENDMDL
MODEL 7
REMARK VINA RESULT:    -6.569      4.292      8.568
REMARK INTER + INTRA:          -9.868
REMARK INTER:                  -9.062
REMARK INTRA:                  -0.806
REMARK UNBOUND:                -0.802
REMARK  Name = 
REMARK  9 active torsions:
REMARK  status: ('A' for Active; 'I' for Inactive)
REMARK    1  A    between atoms: C_1  and  C_2
REMARK    2  A    between atoms: C_2  and  C_3
REMARK    3  A    between atoms: C_2  and  C_14
REMARK    4  A    between atoms: C_3  and  N_4
REMARK    5  A    between atoms: C_8  and  C_9
REMARK    6  A    between atoms: C_20  and  O_21
REMARK    7  A    between atoms: O_21  and  C_22
REMARK    8  A    between atoms: C_24  and  C_25
REMARK    9  A    between atoms: C_24  and  O_26
REMARK                            x       y       z     vdW  Elec       q    Type
REMARK                         _______ _______ _______ _____ _____    ______ ____
ROOT
ATOM      1  C   UNL     1      48.986   8.451  15.344  0.00  0.00    +0.000 C 
ATOM      2  C   UNL     1      48.630   7.231  14.483  0.00  0.00    +0.000 C 
ENDROOT
BRANCH   2   3
ATOM      3  C   UNL     1      47.466   7.550  13.548  0.00  0.00    +0.000 A 
ATOM      4  C   UNL     1      47.043   8.871  13.327  0.00  0.00    +0.000 A 
ATOM      5  C   UNL     1      45.958   9.132  12.494  0.00  0.00    +0.000 A 
ATOM      6  F   UNL     1      45.571  10.402  12.311  0.00  0.00    +0.000 F 
ATOM      7  C   UNL     1      45.280   8.100  11.858  0.00  0.00    +0.000 A 
ATOM      8  F   UNL     1      44.234   8.398  11.074  0.00  0.00    +0.000 F 
ATOM      9  C   UNL     1      45.691   6.783  12.047  0.00  0.00    +0.000 A 
ATOM     10  C   UNL     1      46.771   6.511  12.901  0.00  0.00    +0.000 A 
BRANCH   9  11
ATOM     11  O   UNL     1      45.110   5.680  11.470  0.00  0.00    +0.000 OA
BRANCH  11  12
ATOM     12  C   UNL     1      44.239   4.851  12.279  0.00  0.00    +0.000 C 
ATOM     13  C   UNL     1      42.957   4.291  11.611  0.00  0.00    +0.000 C 
ATOM     14  C   UNL     1      43.728   2.982  11.303  0.00  0.00    +0.000 C 
ATOM     15  C   UNL     1      44.340   2.917   9.910  0.00  0.00    +0.000 C 
ATOM     16  C   UNL     1      44.715   3.384  12.430  0.00  0.00    +0.000 C 
BRANCH  14  17
ATOM     17  O   UNL     1      42.987   1.763  11.535  0.00  0.00    +0.000 OA
ATOM     18  H   UNL     1      42.047   1.999  11.456  0.00  0.00    +0.000 HD
ENDBRANCH  14  17
ENDBRANCH  11  12
ENDBRANCH   9  11
ENDBRANCH   2   3
BRANCH   2  19
ATOM     19  C   UNL     1      48.293   5.992  15.342  0.00  0.00    +0.000 C 
BRANCH  19  20
ATOM     20  N   UNL     1      48.275   6.299  16.779  0.00  0.00    +0.000 N 
ATOM     21  C   UNL     1      49.342   5.697  17.475  0.00  0.00    +0.000 A 
ATOM     22  C   UNL     1      49.436   5.892  18.850  0.00  0.00    +0.000 A 
ATOM     23  C   UNL     1      50.493   5.309  19.556  0.00  0.00    +0.000 A 
ATOM     24  C   UNL     1      51.439   4.542  18.876  0.00  0.00    +0.000 A 
ATOM     25  C   UNL     1      51.272   4.407  17.509  0.00  0.00    +0.000 A 
ATOM     26  N   UNL     1      50.256   4.967  16.807  0.00  0.00    +0.000 NA
ATOM     27  H   UNL     1      47.412   6.005  17.229  0.00  0.00    +0.000 HD
BRANCH  24  28
ATOM     28  C   UNL     1      52.555   3.919  19.627  0.00  0.00    +0.000 C 
ATOM     29  N   UNL     1      53.013   2.690  19.241  0.00  0.00    +0.000 N 
ATOM     30  O   UNL     1      53.070   4.490  20.581  0.00  0.00    +0.000 OA
ATOM     31  H   UNL     1      52.673   2.140  18.467  0.00  0.00    +0.000 HD
ATOM     32  H   UNL     1      53.781   2.306  19.780  0.00  0.00    +0.000 HD
ENDBRANCH  24  28
ENDBRANCH  19  20
ENDBRANCH   2  19
TORSDOF 7
ENDMDL
