MODEL 1
REMARK VINA RESULT:    -7.668      0.000      0.000
REMARK INTER + INTRA:          -9.799
REMARK INTER:                  -9.462
REMARK INTRA:                  -0.337
REMARK UNBOUND:                -0.337
REMARK  Name = 
REMARK  4 active torsions:
REMARK  status: ('A' for Active; 'I' for Inactive)
REMARK    1  A    between atoms: C_2  and  C_4
REMARK    2  A    between atoms: C_7  and  N_8
REMARK    3  A    between atoms: N_8  and  C_9
REMARK    4  A    between atoms: C_9  and  C_10
REMARK                            x       y       z     vdW  Elec       q    Type
REMARK                         _______ _______ _______ _____ _____    ______ ____
ROOT
ATOM      1  C   UNL     1      46.374   2.294   7.794  0.00  0.00    +0.000 A 
ATOM      2  C   UNL     1      46.348   3.643   7.490  0.00  0.00    +0.000 A 
ATOM      3  N   UNL     1      45.498   4.509   8.104  0.00  0.00    +0.000 NA
ATOM      4  C   UNL     1      44.702   4.004   9.069  0.00  0.00    +0.000 A 
ATOM      5  C   UNL     1      44.727   2.629   9.338  0.00  0.00    +0.000 A 
ATOM      6  N   UNL     1      45.549   1.740   8.724  0.00  0.00    +0.000 NA
ENDROOT
BRANCH   1   8
ATOM      7  N   UNL     1      48.436   1.970   6.582  0.00  0.00    +0.000 N 
ATOM      8  C   UNL     1      47.311   1.379   7.090  0.00  0.00    +0.000 C 
ATOM      9  O   UNL     1      47.098   0.180   6.973  0.00  0.00    +0.000 OA
ATOM     10  H   UNL     1      49.125   1.409   6.103  0.00  0.00    +0.000 HD
ATOM     11  H   UNL     1      48.580   2.967   6.704  0.00  0.00    +0.000 HD
ENDBRANCH   1   8
BRANCH   4  12
ATOM     12  N   UNL     1      43.851   4.910   9.690  0.00  0.00    +0.000 N 
ATOM     13  H   UNL     1      42.933   4.851   9.255  0.00  0.00    +0.000 HD
BRANCH  12  14
ATOM     14  C   UNL     1      43.771   4.877  11.144  0.00  0.00    +0.000 C 
BRANCH  14  15
ATOM     15  C   UNL     1      45.053   5.351  11.791  0.00  0.00    +0.000 A 
ATOM     16  C   UNL     1      45.587   4.625  12.867  0.00  0.00    +0.000 A 
ATOM     17  C   UNL     1      46.817   4.977  13.424  0.00  0.00    +0.000 A 
ATOM     18  C   UNL     1      47.530   6.057  12.912  0.00  0.00    +0.000 A 
ATOM     19  C   UNL     1      47.018   6.783  11.840  0.00  0.00    +0.000 A 
ATOM     20  C   UNL     1      45.788   6.428  11.277  0.00  0.00    +0.000 A 
ENDBRANCH  14  15
ENDBRANCH  12  14
ENDBRANCH   4  12
TORSDOF 4
ENDMDL
MODEL 2
REMARK VINA RESULT:    -7.651      3.156      5.789
REMARK INTER + INTRA:          -9.777
REMARK INTER:                  -9.451
REMARK INTRA:                  -0.326
REMARK UNBOUND:                -0.337
REMARK  Name = 
REMARK  4 active torsions:
REMARK  status: ('A' for Active; 'I' for Inactive)
REMARK    1  A    between atoms: C_2  and  C_4
REMARK    2  A    between atoms: C_7  and  N_8
REMARK    3  A    between atoms: N_8  and  C_9
REMARK    4  A    between atoms: C_9  and  C_10
REMARK                            x       y       z     vdW  Elec       q    Type
REMARK                         _______ _______ _______ _____ _____    ______ ____
ROOT
ATOM      1  C   UNL     1      46.537   4.520  13.613  0.00  0.00    +0.000 A 
ATOM      2  C   UNL     1      46.798   5.644  12.851  0.00  0.00    +0.000 A 
ATOM      3  N   UNL     1      46.219   5.848  11.637  0.00  0.00    +0.000 NA
ATOM      4  C   UNL     1      45.331   4.923  11.220  0.00  0.00    +0.000 A 
ATOM      5  C   UNL     1      45.106   3.779  11.997  0.00  0.00    +0.000 A 
ATOM      6  N   UNL     1      45.688   3.540  13.200  0.00  0.00    +0.000 NA
ENDROOT
BRANCH   1   8
ATOM      7  N   UNL     1      47.467   5.480  15.623  0.00  0.00    +0.000 N 
ATOM      8  C   UNL     1      47.201   4.330  14.931  0.00  0.00    +0.000 C 
ATOM      9  O   UNL     1      47.486   3.225  15.370  0.00  0.00    +0.000 OA
ATOM     10  H   UNL     1      47.904   5.427  16.531  0.00  0.00    +0.000 HD
ATOM     11  H   UNL     1      47.210   6.377  15.227  0.00  0.00    +0.000 HD
ENDBRANCH   1   8
BRANCH   4  12
ATOM     12  N   UNL     1      44.744   5.159   9.982  0.00  0.00    +0.000 N 
ATOM     13  H   UNL     1      45.375   5.726   9.421  0.00  0.00    +0.000 HD
BRANCH  12  14
ATOM     14  C   UNL     1      44.237   4.011   9.244  0.00  0.00    +0.000 C 
BRANCH  14  15
ATOM     15  C   UNL     1      45.340   3.272   8.520  0.00  0.00    +0.000 A 
ATOM     16  C   UNL     1      45.480   1.889   8.714  0.00  0.00    +0.000 A 
ATOM     17  C   UNL     1      46.423   1.159   7.989  0.00  0.00    +0.000 A 
ATOM     18  C   UNL     1      47.236   1.802   7.059  0.00  0.00    +0.000 A 
ATOM     19  C   UNL     1      47.105   3.171   6.850  0.00  0.00    +0.000 A 
ATOM     20  C   UNL     1      46.156   3.902   7.572  0.00  0.00    +0.000 A 
ENDBRANCH  14  15
ENDBRANCH  12  14
ENDBRANCH   4  12
TORSDOF 4
ENDMDL
MODEL 3
REMARK VINA RESULT:    -7.308      0.895      1.726
REMARK INTER + INTRA:          -9.354
REMARK INTER:                  -8.932
REMARK INTRA:                  -0.423
REMARK UNBOUND:                -0.337
REMARK  Name = 
REMARK  4 active torsions:
REMARK  status: ('A' for Active; 'I' for Inactive)
REMARK    1  A    between atoms: C_2  and  C_4
REMARK    2  A    between atoms: C_7  and  N_8
REMARK    3  A    between atoms: N_8  and  C_9
REMARK    4  A    between atoms: C_9  and  C_10
REMARK                            x       y       z     vdW  Elec       q    Type
REMARK                         _______ _______ _______ _____ _____    ______ ____
ROOT
ATOM      1  C   UNL     1      46.469   2.592   7.661  0.00  0.00    +0.000 A 
ATOM      2  C   UNL     1      45.560   1.975   8.502  0.00  0.00    +0.000 A 
ATOM      3  N   UNL     1      44.676   2.681   9.257  0.00  0.00    +0.000 NA
ATOM      4  C   UNL     1      44.687   4.022   9.117  0.00  0.00    +0.000 A 
ATOM      5  C   UNL     1      45.636   4.624   8.281  0.00  0.00    +0.000 A 
ATOM      6  N   UNL     1      46.544   3.944   7.535  0.00  0.00    +0.000 NA
ENDROOT
BRANCH   1   8
ATOM      7  N   UNL     1      48.533   2.455   6.417  0.00  0.00    +0.000 N 
ATOM      8  C   UNL     1      47.427   1.783   6.861  0.00  0.00    +0.000 C 
ATOM      9  O   UNL     1      47.245   0.597   6.619  0.00  0.00    +0.000 OA
ATOM     10  H   UNL     1      49.234   1.966   5.880  0.00  0.00    +0.000 HD
ATOM     11  H   UNL     1      48.652   3.436   6.644  0.00  0.00    +0.000 HD
ENDBRANCH   1   8
BRANCH   4  12
ATOM     12  N   UNL     1      43.767   4.721   9.890  0.00  0.00    +0.000 N 
ATOM     13  H   UNL     1      42.864   4.707   9.421  0.00  0.00    +0.000 HD
BRANCH  12  14
ATOM     14  C   UNL     1      43.658   4.366  11.299  0.00  0.00    +0.000 C 
BRANCH  14  15
ATOM     15  C   UNL     1      44.916   4.706  12.065  0.00  0.00    +0.000 A 
ATOM     16  C   UNL     1      45.313   6.048  12.171  0.00  0.00    +0.000 A 
ATOM     17  C   UNL     1      46.413   6.407  12.951  0.00  0.00    +0.000 A 
ATOM     18  C   UNL     1      47.129   5.430  13.638  0.00  0.00    +0.000 A 
ATOM     19  C   UNL     1      46.744   4.095  13.549  0.00  0.00    +0.000 A 
ATOM     20  C   UNL     1      45.638   3.735  12.772  0.00  0.00    +0.000 A 
ENDBRANCH  14  15
ENDBRANCH  12  14
ENDBRANCH   4  12
TORSDOF 4
ENDMDL
MODEL 4
REMARK VINA RESULT:    -7.112      3.203      6.223
REMARK INTER + INTRA:          -9.113
REMARK INTER:                  -8.886
REMARK INTRA:                  -0.227
REMARK UNBOUND:                -0.337
REMARK  Name = 
REMARK  4 active torsions:
REMARK  status: ('A' for Active; 'I' for Inactive)
REMARK    1  A    between atoms: C_2  and  C_4
REMARK    2  A    between atoms: C_7  and  N_8
REMARK    3  A    between atoms: N_8  and  C_9
REMARK    4  A    between atoms: C_9  and  C_10
REMARK                            x       y       z     vdW  Elec       q    Type
REMARK                         _______ _______ _______ _____ _____    ______ ____
ROOT
ATOM      1  C   UNL     1      45.559   6.644  12.399  0.00  0.00    +0.000 A 
ATOM      2  C   UNL     1      45.441   6.445  11.035  0.00  0.00    +0.000 A 
ATOM      3  N   UNL     1      45.282   5.208  10.493  0.00  0.00    +0.000 NA
ATOM      4  C   UNL     1      45.192   4.171  11.352  0.00  0.00    +0.000 A 
ATOM      5  C   UNL     1      45.343   4.396  12.727  0.00  0.00    +0.000 A 
ATOM      6  N   UNL     1      45.527   5.617  13.291  0.00  0.00    +0.000 NA
ENDROOT
BRANCH   1   8
ATOM      7  N   UNL     1      44.727   8.891  12.691  0.00  0.00    +0.000 N 
ATOM      8  C   UNL     1      45.744   8.013  12.949  0.00  0.00    +0.000 C 
ATOM      9  O   UNL     1      46.735   8.336  13.591  0.00  0.00    +0.000 OA
ATOM     10  H   UNL     1      44.777   9.835  13.046  0.00  0.00    +0.000 HD
ATOM     11  H   UNL     1      43.919   8.584  12.160  0.00  0.00    +0.000 HD
ENDBRANCH   1   8
BRANCH   4  12
ATOM     12  N   UNL     1      45.018   2.919  10.776  0.00  0.00    +0.000 N 
ATOM     13  H   UNL     1      44.526   2.319  11.433  0.00  0.00    +0.000 HD
BRANCH  12  14
ATOM     14  C   UNL     1      44.436   2.862   9.442  0.00  0.00    +0.000 C 
BRANCH  14  15
ATOM     15  C   UNL     1      45.483   2.618   8.378  0.00  0.00    +0.000 A 
ATOM     16  C   UNL     1      46.126   1.372   8.325  0.00  0.00    +0.000 A 
ATOM     17  C   UNL     1      47.026   1.078   7.299  0.00  0.00    +0.000 A 
ATOM     18  C   UNL     1      47.292   2.024   6.312  0.00  0.00    +0.000 A 
ATOM     19  C   UNL     1      46.656   3.262   6.348  0.00  0.00    +0.000 A 
ATOM     20  C   UNL     1      45.751   3.556   7.372  0.00  0.00    +0.000 A 
ENDBRANCH  14  15
ENDBRANCH  12  14
ENDBRANCH   4  12
TORSDOF 4
ENDMDL
MODEL 5
REMARK VINA RESULT:    -7.029      3.203      6.087
REMARK INTER + INTRA:          -9.010
REMARK INTER:                  -8.642
REMARK INTRA:                  -0.368
REMARK UNBOUND:                -0.337
REMARK  Name = 
REMARK  4 active torsions:
REMARK  status: ('A' for Active; 'I' for Inactive)
REMARK    1  A    between atoms: C_2  and  C_4
REMARK    2  A    between atoms: C_7  and  N_8
REMARK    3  A    between atoms: N_8  and  C_9
REMARK    4  A    between atoms: C_9  and  C_10
REMARK                            x       y       z     vdW  Elec       q    Type
REMARK                         _______ _______ _______ _____ _____    ______ ____
ROOT
ATOM      1  C   UNL     1      46.796   5.498  13.259  0.00  0.00    +0.000 A 
ATOM      2  C   UNL     1      45.931   4.444  13.024  0.00  0.00    +0.000 A 
ATOM      3  N   UNL     1      45.226   4.327  11.867  0.00  0.00    +0.000 NA
ATOM      4  C   UNL     1      45.442   5.266  10.922  0.00  0.00    +0.000 A 
ATOM      5  C   UNL     1      46.301   6.339  11.196  0.00  0.00    +0.000 A 
ATOM      6  N   UNL     1      46.998   6.491  12.351  0.00  0.00    +0.000 NA
ENDROOT
BRANCH   1   8
ATOM      7  N   UNL     1      48.051   6.828  14.833  0.00  0.00    +0.000 N 
ATOM      8  C   UNL     1      47.538   5.593  14.544  0.00  0.00    +0.000 C 
ATOM      9  O   UNL     1      47.679   4.638  15.295  0.00  0.00    +0.000 OA
ATOM     10  H   UNL     1      48.555   6.971  15.696  0.00  0.00    +0.000 HD
ATOM     11  H   UNL     1      47.908   7.597  14.188  0.00  0.00    +0.000 HD
ENDBRANCH   1   8
BRANCH   4  12
ATOM     12  N   UNL     1      44.720   5.119   9.744  0.00  0.00    +0.000 N 
ATOM     13  H   UNL     1      45.228   5.570   8.988  0.00  0.00    +0.000 HD
BRANCH  12  14
ATOM     14  C   UNL     1      44.276   3.780   9.384  0.00  0.00    +0.000 C 
BRANCH  14  15
ATOM     15  C   UNL     1      45.286   3.064   8.517  0.00  0.00    +0.000 A 
ATOM     16  C   UNL     1      46.041   3.803   7.593  0.00  0.00    +0.000 A 
ATOM     17  C   UNL     1      47.049   3.192   6.845  0.00  0.00    +0.000 A 
ATOM     18  C   UNL     1      47.318   1.836   7.014  0.00  0.00    +0.000 A 
ATOM     19  C   UNL     1      46.583   1.091   7.931  0.00  0.00    +0.000 A 
ATOM     20  C   UNL     1      45.576   1.703   8.685  0.00  0.00    +0.000 A 
ENDBRANCH  14  15
ENDBRANCH  12  14
ENDBRANCH   4  12
TORSDOF 4
ENDMDL
MODEL 6
REMARK VINA RESULT:    -6.053      4.195      6.404
REMARK INTER + INTRA:          -7.806
REMARK INTER:                  -7.561
REMARK INTRA:                  -0.244
REMARK UNBOUND:                -0.337
REMARK  Name = 
REMARK  4 active torsions:
REMARK  status: ('A' for Active; 'I' for Inactive)
REMARK    1  A    between atoms: C_2  and  C_4
REMARK    2  A    between atoms: C_7  and  N_8
REMARK    3  A    between atoms: N_8  and  C_9
REMARK    4  A    between atoms: C_9  and  C_10
REMARK                            x       y       z     vdW  Elec       q    Type
REMARK                         _______ _______ _______ _____ _____    ______ ____
ROOT
ATOM      1  C   UNL     1      47.557   3.782  15.397  0.00  0.00    +0.000 A 
ATOM      2  C   UNL     1      47.485   5.163  15.366  0.00  0.00    +0.000 A 
ATOM      3  N   UNL     1      47.085   5.845  14.259  0.00  0.00    +0.000 NA
ATOM      4  C   UNL     1      46.707   5.111  13.192  0.00  0.00    +0.000 A 
ATOM      5  C   UNL     1      46.817   3.715  13.239  0.00  0.00    +0.000 A 
ATOM      6  N   UNL     1      47.235   3.012  14.322  0.00  0.00    +0.000 NA
ENDROOT
BRANCH   1   8
ATOM      7  N   UNL     1      47.057   2.903  17.588  0.00  0.00    +0.000 N 
ATOM      8  C   UNL     1      48.012   3.077  16.624  0.00  0.00    +0.000 C 
ATOM      9  O   UNL     1      49.159   2.675  16.765  0.00  0.00    +0.000 OA
ATOM     10  H   UNL     1      47.290   2.419  18.443  0.00  0.00    +0.000 HD
ATOM     11  H   UNL     1      46.115   3.245  17.432  0.00  0.00    +0.000 HD
ENDBRANCH   1   8
BRANCH   4  12
ATOM     12  N   UNL     1      46.291   5.829  12.078  0.00  0.00    +0.000 N 
ATOM     13  H   UNL     1      47.035   5.822  11.384  0.00  0.00    +0.000 HD
BRANCH  12  14
ATOM     14  C   UNL     1      44.998   5.490  11.498  0.00  0.00    +0.000 C 
BRANCH  14  15
ATOM     15  C   UNL     1      45.138   4.576  10.302  0.00  0.00    +0.000 A 
ATOM     16  C   UNL     1      44.538   3.307  10.335  0.00  0.00    +0.000 A 
ATOM     17  C   UNL     1      44.564   2.477   9.214  0.00  0.00    +0.000 A 
ATOM     18  C   UNL     1      45.187   2.905   8.044  0.00  0.00    +0.000 A 
ATOM     19  C   UNL     1      45.780   4.163   7.993  0.00  0.00    +0.000 A 
ATOM     20  C   UNL     1      45.750   4.998   9.114  0.00  0.00    +0.000 A 
ENDBRANCH  14  15
ENDBRANCH  12  14
ENDBRANCH   4  12
TORSDOF 4
ENDMDL
MODEL 7
REMARK VINA RESULT:    -5.643      4.650      6.876
REMARK INTER + INTRA:          -7.300
REMARK INTER:                  -7.046
REMARK INTRA:                  -0.255
REMARK UNBOUND:                -0.337
REMARK  Name = 
REMARK  4 active torsions:
REMARK  status: ('A' for Active; 'I' for Inactive)
REMARK    1  A    between atoms: C_2  and  C_4
REMARK    2  A    between atoms: C_7  and  N_8
REMARK    3  A    between atoms: N_8  and  C_9
REMARK    4  A    between atoms: C_9  and  C_10
REMARK                            x       y       z     vdW  Elec       q    Type
REMARK                         _______ _______ _______ _____ _____    ______ ____
ROOT
ATOM      1  C   UNL     1      47.390   4.370  16.122  0.00  0.00    +0.000 A 
ATOM      2  C   UNL     1      48.134   5.531  16.008  0.00  0.00    +0.000 A 
ATOM      3  N   UNL     1      48.277   6.188  14.826  0.00  0.00    +0.000 NA
ATOM      4  C   UNL     1      47.618   5.685  13.763  0.00  0.00    +0.000 A 
ATOM      5  C   UNL     1      46.894   4.492  13.898  0.00  0.00    +0.000 A 
ATOM      6  N   UNL     1      46.754   3.805  15.060  0.00  0.00    +0.000 NA
ENDROOT
BRANCH   1   8
ATOM      7  N   UNL     1      47.950   4.256  18.467  0.00  0.00    +0.000 N 
ATOM      8  C   UNL     1      47.268   3.676  17.432  0.00  0.00    +0.000 C 
ATOM      9  O   UNL     1      46.603   2.661  17.580  0.00  0.00    +0.000 OA
ATOM     10  H   UNL     1      47.903   3.848  19.389  0.00  0.00    +0.000 HD
ATOM     11  H   UNL     1      48.487   5.101  18.306  0.00  0.00    +0.000 HD
ENDBRANCH   1   8
BRANCH   4  12
ATOM     12  N   UNL     1      47.770   6.379  12.569  0.00  0.00    +0.000 N 
ATOM     13  H   UNL     1      48.055   5.728  11.842  0.00  0.00    +0.000 HD
BRANCH  12  14
ATOM     14  C   UNL     1      46.672   7.234  12.138  0.00  0.00    +0.000 C 
BRANCH  14  15
ATOM     15  C   UNL     1      45.551   6.439  11.507  0.00  0.00    +0.000 A 
ATOM     16  C   UNL     1      45.833   5.609  10.410  0.00  0.00    +0.000 A 
ATOM     17  C   UNL     1      44.845   4.789   9.865  0.00  0.00    +0.000 A 
ATOM     18  C   UNL     1      43.564   4.784  10.410  0.00  0.00    +0.000 A 
ATOM     19  C   UNL     1      43.271   5.595  11.502  0.00  0.00    +0.000 A 
ATOM     20  C   UNL     1      44.261   6.414  12.053  0.00  0.00    +0.000 A 
ENDBRANCH  14  15
ENDBRANCH  12  14
ENDBRANCH   4  12
TORSDOF 4
ENDMDL
MODEL 8
REMARK VINA RESULT:    -5.555      3.247      4.863
REMARK INTER + INTRA:          -7.191
REMARK INTER:                  -6.869
REMARK INTRA:                  -0.322
REMARK UNBOUND:                -0.337
REMARK  Name = 
REMARK  4 active torsions:
REMARK  status: ('A' for Active; 'I' for Inactive)
REMARK    1  A    between atoms: C_2  and  C_4
REMARK    2  A    between atoms: C_7  and  N_8
REMARK    3  A    between atoms: N_8  and  C_9
REMARK    4  A    between atoms: C_9  and  C_10
REMARK                            x       y       z     vdW  Elec       q    Type
REMARK                         _______ _______ _______ _____ _____    ______ ____
ROOT
ATOM      1  C   UNL     1      45.054   3.895  10.553  0.00  0.00    +0.000 A 
ATOM      2  C   UNL     1      44.985   3.203  11.749  0.00  0.00    +0.000 A 
ATOM      3  N   UNL     1      45.366   3.757  12.931  0.00  0.00    +0.000 NA
ATOM      4  C   UNL     1      45.777   5.041  12.900  0.00  0.00    +0.000 A 
ATOM      5  C   UNL     1      45.866   5.711  11.673  0.00  0.00    +0.000 A 
ATOM      6  N   UNL     1      45.513   5.174  10.477  0.00  0.00    +0.000 NA
ENDROOT
BRANCH   1   8
ATOM      7  N   UNL     1      44.624   1.880   9.297  0.00  0.00    +0.000 N 
ATOM      8  C   UNL     1      44.638   3.248   9.280  0.00  0.00    +0.000 C 
ATOM      9  O   UNL     1      44.324   3.890   8.287  0.00  0.00    +0.000 OA
ATOM     10  H   UNL     1      44.338   1.372   8.472  0.00  0.00    +0.000 HD
ATOM     11  H   UNL     1      44.885   1.383  10.141  0.00  0.00    +0.000 HD
ENDBRANCH   1   8
BRANCH   4  12
ATOM     12  N   UNL     1      46.151   5.588  14.122  0.00  0.00    +0.000 N 
ATOM     13  H   UNL     1      45.598   5.158  14.859  0.00  0.00    +0.000 HD
BRANCH  12  14
ATOM     14  C   UNL     1      47.570   5.614  14.446  0.00  0.00    +0.000 C 
BRANCH  14  15
ATOM     15  C   UNL     1      47.857   4.961  15.779  0.00  0.00    +0.000 A 
ATOM     16  C   UNL     1      48.678   5.625  16.704  0.00  0.00    +0.000 A 
ATOM     17  C   UNL     1      48.886   5.098  17.980  0.00  0.00    +0.000 A 
ATOM     18  C   UNL     1      48.273   3.903  18.348  0.00  0.00    +0.000 A 
ATOM     19  C   UNL     1      47.450   3.237  17.445  0.00  0.00    +0.000 A 
ATOM     20  C   UNL     1      47.237   3.766  16.168  0.00  0.00    +0.000 A 
ENDBRANCH  14  15
ENDBRANCH  12  14
ENDBRANCH   4  12
TORSDOF 4
ENDMDL
MODEL 9
REMARK VINA RESULT:    -5.308      3.432      5.117
REMARK INTER + INTRA:          -6.887
REMARK INTER:                  -6.556
REMARK INTRA:                  -0.330
REMARK UNBOUND:                -0.337
REMARK  Name = 
REMARK  4 active torsions:
REMARK  status: ('A' for Active; 'I' for Inactive)
REMARK    1  A    between atoms: C_2  and  C_4
REMARK    2  A    between atoms: C_7  and  N_8
REMARK    3  A    between atoms: N_8  and  C_9
REMARK    4  A    between atoms: C_9  and  C_10
REMARK                            x       y       z     vdW  Elec       q    Type
REMARK                         _______ _______ _______ _____ _____    ______ ____
ROOT
ATOM      1  C   UNL     1      44.847   4.008  11.730  0.00  0.00    +0.000 A 
ATOM      2  C   UNL     1      45.102   5.246  11.168  0.00  0.00    +0.000 A 
ATOM      3  N   UNL     1      45.855   6.187  11.797  0.00  0.00    +0.000 NA
ATOM      4  C   UNL     1      46.391   5.847  12.987  0.00  0.00    +0.000 A 
ATOM      5  C   UNL     1      46.093   4.598  13.549  0.00  0.00    +0.000 A 
ATOM      6  N   UNL     1      45.326   3.650  12.952  0.00  0.00    +0.000 NA
ENDROOT
BRANCH   1   8
ATOM      7  N   UNL     1      43.367   2.103  11.810  0.00  0.00    +0.000 N 
ATOM      8  C   UNL     1      44.008   3.011  11.013  0.00  0.00    +0.000 C 
ATOM      9  O   UNL     1      43.894   3.002   9.795  0.00  0.00    +0.000 OA
ATOM     10  H   UNL     1      42.769   1.405  11.393  0.00  0.00    +0.000 HD
ATOM     11  H   UNL     1      43.482   2.146  12.817  0.00  0.00    +0.000 HD
ENDBRANCH   1   8
BRANCH   4  12
ATOM     12  N   UNL     1      47.165   6.821  13.606  0.00  0.00    +0.000 N 
ATOM     13  H   UNL     1      47.076   6.721  14.614  0.00  0.00    +0.000 HD
BRANCH  12  14
ATOM     14  C   UNL     1      48.555   6.947  13.188  0.00  0.00    +0.000 C 
BRANCH  14  15
ATOM     15  C   UNL     1      48.825   8.277  12.521  0.00  0.00    +0.000 A 
ATOM     16  C   UNL     1      50.099   8.531  11.990  0.00  0.00    +0.000 A 
ATOM     17  C   UNL     1      50.356   9.707  11.284  0.00  0.00    +0.000 A 
ATOM     18  C   UNL     1      49.342  10.642  11.095  0.00  0.00    +0.000 A 
ATOM     19  C   UNL     1      48.071  10.402  11.609  0.00  0.00    +0.000 A 
ATOM     20  C   UNL     1      47.811   9.222  12.313  0.00  0.00    +0.000 A 
ENDBRANCH  14  15
ENDBRANCH  12  14
ENDBRANCH   4  12
TORSDOF 4
ENDMDL
