MODEL 1
REMARK VINA RESULT:    -8.303      0.000      0.000
REMARK INTER + INTRA:         -11.196
REMARK INTER:                 -10.730
REMARK INTRA:                  -0.466
REMARK UNBOUND:                -0.466
REMARK  Name = 
REMARK  8 active torsions:
REMARK  status: ('A' for Active; 'I' for Inactive)
REMARK    1  A    between atoms: C_1  and  C_2
REMARK    2  A    between atoms: C_2  and  C_3
REMARK    3  A    between atoms: C_2  and  C_4
REMARK    4  A    between atoms: C_2  and  C_5
REMARK    5  A    between atoms: N_7  and  C_8
REMARK    6  A    between atoms: C_8  and  C_9
REMARK    7  A    between atoms: C_12  and  C_13
REMARK    8  A    between atoms: C_22  and  C_23
REMARK                            x       y       z     vdW  Elec       q    Type
REMARK                         _______ _______ _______ _____ _____    ______ ____
ROOT
ATOM      1  C   UNL     1      46.395   7.382  12.115  0.00  0.00    +0.000 A 
ATOM      2  C   UNL     1      45.578   7.117  11.024  0.00  0.00    +0.000 A 
ATOM      3  N   UNL     1      45.190   5.801  11.056  0.00  0.00    +0.000 N 
ATOM      4  C   UNL     1      45.751   5.187  12.143  0.00  0.00    +0.000 A 
ATOM      5  N   UNL     1      45.598   3.886  12.461  0.00  0.00    +0.000 NA
ATOM      6  C   UNL     1      46.228   3.535  13.610  0.00  0.00    +0.000 A 
ATOM      7  C   UNL     1      46.973   4.382  14.424  0.00  0.00    +0.000 A 
ATOM      8  C   UNL     1      47.121   5.715  14.028  0.00  0.00    +0.000 A 
ATOM      9  C   UNL     1      46.486   6.142  12.842  0.00  0.00    +0.000 A 
ENDROOT
BRANCH   7  10
ATOM     10  C   UNL     1      47.564   3.823  15.664  0.00  0.00    +0.000 C 
ATOM     11  N   UNL     1      47.259   4.410  16.860  0.00  0.00    +0.000 N 
ATOM     12  O   UNL     1      48.303   2.845  15.632  0.00  0.00    +0.000 OA
ATOM     13  H   UNL     1      46.621   5.179  16.990  0.00  0.00    +0.000 HD
ATOM     14  H   UNL     1      47.654   3.984  17.690  0.00  0.00    +0.000 HD
ENDBRANCH   7  10
BRANCH   1  16
ATOM     15  C   UNL     1      46.206   9.912  11.951  0.00  0.00    +0.000 C 
ATOM     16  C   UNL     1      47.057   8.719  12.450  0.00  0.00    +0.000 C 
ATOM     17  C   UNL     1      48.439   8.827  11.773  0.00  0.00    +0.000 C 
ATOM     18  C   UNL     1      47.222   8.878  13.975  0.00  0.00    +0.000 C 
ENDBRANCH   1  16
BRANCH   3  19
ATOM     19  C   UNL     1      44.357   5.156  10.051  0.00  0.00    +0.000 C 
BRANCH  19  20
ATOM     20  C   UNL     1      45.167   4.259   9.156  0.00  0.00    +0.000 A 
ATOM     21  N   UNL     1      46.060   4.874   8.317  0.00  0.00    +0.000 NA
ATOM     22  C   UNL     1      46.777   4.061   7.497  0.00  0.00    +0.000 A 
ATOM     23  C   UNL     1      46.618   2.687   7.507  0.00  0.00    +0.000 A 
ATOM     24  N   UNL     1      45.755   2.053   8.344  0.00  0.00    +0.000 NA
ATOM     25  C   UNL     1      45.043   2.867   9.160  0.00  0.00    +0.000 A 
ATOM     26 CL   UNL     1      44.057   1.983  10.251  0.00  0.00    +0.000 Cl
BRANCH  23  27
ATOM     27  C   UNL     1      47.410   1.836   6.578  0.00  0.00    +0.000 C 
ATOM     28  N   UNL     1      48.360   2.493   5.843  0.00  0.00    +0.000 N 
ATOM     29  O   UNL     1      47.228   0.631   6.481  0.00  0.00    +0.000 OA
ATOM     30  H   UNL     1      48.492   3.493   5.958  0.00  0.00    +0.000 HD
ATOM     31  H   UNL     1      48.947   1.976   5.204  0.00  0.00    +0.000 HD
ENDBRANCH  23  27
ENDBRANCH  19  20
ENDBRANCH   3  19
TORSDOF 5
ENDMDL
MODEL 2
REMARK VINA RESULT:    -7.741      3.506      7.331
REMARK INTER + INTRA:         -10.470
REMARK INTER:                  -9.649
REMARK INTRA:                  -0.820
REMARK UNBOUND:                -0.466
REMARK  Name = 
REMARK  8 active torsions:
REMARK  status: ('A' for Active; 'I' for Inactive)
REMARK    1  A    between atoms: C_1  and  C_2
REMARK    2  A    between atoms: C_2  and  C_3
REMARK    3  A    between atoms: C_2  and  C_4
REMARK    4  A    between atoms: C_2  and  C_5
REMARK    5  A    between atoms: N_7  and  C_8
REMARK    6  A    between atoms: C_8  and  C_9
REMARK    7  A    between atoms: C_12  and  C_13
REMARK    8  A    between atoms: C_22  and  C_23
REMARK                            x       y       z     vdW  Elec       q    Type
REMARK                         _______ _______ _______ _____ _____    ______ ____
ROOT
ATOM      1  C   UNL     1      48.088   6.664  13.649  0.00  0.00    +0.000 A 
ATOM      2  C   UNL     1      48.246   6.115  14.914  0.00  0.00    +0.000 A 
ATOM      3  N   UNL     1      47.331   5.107  15.091  0.00  0.00    +0.000 N 
ATOM      4  C   UNL     1      46.557   4.993  13.968  0.00  0.00    +0.000 A 
ATOM      5  N   UNL     1      45.543   4.119  13.812  0.00  0.00    +0.000 NA
ATOM      6  C   UNL     1      44.961   4.181  12.589  0.00  0.00    +0.000 A 
ATOM      7  C   UNL     1      45.324   5.038  11.555  0.00  0.00    +0.000 A 
ATOM      8  C   UNL     1      46.365   5.943  11.784  0.00  0.00    +0.000 A 
ATOM      9  C   UNL     1      47.014   5.924  13.037  0.00  0.00    +0.000 A 
ENDROOT
BRANCH   7  10
ATOM     10  C   UNL     1      44.588   4.940  10.271  0.00  0.00    +0.000 C 
ATOM     11  N   UNL     1      45.295   4.997   9.103  0.00  0.00    +0.000 N 
ATOM     12  O   UNL     1      43.371   4.796  10.245  0.00  0.00    +0.000 OA
ATOM     13  H   UNL     1      46.298   5.057   9.026  0.00  0.00    +0.000 HD
ATOM     14  H   UNL     1      44.766   4.894   8.245  0.00  0.00    +0.000 HD
ENDBRANCH   7  10
BRANCH   1  16
ATOM     15  C   UNL     1      49.612   7.393  11.751  0.00  0.00    +0.000 C 
ATOM     16  C   UNL     1      48.893   7.819  13.053  0.00  0.00    +0.000 C 
ATOM     17  C   UNL     1      49.977   8.293  14.042  0.00  0.00    +0.000 C 
ATOM     18  C   UNL     1      47.970   9.003  12.702  0.00  0.00    +0.000 C 
ENDBRANCH   1  16
BRANCH   3  19
ATOM     19  C   UNL     1      47.178   4.329  16.312  0.00  0.00    +0.000 C 
BRANCH  19  20
ATOM     20  C   UNL     1      48.452   3.618  16.677  0.00  0.00    +0.000 A 
ATOM     21  N   UNL     1      48.691   2.425  16.046  0.00  0.00    +0.000 NA
ATOM     22  C   UNL     1      49.834   1.777  16.391  0.00  0.00    +0.000 A 
ATOM     23  C   UNL     1      50.713   2.292  17.328  0.00  0.00    +0.000 A 
ATOM     24  N   UNL     1      50.508   3.482  17.951  0.00  0.00    +0.000 NA
ATOM     25  C   UNL     1      49.367   4.125  17.603  0.00  0.00    +0.000 A 
ATOM     26 CL   UNL     1      49.238   5.660  18.357  0.00  0.00    +0.000 Cl
BRANCH  23  27
ATOM     27  C   UNL     1      51.944   1.539  17.692  0.00  0.00    +0.000 C 
ATOM     28  N   UNL     1      51.745   0.247  18.100  0.00  0.00    +0.000 N 
ATOM     29  O   UNL     1      53.058   2.038  17.627  0.00  0.00    +0.000 OA
ATOM     30  H   UNL     1      50.806  -0.139  18.131  0.00  0.00    +0.000 HD
ATOM     31  H   UNL     1      52.536  -0.329  18.346  0.00  0.00    +0.000 HD
ENDBRANCH  23  27
ENDBRANCH  19  20
ENDBRANCH   3  19
TORSDOF 5
ENDMDL
MODEL 3
REMARK VINA RESULT:    -6.645      4.231      5.828
REMARK INTER + INTRA:          -9.054
REMARK INTER:                  -8.116
REMARK INTRA:                  -0.938
REMARK UNBOUND:                -0.466
REMARK  Name = 
REMARK  8 active torsions:
REMARK  status: ('A' for Active; 'I' for Inactive)
REMARK    1  A    between atoms: C_1  and  C_2
REMARK    2  A    between atoms: C_2  and  C_3
REMARK    3  A    between atoms: C_2  and  C_4
REMARK    4  A    between atoms: C_2  and  C_5
REMARK    5  A    between atoms: N_7  and  C_8
REMARK    6  A    between atoms: C_8  and  C_9
REMARK    7  A    between atoms: C_12  and  C_13
REMARK    8  A    between atoms: C_22  and  C_23
REMARK                            x       y       z     vdW  Elec       q    Type
REMARK                         _______ _______ _______ _____ _____    ______ ____
ROOT
ATOM      1  C   UNL     1      48.747   8.515  16.633  0.00  0.00    +0.000 A 
ATOM      2  C   UNL     1      48.669   8.446  15.249  0.00  0.00    +0.000 A 
ATOM      3  N   UNL     1      48.608   7.131  14.861  0.00  0.00    +0.000 N 
ATOM      4  C   UNL     1      48.661   6.328  15.968  0.00  0.00    +0.000 A 
ATOM      5  N   UNL     1      48.649   4.980  15.948  0.00  0.00    +0.000 NA
ATOM      6  C   UNL     1      48.671   4.422  17.184  0.00  0.00    +0.000 A 
ATOM      7  C   UNL     1      48.705   5.113  18.391  0.00  0.00    +0.000 A 
ATOM      8  C   UNL     1      48.745   6.510  18.349  0.00  0.00    +0.000 A 
ATOM      9  C   UNL     1      48.720   7.150  17.091  0.00  0.00    +0.000 A 
ENDROOT
BRANCH   7  10
ATOM     10  C   UNL     1      48.693   4.328  19.649  0.00  0.00    +0.000 C 
ATOM     11  N   UNL     1      48.332   3.011  19.598  0.00  0.00    +0.000 N 
ATOM     12  O   UNL     1      49.012   4.836  20.718  0.00  0.00    +0.000 OA
ATOM     13  H   UNL     1      48.110   2.495  18.762  0.00  0.00    +0.000 HD
ATOM     14  H   UNL     1      48.366   2.496  20.470  0.00  0.00    +0.000 HD
ENDBRANCH   7  10
BRANCH   1  16
ATOM     15  C   UNL     1      50.134   9.796  18.335  0.00  0.00    +0.000 C 
ATOM     16  C   UNL     1      48.847   9.788  17.475  0.00  0.00    +0.000 C 
ATOM     17  C   UNL     1      47.649   9.895  18.441  0.00  0.00    +0.000 C 
ATOM     18  C   UNL     1      48.889  11.037  16.573  0.00  0.00    +0.000 C 
ENDBRANCH   1  16
BRANCH   3  19
ATOM     19  C   UNL     1      48.555   6.673  13.480  0.00  0.00    +0.000 C 
BRANCH  19  20
ATOM     20  C   UNL     1      47.137   6.508  13.008  0.00  0.00    +0.000 A 
ATOM     21  N   UNL     1      46.555   5.285  13.227  0.00  0.00    +0.000 NA
ATOM     22  C   UNL     1      45.281   5.134  12.783  0.00  0.00    +0.000 A 
ATOM     23  C   UNL     1      44.602   6.156  12.144  0.00  0.00    +0.000 A 
ATOM     24  N   UNL     1      45.149   7.382  11.934  0.00  0.00    +0.000 NA
ATOM     25  C   UNL     1      46.420   7.529  12.379  0.00  0.00    +0.000 A 
ATOM     26 CL   UNL     1      46.996   9.131  12.166  0.00  0.00    +0.000 Cl
BRANCH  23  27
ATOM     27  C   UNL     1      43.213   5.941  11.655  0.00  0.00    +0.000 C 
ATOM     28  N   UNL     1      42.580   7.055  11.172  0.00  0.00    +0.000 N 
ATOM     29  O   UNL     1      42.675   4.843  11.677  0.00  0.00    +0.000 OA
ATOM     30  H   UNL     1      43.061   7.949  11.158  0.00  0.00    +0.000 HD
ATOM     31  H   UNL     1      41.641   6.980  10.808  0.00  0.00    +0.000 HD
ENDBRANCH  23  27
ENDBRANCH  19  20
ENDBRANCH   3  19
TORSDOF 5
ENDMDL
MODEL 4
REMARK VINA RESULT:    -6.488      3.458      7.997
REMARK INTER + INTRA:          -8.851
REMARK INTER:                  -8.351
REMARK INTRA:                  -0.500
REMARK UNBOUND:                -0.466
REMARK  Name = 
REMARK  8 active torsions:
REMARK  status: ('A' for Active; 'I' for Inactive)
REMARK    1  A    between atoms: C_1  and  C_2
REMARK    2  A    between atoms: C_2  and  C_3
REMARK    3  A    between atoms: C_2  and  C_4
REMARK    4  A    between atoms: C_2  and  C_5
REMARK    5  A    between atoms: N_7  and  C_8
REMARK    6  A    between atoms: C_8  and  C_9
REMARK    7  A    between atoms: C_12  and  C_13
REMARK    8  A    between atoms: C_22  and  C_23
REMARK                            x       y       z     vdW  Elec       q    Type
REMARK                         _______ _______ _______ _____ _____    ______ ____
ROOT
ATOM      1  C   UNL     1      48.049   6.601  13.646  0.00  0.00    +0.000 A 
ATOM      2  C   UNL     1      48.203   6.010  14.892  0.00  0.00    +0.000 A 
ATOM      3  N   UNL     1      47.305   4.980  15.021  0.00  0.00    +0.000 N 
ATOM      4  C   UNL     1      46.548   4.891  13.884  0.00  0.00    +0.000 A 
ATOM      5  N   UNL     1      45.553   4.004  13.685  0.00  0.00    +0.000 NA
ATOM      6  C   UNL     1      44.984   4.099  12.457  0.00  0.00    +0.000 A 
ATOM      7  C   UNL     1      45.343   5.000  11.459  0.00  0.00    +0.000 A 
ATOM      8  C   UNL     1      46.364   5.915  11.734  0.00  0.00    +0.000 A 
ATOM      9  C   UNL     1      46.997   5.864  12.994  0.00  0.00    +0.000 A 
ENDROOT
BRANCH   7  10
ATOM     10  C   UNL     1      44.625   4.933  10.163  0.00  0.00    +0.000 C 
ATOM     11  N   UNL     1      45.339   5.088   9.008  0.00  0.00    +0.000 N 
ATOM     12  O   UNL     1      43.417   4.731  10.115  0.00  0.00    +0.000 OA
ATOM     13  H   UNL     1      46.338   5.201   8.946  0.00  0.00    +0.000 HD
ATOM     14  H   UNL     1      44.823   5.004   8.140  0.00  0.00    +0.000 HD
ENDBRANCH   7  10
BRANCH   1  16
ATOM     15  C   UNL     1      47.905   8.974  12.747  0.00  0.00    +0.000 C 
ATOM     16  C   UNL     1      48.838   7.792  13.101  0.00  0.00    +0.000 C 
ATOM     17  C   UNL     1      49.592   7.401  11.813  0.00  0.00    +0.000 C 
ATOM     18  C   UNL     1      49.848   8.302  14.149  0.00  0.00    +0.000 C 
ENDBRANCH   1  16
BRANCH   3  19
ATOM     19  C   UNL     1      47.152   4.155  16.211  0.00  0.00    +0.000 C 
BRANCH  19  20
ATOM     20  C   UNL     1      48.221   4.450  17.228  0.00  0.00    +0.000 A 
ATOM     21  N   UNL     1      48.071   5.600  17.959  0.00  0.00    +0.000 NA
ATOM     22  C   UNL     1      49.047   5.873  18.864  0.00  0.00    +0.000 A 
ATOM     23  C   UNL     1      50.134   5.036  19.042  0.00  0.00    +0.000 A 
ATOM     24  N   UNL     1      50.294   3.881  18.344  0.00  0.00    +0.000 NA
ATOM     25  C   UNL     1      49.318   3.613  17.444  0.00  0.00    +0.000 A 
ATOM     26 CL   UNL     1      49.544   2.091  16.684  0.00  0.00    +0.000 Cl
BRANCH  23  27
ATOM     27  C   UNL     1      51.191   5.383  20.029  0.00  0.00    +0.000 C 
ATOM     28  N   UNL     1      52.479   5.160  19.617  0.00  0.00    +0.000 N 
ATOM     29  O   UNL     1      50.931   5.842  21.133  0.00  0.00    +0.000 OA
ATOM     30  H   UNL     1      52.660   4.789  18.690  0.00  0.00    +0.000 HD
ATOM     31  H   UNL     1      53.248   5.388  20.229  0.00  0.00    +0.000 HD
ENDBRANCH  23  27
ENDBRANCH  19  20
ENDBRANCH   3  19
TORSDOF 5
ENDMDL
MODEL 5
REMARK VINA RESULT:    -6.479      4.657      8.457
REMARK INTER + INTRA:          -8.839
REMARK INTER:                  -8.028
REMARK INTRA:                  -0.811
REMARK UNBOUND:                -0.466
REMARK  Name = 
REMARK  8 active torsions:
REMARK  status: ('A' for Active; 'I' for Inactive)
REMARK    1  A    between atoms: C_1  and  C_2
REMARK    2  A    between atoms: C_2  and  C_3
REMARK    3  A    between atoms: C_2  and  C_4
REMARK    4  A    between atoms: C_2  and  C_5
REMARK    5  A    between atoms: N_7  and  C_8
REMARK    6  A    between atoms: C_8  and  C_9
REMARK    7  A    between atoms: C_12  and  C_13
REMARK    8  A    between atoms: C_22  and  C_23
REMARK                            x       y       z     vdW  Elec       q    Type
REMARK                         _______ _______ _______ _____ _____    ______ ____
ROOT
ATOM      1  C   UNL     1      45.759   5.712  12.517  0.00  0.00    +0.000 A 
ATOM      2  C   UNL     1      46.961   5.555  13.193  0.00  0.00    +0.000 A 
ATOM      3  N   UNL     1      47.555   6.781  13.357  0.00  0.00    +0.000 N 
ATOM      4  C   UNL     1      46.771   7.746  12.786  0.00  0.00    +0.000 A 
ATOM      5  N   UNL     1      47.068   9.060  12.744  0.00  0.00    +0.000 NA
ATOM      6  C   UNL     1      46.105   9.812  12.154  0.00  0.00    +0.000 A 
ATOM      7  C   UNL     1      44.910   9.338  11.625  0.00  0.00    +0.000 A 
ATOM      8  C   UNL     1      44.668   7.961  11.672  0.00  0.00    +0.000 A 
ATOM      9  C   UNL     1      45.632   7.126  12.276  0.00  0.00    +0.000 A 
ENDROOT
BRANCH   7  10
ATOM     10  C   UNL     1      43.961  10.319  11.045  0.00  0.00    +0.000 C 
ATOM     11  N   UNL     1      43.630  10.211   9.723  0.00  0.00    +0.000 N 
ATOM     12  O   UNL     1      43.466  11.207  11.731  0.00  0.00    +0.000 OA
ATOM     13  H   UNL     1      43.940   9.486   9.098  0.00  0.00    +0.000 HD
ATOM     14  H   UNL     1      42.955  10.878   9.368  0.00  0.00    +0.000 HD
ENDBRANCH   7  10
BRANCH   1  16
ATOM     15  C   UNL     1      44.478   4.642  10.600  0.00  0.00    +0.000 C 
ATOM     16  C   UNL     1      44.790   4.599  12.115  0.00  0.00    +0.000 C 
ATOM     17  C   UNL     1      43.450   4.750  12.864  0.00  0.00    +0.000 C 
ATOM     18  C   UNL     1      45.393   3.214  12.422  0.00  0.00    +0.000 C 
ENDBRANCH   1  16
BRANCH   3  19
ATOM     19  C   UNL     1      48.847   7.001  13.992  0.00  0.00    +0.000 C 
BRANCH  19  20
ATOM     20  C   UNL     1      48.773   6.797  15.480  0.00  0.00    +0.000 A 
ATOM     21  N   UNL     1      48.914   5.509  15.930  0.00  0.00    +0.000 NA
ATOM     22  C   UNL     1      48.829   5.326  17.274  0.00  0.00    +0.000 A 
ATOM     23  C   UNL     1      48.613   6.380  18.144  0.00  0.00    +0.000 A 
ATOM     24  N   UNL     1      48.491   7.667  17.723  0.00  0.00    +0.000 NA
ATOM     25  C   UNL     1      48.577   7.845  16.383  0.00  0.00    +0.000 A 
ATOM     26 CL   UNL     1      48.516   9.503  15.948  0.00  0.00    +0.000 Cl
BRANCH  23  27
ATOM     27  C   UNL     1      48.505   6.133  19.607  0.00  0.00    +0.000 C 
ATOM     28  N   UNL     1      47.330   5.567  20.024  0.00  0.00    +0.000 N 
ATOM     29  O   UNL     1      49.407   6.410  20.385  0.00  0.00    +0.000 OA
ATOM     30  H   UNL     1      46.607   5.338  19.349  0.00  0.00    +0.000 HD
ATOM     31  H   UNL     1      47.194   5.354  21.001  0.00  0.00    +0.000 HD
ENDBRANCH  23  27
ENDBRANCH  19  20
ENDBRANCH   3  19
TORSDOF 5
ENDMDL
MODEL 6
REMARK VINA RESULT:    -5.898      4.256      6.228
REMARK INTER + INTRA:          -8.089
REMARK INTER:                  -7.471
REMARK INTRA:                  -0.617
REMARK UNBOUND:                -0.466
REMARK  Name = 
REMARK  8 active torsions:
REMARK  status: ('A' for Active; 'I' for Inactive)
REMARK    1  A    between atoms: C_1  and  C_2
REMARK    2  A    between atoms: C_2  and  C_3
REMARK    3  A    between atoms: C_2  and  C_4
REMARK    4  A    between atoms: C_2  and  C_5
REMARK    5  A    between atoms: N_7  and  C_8
REMARK    6  A    between atoms: C_8  and  C_9
REMARK    7  A    between atoms: C_12  and  C_13
REMARK    8  A    between atoms: C_22  and  C_23
REMARK                            x       y       z     vdW  Elec       q    Type
REMARK                         _______ _______ _______ _____ _____    ______ ____
ROOT
ATOM      1  C   UNL     1      45.899   5.513  12.586  0.00  0.00    +0.000 A 
ATOM      2  C   UNL     1      46.310   6.779  12.193  0.00  0.00    +0.000 A 
ATOM      3  N   UNL     1      47.277   7.232  13.055  0.00  0.00    +0.000 N 
ATOM      4  C   UNL     1      47.501   6.290  14.022  0.00  0.00    +0.000 A 
ATOM      5  N   UNL     1      48.371   6.422  15.044  0.00  0.00    +0.000 NA
ATOM      6  C   UNL     1      48.432   5.328  15.843  0.00  0.00    +0.000 A 
ATOM      7  C   UNL     1      47.698   4.157  15.683  0.00  0.00    +0.000 A 
ATOM      8  C   UNL     1      46.790   4.089  14.621  0.00  0.00    +0.000 A 
ATOM      9  C   UNL     1      46.683   5.195  13.751  0.00  0.00    +0.000 A 
ENDROOT
BRANCH   7  10
ATOM     10  C   UNL     1      47.923   3.050  16.644  0.00  0.00    +0.000 C 
ATOM     11  N   UNL     1      46.999   2.835  17.627  0.00  0.00    +0.000 N 
ATOM     12  O   UNL     1      48.909   2.326  16.560  0.00  0.00    +0.000 OA
ATOM     13  H   UNL     1      46.135   3.340  17.740  0.00  0.00    +0.000 HD
ATOM     14  H   UNL     1      47.167   2.051  18.246  0.00  0.00    +0.000 HD
ENDBRANCH   7  10
BRANCH   1  16
ATOM     15  C   UNL     1      43.462   4.790  12.627  0.00  0.00    +0.000 C 
ATOM     16  C   UNL     1      44.828   4.655  11.911  0.00  0.00    +0.000 C 
ATOM     17  C   UNL     1      45.221   3.164  11.952  0.00  0.00    +0.000 C 
ATOM     18  C   UNL     1      44.624   5.090  10.446  0.00  0.00    +0.000 C 
ENDBRANCH   1  16
BRANCH   3  19
ATOM     19  C   UNL     1      47.917   8.537  12.975  0.00  0.00    +0.000 C 
BRANCH  19  20
ATOM     20  C   UNL     1      49.356   8.423  12.553  0.00  0.00    +0.000 A 
ATOM     21  N   UNL     1      49.596   7.810  11.350  0.00  0.00    +0.000 NA
ATOM     22  C   UNL     1      50.897   7.692  10.981  0.00  0.00    +0.000 A 
ATOM     23  C   UNL     1      51.929   8.165  11.773  0.00  0.00    +0.000 A 
ATOM     24  N   UNL     1      51.715   8.794  12.959  0.00  0.00    +0.000 NA
ATOM     25  C   UNL     1      50.416   8.910  13.322  0.00  0.00    +0.000 A 
ATOM     26 CL   UNL     1      50.231   9.803  14.775  0.00  0.00    +0.000 Cl
BRANCH  23  27
ATOM     27  C   UNL     1      53.342   7.996  11.340  0.00  0.00    +0.000 C 
ATOM     28  N   UNL     1      54.089   7.130  12.093  0.00  0.00    +0.000 N 
ATOM     29  O   UNL     1      53.805   8.586  10.375  0.00  0.00    +0.000 OA
ATOM     30  H   UNL     1      53.670   6.647  12.882  0.00  0.00    +0.000 HD
ATOM     31  H   UNL     1      55.053   6.953  11.848  0.00  0.00    +0.000 HD
ENDBRANCH  23  27
ENDBRANCH  19  20
ENDBRANCH   3  19
TORSDOF 5
ENDMDL
MODEL 7
REMARK VINA RESULT:    -5.770      4.102      6.520
REMARK INTER + INTRA:          -7.923
REMARK INTER:                  -7.338
REMARK INTRA:                  -0.585
REMARK UNBOUND:                -0.466
REMARK  Name = 
REMARK  8 active torsions:
REMARK  status: ('A' for Active; 'I' for Inactive)
REMARK    1  A    between atoms: C_1  and  C_2
REMARK    2  A    between atoms: C_2  and  C_3
REMARK    3  A    between atoms: C_2  and  C_4
REMARK    4  A    between atoms: C_2  and  C_5
REMARK    5  A    between atoms: N_7  and  C_8
REMARK    6  A    between atoms: C_8  and  C_9
REMARK    7  A    between atoms: C_12  and  C_13
REMARK    8  A    between atoms: C_22  and  C_23
REMARK                            x       y       z     vdW  Elec       q    Type
REMARK                         _______ _______ _______ _____ _____    ______ ____
ROOT
ATOM      1  C   UNL     1      48.362   5.665  16.724  0.00  0.00    +0.000 A 
ATOM      2  C   UNL     1      47.985   5.461  15.404  0.00  0.00    +0.000 A 
ATOM      3  N   UNL     1      48.480   6.477  14.627  0.00  0.00    +0.000 N 
ATOM      4  C   UNL     1      49.166   7.361  15.416  0.00  0.00    +0.000 A 
ATOM      5  N   UNL     1      49.760   8.489  14.978  0.00  0.00    +0.000 NA
ATOM      6  C   UNL     1      50.407   9.171  15.956  0.00  0.00    +0.000 A 
ATOM      7  C   UNL     1      50.487   8.799  17.294  0.00  0.00    +0.000 A 
ATOM      8  C   UNL     1      49.828   7.634  17.695  0.00  0.00    +0.000 A 
ATOM      9  C   UNL     1      49.139   6.878  16.722  0.00  0.00    +0.000 A 
ENDROOT
BRANCH   7  10
ATOM     10  C   UNL     1      51.270   9.659  18.215  0.00  0.00    +0.000 C 
ATOM     11  N   UNL     1      50.941  10.982  18.317  0.00  0.00    +0.000 N 
ATOM     12  O   UNL     1      52.187   9.202  18.887  0.00  0.00    +0.000 OA
ATOM     13  H   UNL     1      50.172  11.433  17.850  0.00  0.00    +0.000 HD
ATOM     14  H   UNL     1      51.475  11.534  18.979  0.00  0.00    +0.000 HD
ENDBRANCH   7  10
BRANCH   1  16
ATOM     15  C   UNL     1      47.144   5.540  18.952  0.00  0.00    +0.000 C 
ATOM     16  C   UNL     1      48.008   4.778  17.919  0.00  0.00    +0.000 C 
ATOM     17  C   UNL     1      49.286   4.311  18.646  0.00  0.00    +0.000 C 
ATOM     18  C   UNL     1      47.200   3.546  17.463  0.00  0.00    +0.000 C 
ENDBRANCH   1  16
BRANCH   3  19
ATOM     19  C   UNL     1      48.254   6.614  13.195  0.00  0.00    +0.000 C 
BRANCH  19  20
ATOM     20  C   UNL     1      46.855   6.215  12.817  0.00  0.00    +0.000 A 
ATOM     21  N   UNL     1      46.631   4.877  12.618  0.00  0.00    +0.000 NA
ATOM     22  C   UNL     1      45.369   4.522  12.259  0.00  0.00    +0.000 A 
ATOM     23  C   UNL     1      44.362   5.457  12.102  0.00  0.00    +0.000 A 
ATOM     24  N   UNL     1      44.555   6.786  12.314  0.00  0.00    +0.000 NA
ATOM     25  C   UNL     1      45.813   7.135  12.672  0.00  0.00    +0.000 A 
ATOM     26 CL   UNL     1      45.943   8.811  13.017  0.00  0.00    +0.000 Cl
BRANCH  23  27
ATOM     27  C   UNL     1      43.000   5.027  11.688  0.00  0.00    +0.000 C 
ATOM     28  N   UNL     1      42.030   5.992  11.763  0.00  0.00    +0.000 N 
ATOM     29  O   UNL     1      42.761   3.892  11.301  0.00  0.00    +0.000 OA
ATOM     30  H   UNL     1      42.265   6.928  12.077  0.00  0.00    +0.000 HD
ATOM     31  H   UNL     1      41.085   5.776  11.481  0.00  0.00    +0.000 HD
ENDBRANCH  23  27
ENDBRANCH  19  20
ENDBRANCH   3  19
TORSDOF 5
ENDMDL
MODEL 8
REMARK VINA RESULT:    -5.618      4.446      7.057
REMARK INTER + INTRA:          -7.726
REMARK INTER:                  -6.989
REMARK INTRA:                  -0.738
REMARK UNBOUND:                -0.466
REMARK  Name = 
REMARK  8 active torsions:
REMARK  status: ('A' for Active; 'I' for Inactive)
REMARK    1  A    between atoms: C_1  and  C_2
REMARK    2  A    between atoms: C_2  and  C_3
REMARK    3  A    between atoms: C_2  and  C_4
REMARK    4  A    between atoms: C_2  and  C_5
REMARK    5  A    between atoms: N_7  and  C_8
REMARK    6  A    between atoms: C_8  and  C_9
REMARK    7  A    between atoms: C_12  and  C_13
REMARK    8  A    between atoms: C_22  and  C_23
REMARK                            x       y       z     vdW  Elec       q    Type
REMARK                         _______ _______ _______ _____ _____    ______ ____
ROOT
ATOM      1  C   UNL     1      49.530   6.136  17.637  0.00  0.00    +0.000 A 
ATOM      2  C   UNL     1      49.509   5.867  16.276  0.00  0.00    +0.000 A 
ATOM      3  N   UNL     1      48.975   6.940  15.608  0.00  0.00    +0.000 N 
ATOM      4  C   UNL     1      48.625   7.909  16.509  0.00  0.00    +0.000 A 
ATOM      5  N   UNL     1      48.048   9.086  16.195  0.00  0.00    +0.000 NA
ATOM      6  C   UNL     1      47.839   9.887  17.269  0.00  0.00    +0.000 A 
ATOM      7  C   UNL     1      48.162   9.585  18.588  0.00  0.00    +0.000 A 
ATOM      8  C   UNL     1      48.734   8.337  18.857  0.00  0.00    +0.000 A 
ATOM      9  C   UNL     1      48.979   7.460  17.779  0.00  0.00    +0.000 A 
ENDROOT
BRANCH   7  10
ATOM     10  C   UNL     1      47.886  10.604  19.630  0.00  0.00    +0.000 C 
ATOM     11  N   UNL     1      48.635  10.595  20.773  0.00  0.00    +0.000 N 
ATOM     12  O   UNL     1      47.014  11.451  19.474  0.00  0.00    +0.000 OA
ATOM     13  H   UNL     1      49.406   9.976  20.964  0.00  0.00    +0.000 HD
ATOM     14  H   UNL     1      48.441  11.324  21.449  0.00  0.00    +0.000 HD
ENDBRANCH   7  10
BRANCH   1  16
ATOM     15  C   UNL     1      51.113   5.887  19.610  0.00  0.00    +0.000 C 
ATOM     16  C   UNL     1      50.031   5.203  18.741  0.00  0.00    +0.000 C 
ATOM     17  C   UNL     1      50.665   3.935  18.133  0.00  0.00    +0.000 C 
ATOM     18  C   UNL     1      48.876   4.798  19.678  0.00  0.00    +0.000 C 
ENDBRANCH   1  16
BRANCH   3  19
ATOM     19  C   UNL     1      48.763   7.001  14.169  0.00  0.00    +0.000 C 
BRANCH  19  20
ATOM     20  C   UNL     1      47.529   6.244  13.760  0.00  0.00    +0.000 A 
ATOM     21  N   UNL     1      47.581   4.879  13.877  0.00  0.00    +0.000 NA
ATOM     22  C   UNL     1      46.471   4.197  13.490  0.00  0.00    +0.000 A 
ATOM     23  C   UNL     1      45.348   4.842  13.004  0.00  0.00    +0.000 A 
ATOM     24  N   UNL     1      45.265   6.194  12.899  0.00  0.00    +0.000 NA
ATOM     25  C   UNL     1      46.373   6.870  13.286  0.00  0.00    +0.000 A 
ATOM     26 CL   UNL     1      46.148   8.570  13.218  0.00  0.00    +0.000 Cl
BRANCH  23  27
ATOM     27  C   UNL     1      44.162   4.055  12.572  0.00  0.00    +0.000 C 
ATOM     28  N   UNL     1      44.345   2.699  12.511  0.00  0.00    +0.000 N 
ATOM     29  O   UNL     1      43.093   4.581  12.295  0.00  0.00    +0.000 OA
ATOM     30  H   UNL     1      45.242   2.294  12.759  0.00  0.00    +0.000 HD
ATOM     31  H   UNL     1      43.578   2.100  12.242  0.00  0.00    +0.000 HD
ENDBRANCH  23  27
ENDBRANCH  19  20
ENDBRANCH   3  19
TORSDOF 5
ENDMDL
MODEL 9
REMARK VINA RESULT:    -5.559      2.343      3.331
REMARK INTER + INTRA:          -7.651
REMARK INTER:                  -7.054
REMARK INTRA:                  -0.597
REMARK UNBOUND:                -0.466
REMARK  Name = 
REMARK  8 active torsions:
REMARK  status: ('A' for Active; 'I' for Inactive)
REMARK    1  A    between atoms: C_1  and  C_2
REMARK    2  A    between atoms: C_2  and  C_3
REMARK    3  A    between atoms: C_2  and  C_4
REMARK    4  A    between atoms: C_2  and  C_5
REMARK    5  A    between atoms: N_7  and  C_8
REMARK    6  A    between atoms: C_8  and  C_9
REMARK    7  A    between atoms: C_12  and  C_13
REMARK    8  A    between atoms: C_22  and  C_23
REMARK                            x       y       z     vdW  Elec       q    Type
REMARK                         _______ _______ _______ _____ _____    ______ ____
ROOT
ATOM      1  C   UNL     1      47.948   9.329  12.237  0.00  0.00    +0.000 A 
ATOM      2  C   UNL     1      46.655   9.123  11.776  0.00  0.00    +0.000 A 
ATOM      3  N   UNL     1      46.118   8.025  12.400  0.00  0.00    +0.000 N 
ATOM      4  C   UNL     1      47.042   7.491  13.256  0.00  0.00    +0.000 A 
ATOM      5  N   UNL     1      46.853   6.391  14.011  0.00  0.00    +0.000 NA
ATOM      6  C   UNL     1      47.912   6.092  14.804  0.00  0.00    +0.000 A 
ATOM      7  C   UNL     1      49.103   6.807  14.878  0.00  0.00    +0.000 A 
ATOM      8  C   UNL     1      49.253   7.925  14.051  0.00  0.00    +0.000 A 
ATOM      9  C   UNL     1      48.184   8.288  13.205  0.00  0.00    +0.000 A 
ENDROOT
BRANCH   7  10
ATOM     10  C   UNL     1      50.140   6.345  15.832  0.00  0.00    +0.000 C 
ATOM     11  N   UNL     1      51.355   6.971  15.836  0.00  0.00    +0.000 N 
ATOM     12  O   UNL     1      49.920   5.429  16.617  0.00  0.00    +0.000 OA
ATOM     13  H   UNL     1      51.607   7.765  15.270  0.00  0.00    +0.000 HD
ATOM     14  H   UNL     1      52.029   6.652  16.522  0.00  0.00    +0.000 HD
ENDBRANCH   7  10
BRANCH   1  16
ATOM     15  C   UNL     1      50.229   9.845  11.243  0.00  0.00    +0.000 C 
ATOM     16  C   UNL     1      48.907  10.433  11.792  0.00  0.00    +0.000 C 
ATOM     17  C   UNL     1      49.271  11.349  12.979  0.00  0.00    +0.000 C 
ATOM     18  C   UNL     1      48.279  11.281  10.667  0.00  0.00    +0.000 C 
ENDBRANCH   1  16
BRANCH   3  19
ATOM     19  C   UNL     1      44.790   7.488  12.138  0.00  0.00    +0.000 C 
BRANCH  19  20
ATOM     20  C   UNL     1      44.847   6.300  11.217  0.00  0.00    +0.000 A 
ATOM     21  N   UNL     1      45.894   6.260  10.333  0.00  0.00    +0.000 NA
ATOM     22  C   UNL     1      45.932   5.195   9.490  0.00  0.00    +0.000 A 
ATOM     23  C   UNL     1      44.969   4.202   9.521  0.00  0.00    +0.000 A 
ATOM     24  N   UNL     1      43.934   4.210  10.402  0.00  0.00    +0.000 NA
ATOM     25  C   UNL     1      43.900   5.273  11.241  0.00  0.00    +0.000 A 
ATOM     26 CL   UNL     1      42.625   5.153  12.383  0.00  0.00    +0.000 Cl
BRANCH  23  27
ATOM     27  C   UNL     1      45.037   3.063   8.566  0.00  0.00    +0.000 C 
ATOM     28  N   UNL     1      44.932   1.818   9.126  0.00  0.00    +0.000 N 
ATOM     29  O   UNL     1      45.173   3.227   7.362  0.00  0.00    +0.000 OA
ATOM     30  H   UNL     1      44.808   1.719  10.129  0.00  0.00    +0.000 HD
ATOM     31  H   UNL     1      44.952   0.999   8.536  0.00  0.00    +0.000 HD
ENDBRANCH  23  27
ENDBRANCH  19  20
ENDBRANCH   3  19
TORSDOF 5
ENDMDL
