MODEL 1
REMARK VINA RESULT:    -8.715      0.000      0.000
REMARK INTER + INTRA:         -12.437
REMARK INTER:                 -11.518
REMARK INTRA:                  -0.920
REMARK UNBOUND:                -0.920
REMARK  Name = 
REMARK  7 active torsions:
REMARK  status: ('A' for Active; 'I' for Inactive)
REMARK    1  A    between atoms: C_1  and  C_2
REMARK    2  A    between atoms: C_2  and  N_3
REMARK    3  A    between atoms: C_2  and  C_16
REMARK    4  A    between atoms: C_4  and  C_6
REMARK    5  A    between atoms: C_19  and  C_20
REMARK    6  A    between atoms: C_20  and  O_21
REMARK    7  A    between atoms: C_20  and  C_22
REMARK                            x       y       z     vdW  Elec       q    Type
REMARK                         _______ _______ _______ _____ _____    ______ ____
ROOT
ATOM      1  C   UNL     1      45.734   8.877  13.133  0.00  0.00    +0.000 C 
ATOM      2  C   UNL     1      46.804   7.790  12.964  0.00  0.00    +0.000 C 
ENDROOT
BRANCH   2   3
ATOM      3  C   UNL     1      46.270   6.674  12.077  0.00  0.00    +0.000 A 
ATOM      4  C   UNL     1      45.383   5.709  12.572  0.00  0.00    +0.000 A 
ATOM      5  C   UNL     1      44.831   4.743  11.718  0.00  0.00    +0.000 A 
ATOM      6  C   UNL     1      45.147   4.728  10.349  0.00  0.00    +0.000 A 
ATOM      7  C   UNL     1      46.083   5.658   9.874  0.00  0.00    +0.000 A 
ATOM      8  C   UNL     1      46.628   6.620  10.721  0.00  0.00    +0.000 A 
BRANCH   6   9
ATOM      9  C   UNL     1      44.489   3.736   9.405  0.00  0.00    +0.000 C 
BRANCH   9  10
ATOM     10  C   UNL     1      45.474   3.020   8.493  0.00  0.00    +0.000 A 
ATOM     11  C   UNL     1      46.070   3.694   7.428  0.00  0.00    +0.000 A 
ATOM     12  C   UNL     1      46.943   2.999   6.598  0.00  0.00    +0.000 A 
ATOM     13  C   UNL     1      47.200   1.657   6.851  0.00  0.00    +0.000 A 
ATOM     14  C   UNL     1      46.587   1.064   7.941  0.00  0.00    +0.000 A 
ATOM     15  N   UNL     1      45.741   1.712   8.774  0.00  0.00    +0.000 NA
ENDBRANCH   9  10
BRANCH   9  16
ATOM     16  O   UNL     1      43.513   4.424   8.604  0.00  0.00    +0.000 OA
ATOM     17  H   UNL     1      42.657   4.165   9.002  0.00  0.00    +0.000 HD
ENDBRANCH   9  16
ENDBRANCH   6   9
ENDBRANCH   2   3
BRANCH   2  18
ATOM     18  N   UNL     1      47.234   7.211  14.231  0.00  0.00    +0.000 N 
ATOM     19  C   UNL     1      48.517   6.797  14.483  0.00  0.00    +0.000 C 
ATOM     20  O   UNL     1      49.426   6.922  13.668  0.00  0.00    +0.000 OA
ATOM     21  H   UNL     1      46.493   6.815  14.804  0.00  0.00    +0.000 HD
BRANCH  19  22
ATOM     22  C   UNL     1      48.775   6.250  15.821  0.00  0.00    +0.000 A 
ATOM     23  C   UNL     1      49.624   6.927  16.687  0.00  0.00    +0.000 A 
ATOM     24  S   UNL     1      49.819   6.158  18.196  0.00  0.00    +0.000 S 
ATOM     25  C   UNL     1      48.809   4.870  17.736  0.00  0.00    +0.000 A 
ATOM     26  N   UNL     1      48.579   3.823  18.569  0.00  0.00    +0.000 NA
ATOM     27  C   UNL     1      47.810   2.906  18.079  0.00  0.00    +0.000 A 
ATOM     28  N   UNL     1      47.237   2.956  16.837  0.00  0.00    +0.000 N 
ATOM     29  C   UNL     1      47.417   4.005  15.968  0.00  0.00    +0.000 A 
ATOM     30  O   UNL     1      46.853   4.043  14.876  0.00  0.00    +0.000 OA
ATOM     31  C   UNL     1      48.295   5.048  16.460  0.00  0.00    +0.000 A 
ATOM     32  H   UNL     1      46.627   2.214  16.517  0.00  0.00    +0.000 HD
ENDBRANCH  19  22
ENDBRANCH   2  18
TORSDOF 6
ENDMDL
MODEL 2
REMARK VINA RESULT:    -8.390      1.930      2.647
REMARK INTER + INTRA:         -12.007
REMARK INTER:                 -11.046
REMARK INTRA:                  -0.962
REMARK UNBOUND:                -0.920
REMARK  Name = 
REMARK  7 active torsions:
REMARK  status: ('A' for Active; 'I' for Inactive)
REMARK    1  A    between atoms: C_1  and  C_2
REMARK    2  A    between atoms: C_2  and  N_3
REMARK    3  A    between atoms: C_2  and  C_16
REMARK    4  A    between atoms: C_4  and  C_6
REMARK    5  A    between atoms: C_19  and  C_20
REMARK    6  A    between atoms: C_20  and  O_21
REMARK    7  A    between atoms: C_20  and  C_22
REMARK                            x       y       z     vdW  Elec       q    Type
REMARK                         _______ _______ _______ _____ _____    ______ ____
ROOT
ATOM      1  C   UNL     1      47.431   8.534  13.736  0.00  0.00    +0.000 C 
ATOM      2  C   UNL     1      47.810   7.048  13.680  0.00  0.00    +0.000 C 
ENDROOT
BRANCH   2   3
ATOM      3  C   UNL     1      46.851   6.305  12.760  0.00  0.00    +0.000 A 
ATOM      4  C   UNL     1      46.451   6.846  11.532  0.00  0.00    +0.000 A 
ATOM      5  C   UNL     1      45.641   6.109  10.658  0.00  0.00    +0.000 A 
ATOM      6  C   UNL     1      45.220   4.810  10.990  0.00  0.00    +0.000 A 
ATOM      7  C   UNL     1      45.573   4.299  12.247  0.00  0.00    +0.000 A 
ATOM      8  C   UNL     1      46.383   5.030  13.114  0.00  0.00    +0.000 A 
BRANCH   6   9
ATOM      9  C   UNL     1      44.410   3.976  10.012  0.00  0.00    +0.000 C 
BRANCH   9  10
ATOM     10  C   UNL     1      45.251   3.330   8.921  0.00  0.00    +0.000 A 
ATOM     11  C   UNL     1      45.542   1.967   8.966  0.00  0.00    +0.000 A 
ATOM     12  C   UNL     1      46.337   1.417   7.966  0.00  0.00    +0.000 A 
ATOM     13  C   UNL     1      46.817   2.235   6.950  0.00  0.00    +0.000 A 
ATOM     14  C   UNL     1      46.465   3.574   6.963  0.00  0.00    +0.000 A 
ATOM     15  N   UNL     1      45.687   4.139   7.913  0.00  0.00    +0.000 NA
ENDBRANCH   9  10
BRANCH   9  16
ATOM     16  O   UNL     1      43.402   4.804   9.409  0.00  0.00    +0.000 OA
ATOM     17  H   UNL     1      43.260   4.400   8.529  0.00  0.00    +0.000 HD
ENDBRANCH   9  16
ENDBRANCH   6   9
ENDBRANCH   2   3
BRANCH   2  18
ATOM     18  N   UNL     1      47.791   6.405  14.988  0.00  0.00    +0.000 N 
ATOM     19  C   UNL     1      48.906   6.231  15.768  0.00  0.00    +0.000 C 
ATOM     20  O   UNL     1      50.014   6.646  15.443  0.00  0.00    +0.000 OA
ATOM     21  H   UNL     1      46.998   5.793  15.163  0.00  0.00    +0.000 HD
BRANCH  19  22
ATOM     22  C   UNL     1      48.699   5.574  17.065  0.00  0.00    +0.000 A 
ATOM     23  C   UNL     1      48.817   4.193  17.161  0.00  0.00    +0.000 A 
ATOM     24  S   UNL     1      48.542   3.590  18.731  0.00  0.00    +0.000 S 
ATOM     25  C   UNL     1      48.216   5.145  19.335  0.00  0.00    +0.000 A 
ATOM     26  N   UNL     1      47.862   5.337  20.632  0.00  0.00    +0.000 NA
ATOM     27  C   UNL     1      47.621   6.568  20.946  0.00  0.00    +0.000 A 
ATOM     28  N   UNL     1      47.722   7.624  20.080  0.00  0.00    +0.000 N 
ATOM     29  C   UNL     1      48.102   7.485  18.767  0.00  0.00    +0.000 A 
ATOM     30  O   UNL     1      48.227   8.457  18.024  0.00  0.00    +0.000 OA
ATOM     31  C   UNL     1      48.357   6.118  18.357  0.00  0.00    +0.000 A 
ATOM     32  H   UNL     1      47.539   8.569  20.391  0.00  0.00    +0.000 HD
ENDBRANCH  19  22
ENDBRANCH   2  18
TORSDOF 6
ENDMDL
MODEL 3
REMARK VINA RESULT:    -8.262      2.704      4.076
REMARK INTER + INTRA:         -11.839
REMARK INTER:                 -10.698
REMARK INTRA:                  -1.140
REMARK UNBOUND:                -0.920
REMARK  Name = 
REMARK  7 active torsions:
REMARK  status: ('A' for Active; 'I' for Inactive)
REMARK    1  A    between atoms: C_1  and  C_2
REMARK    2  A    between atoms: C_2  and  N_3
REMARK    3  A    between atoms: C_2  and  C_16
REMARK    4  A    between atoms: C_4  and  C_6
REMARK    5  A    between atoms: C_19  and  C_20
REMARK    6  A    between atoms: C_20  and  O_21
REMARK    7  A    between atoms: C_20  and  C_22
REMARK                            x       y       z     vdW  Elec       q    Type
REMARK                         _______ _______ _______ _____ _____    ______ ____
ROOT
ATOM      1  C   UNL     1      47.102   4.409  14.998  0.00  0.00    +0.000 C 
ATOM      2  C   UNL     1      46.760   5.565  14.049  0.00  0.00    +0.000 C 
ENDROOT
BRANCH   2   3
ATOM      3  C   UNL     1      46.079   5.024  12.800  0.00  0.00    +0.000 A 
ATOM      4  C   UNL     1      45.925   5.812  11.652  0.00  0.00    +0.000 A 
ATOM      5  C   UNL     1      45.378   5.268  10.482  0.00  0.00    +0.000 A 
ATOM      6  C   UNL     1      44.980   3.922  10.432  0.00  0.00    +0.000 A 
ATOM      7  C   UNL     1      45.079   3.157  11.602  0.00  0.00    +0.000 A 
ATOM      8  C   UNL     1      45.628   3.695  12.764  0.00  0.00    +0.000 A 
BRANCH   6   9
ATOM      9  C   UNL     1      44.462   3.306   9.143  0.00  0.00    +0.000 C 
BRANCH   9  10
ATOM     10  C   UNL     1      45.556   2.705   8.273  0.00  0.00    +0.000 A 
ATOM     11  C   UNL     1      46.187   3.476   7.298  0.00  0.00    +0.000 A 
ATOM     12  C   UNL     1      47.162   2.885   6.502  0.00  0.00    +0.000 A 
ATOM     13  C   UNL     1      47.484   1.547   6.698  0.00  0.00    +0.000 A 
ATOM     14  C   UNL     1      46.828   0.855   7.702  0.00  0.00    +0.000 A 
ATOM     15  N   UNL     1      45.883   1.400   8.500  0.00  0.00    +0.000 NA
ENDBRANCH   9  10
BRANCH   9  16
ATOM     16  O   UNL     1      43.755   4.308   8.393  0.00  0.00    +0.000 OA
ATOM     17  H   UNL     1      43.304   4.841   9.079  0.00  0.00    +0.000 HD
ENDBRANCH   9  16
ENDBRANCH   6   9
ENDBRANCH   2   3
BRANCH   2  18
ATOM     18  N   UNL     1      47.930   6.335  13.643  0.00  0.00    +0.000 N 
ATOM     19  C   UNL     1      47.944   7.703  13.542  0.00  0.00    +0.000 C 
ATOM     20  O   UNL     1      46.976   8.399  13.829  0.00  0.00    +0.000 OA
ATOM     21  H   UNL     1      48.631   5.819  13.119  0.00  0.00    +0.000 HD
BRANCH  19  22
ATOM     22  C   UNL     1      49.216   8.313  13.131  0.00  0.00    +0.000 A 
ATOM     23  C   UNL     1      49.248   9.150  12.024  0.00  0.00    +0.000 A 
ATOM     24  S   UNL     1      50.798   9.771  11.680  0.00  0.00    +0.000 S 
ATOM     25  C   UNL     1      51.493   8.914  12.973  0.00  0.00    +0.000 A 
ATOM     26  N   UNL     1      52.827   8.970  13.221  0.00  0.00    +0.000 NA
ATOM     27  C   UNL     1      53.218   8.250  14.220  0.00  0.00    +0.000 A 
ATOM     28  N   UNL     1      52.388   7.494  15.005  0.00  0.00    +0.000 N 
ATOM     29  C   UNL     1      51.029   7.426  14.813  0.00  0.00    +0.000 A 
ATOM     30  O   UNL     1      50.303   6.775  15.561  0.00  0.00    +0.000 OA
ATOM     31  C   UNL     1      50.543   8.195  13.685  0.00  0.00    +0.000 A 
ATOM     32  H   UNL     1      52.753   6.966  15.788  0.00  0.00    +0.000 HD
ENDBRANCH  19  22
ENDBRANCH   2  18
TORSDOF 6
ENDMDL
MODEL 4
REMARK VINA RESULT:    -8.111      1.679      2.242
REMARK INTER + INTRA:         -11.638
REMARK INTER:                 -10.659
REMARK INTRA:                  -0.979
REMARK UNBOUND:                -0.920
REMARK  Name = 
REMARK  7 active torsions:
REMARK  status: ('A' for Active; 'I' for Inactive)
REMARK    1  A    between atoms: C_1  and  C_2
REMARK    2  A    between atoms: C_2  and  N_3
REMARK    3  A    between atoms: C_2  and  C_16
REMARK    4  A    between atoms: C_4  and  C_6
REMARK    5  A    between atoms: C_19  and  C_20
REMARK    6  A    between atoms: C_20  and  O_21
REMARK    7  A    between atoms: C_20  and  C_22
REMARK                            x       y       z     vdW  Elec       q    Type
REMARK                         _______ _______ _______ _____ _____    ______ ____
ROOT
ATOM      1  C   UNL     1      48.408   8.922  13.062  0.00  0.00    +0.000 C 
ATOM      2  C   UNL     1      48.365   7.463  13.537  0.00  0.00    +0.000 C 
ENDROOT
BRANCH   2   3
ATOM      3  C   UNL     1      47.258   6.715  12.807  0.00  0.00    +0.000 A 
ATOM      4  C   UNL     1      46.561   7.300  11.743  0.00  0.00    +0.000 A 
ATOM      5  C   UNL     1      45.608   6.564  11.024  0.00  0.00    +0.000 A 
ATOM      6  C   UNL     1      45.339   5.225  11.350  0.00  0.00    +0.000 A 
ATOM      7  C   UNL     1      45.994   4.666  12.455  0.00  0.00    +0.000 A 
ATOM      8  C   UNL     1      46.945   5.395  13.167  0.00  0.00    +0.000 A 
BRANCH   6   9
ATOM      9  C   UNL     1      44.367   4.399  10.524  0.00  0.00    +0.000 C 
BRANCH   9  10
ATOM     10  C   UNL     1      45.034   3.615   9.403  0.00  0.00    +0.000 A 
ATOM     11  C   UNL     1      45.103   2.224   9.457  0.00  0.00    +0.000 A 
ATOM     12  C   UNL     1      45.745   1.544   8.428  0.00  0.00    +0.000 A 
ATOM     13  C   UNL     1      46.298   2.264   7.375  0.00  0.00    +0.000 A 
ATOM     14  C   UNL     1      46.168   3.642   7.383  0.00  0.00    +0.000 A 
ATOM     15  N   UNL     1      45.542   4.334   8.361  0.00  0.00    +0.000 NA
ENDBRANCH   9  10
BRANCH   9  16
ATOM     16  O   UNL     1      43.365   5.267   9.967  0.00  0.00    +0.000 OA
ATOM     17  H   UNL     1      42.947   5.677  10.751  0.00  0.00    +0.000 HD
ENDBRANCH   9  16
ENDBRANCH   6   9
ENDBRANCH   2   3
BRANCH   2  18
ATOM     18  N   UNL     1      48.144   7.336  14.972  0.00  0.00    +0.000 N 
ATOM     19  C   UNL     1      49.104   6.913  15.856  0.00  0.00    +0.000 C 
ATOM     20  O   UNL     1      50.251   6.646  15.513  0.00  0.00    +0.000 OA
ATOM     21  H   UNL     1      47.173   7.248  15.258  0.00  0.00    +0.000 HD
BRANCH  19  22
ATOM     22  C   UNL     1      48.709   6.859  17.270  0.00  0.00    +0.000 A 
ATOM     23  C   UNL     1      48.267   8.013  17.903  0.00  0.00    +0.000 A 
ATOM     24  S   UNL     1      47.853   7.780  19.541  0.00  0.00    +0.000 S 
ATOM     25  C   UNL     1      48.287   6.137  19.477  0.00  0.00    +0.000 A 
ATOM     26  N   UNL     1      48.212   5.346  20.578  0.00  0.00    +0.000 NA
ATOM     27  C   UNL     1      48.596   4.126  20.389  0.00  0.00    +0.000 A 
ATOM     28  N   UNL     1      49.029   3.625  19.190  0.00  0.00    +0.000 N 
ATOM     29  C   UNL     1      49.097   4.377  18.042  0.00  0.00    +0.000 A 
ATOM     30  O   UNL     1      49.447   3.889  16.970  0.00  0.00    +0.000 OA
ATOM     31  C   UNL     1      48.703   5.762  18.208  0.00  0.00    +0.000 A 
ATOM     32  H   UNL     1      49.298   2.653  19.101  0.00  0.00    +0.000 HD
ENDBRANCH  19  22
ENDBRANCH   2  18
TORSDOF 6
ENDMDL
MODEL 5
REMARK VINA RESULT:    -8.090      2.622      4.550
REMARK INTER + INTRA:         -11.610
REMARK INTER:                 -10.349
REMARK INTRA:                  -1.261
REMARK UNBOUND:                -0.920
REMARK  Name = 
REMARK  7 active torsions:
REMARK  status: ('A' for Active; 'I' for Inactive)
REMARK    1  A    between atoms: C_1  and  C_2
REMARK    2  A    between atoms: C_2  and  N_3
REMARK    3  A    between atoms: C_2  and  C_16
REMARK    4  A    between atoms: C_4  and  C_6
REMARK    5  A    between atoms: C_19  and  C_20
REMARK    6  A    between atoms: C_20  and  O_21
REMARK    7  A    between atoms: C_20  and  C_22
REMARK                            x       y       z     vdW  Elec       q    Type
REMARK                         _______ _______ _______ _____ _____    ______ ____
ROOT
ATOM      1  C   UNL     1      47.342   4.424  15.083  0.00  0.00    +0.000 C 
ATOM      2  C   UNL     1      46.940   5.602  14.185  0.00  0.00    +0.000 C 
ENDROOT
BRANCH   2   3
ATOM      3  C   UNL     1      46.204   5.086  12.956  0.00  0.00    +0.000 A 
ATOM      4  C   UNL     1      46.021   5.890  11.825  0.00  0.00    +0.000 A 
ATOM      5  C   UNL     1      45.422   5.369  10.669  0.00  0.00    +0.000 A 
ATOM      6  C   UNL     1      45.002   4.029  10.618  0.00  0.00    +0.000 A 
ATOM      7  C   UNL     1      45.132   3.249  11.775  0.00  0.00    +0.000 A 
ATOM      8  C   UNL     1      45.732   3.765  12.922  0.00  0.00    +0.000 A 
BRANCH   6   9
ATOM      9  C   UNL     1      44.427   3.437   9.343  0.00  0.00    +0.000 C 
BRANCH   9  10
ATOM     10  C   UNL     1      45.476   2.810   8.436  0.00  0.00    +0.000 A 
ATOM     11  C   UNL     1      46.107   3.572   7.454  0.00  0.00    +0.000 A 
ATOM     12  C   UNL     1      47.039   2.958   6.625  0.00  0.00    +0.000 A 
ATOM     13  C   UNL     1      47.320   1.608   6.796  0.00  0.00    +0.000 A 
ATOM     14  C   UNL     1      46.668   0.925   7.808  0.00  0.00    +0.000 A 
ATOM     15  N   UNL     1      45.763   1.492   8.638  0.00  0.00    +0.000 NA
ENDBRANCH   9  10
BRANCH   9  16
ATOM     16  O   UNL     1      43.727   4.464   8.621  0.00  0.00    +0.000 OA
ATOM     17  H   UNL     1      42.784   4.223   8.723  0.00  0.00    +0.000 HD
ENDBRANCH   9  16
ENDBRANCH   6   9
ENDBRANCH   2   3
BRANCH   2  18
ATOM     18  N   UNL     1      48.079   6.398  13.745  0.00  0.00    +0.000 N 
ATOM     19  C   UNL     1      48.698   7.341  14.526  0.00  0.00    +0.000 C 
ATOM     20  O   UNL     1      48.365   7.562  15.687  0.00  0.00    +0.000 OA
ATOM     21  H   UNL     1      48.194   6.476  12.738  0.00  0.00    +0.000 HD
BRANCH  19  22
ATOM     22  C   UNL     1      49.840   8.039  13.924  0.00  0.00    +0.000 A 
ATOM     23  C   UNL     1      51.102   7.902  14.487  0.00  0.00    +0.000 A 
ATOM     24  S   UNL     1      52.315   8.779  13.672  0.00  0.00    +0.000 S 
ATOM     25  C   UNL     1      51.195   9.408  12.559  0.00  0.00    +0.000 A 
ATOM     26  N   UNL     1      51.576  10.283  11.593  0.00  0.00    +0.000 NA
ATOM     27  C   UNL     1      50.615  10.696  10.833  0.00  0.00    +0.000 A 
ATOM     28  N   UNL     1      49.310  10.295  10.944  0.00  0.00    +0.000 N 
ATOM     29  C   UNL     1      48.879   9.392  11.886  0.00  0.00    +0.000 A 
ATOM     30  O   UNL     1      47.710   9.017  11.934  0.00  0.00    +0.000 OA
ATOM     31  C   UNL     1      49.916   8.920  12.783  0.00  0.00    +0.000 A 
ATOM     32  H   UNL     1      48.605  10.640  10.305  0.00  0.00    +0.000 HD
ENDBRANCH  19  22
ENDBRANCH   2  18
TORSDOF 6
ENDMDL
MODEL 6
REMARK VINA RESULT:    -7.908      2.363      3.060
REMARK INTER + INTRA:         -11.370
REMARK INTER:                 -10.061
REMARK INTRA:                  -1.310
REMARK UNBOUND:                -0.920
REMARK  Name = 
REMARK  7 active torsions:
REMARK  status: ('A' for Active; 'I' for Inactive)
REMARK    1  A    between atoms: C_1  and  C_2
REMARK    2  A    between atoms: C_2  and  N_3
REMARK    3  A    between atoms: C_2  and  C_16
REMARK    4  A    between atoms: C_4  and  C_6
REMARK    5  A    between atoms: C_19  and  C_20
REMARK    6  A    between atoms: C_20  and  O_21
REMARK    7  A    between atoms: C_20  and  C_22
REMARK                            x       y       z     vdW  Elec       q    Type
REMARK                         _______ _______ _______ _____ _____    ______ ____
ROOT
ATOM      1  C   UNL     1      48.071   9.081  13.630  0.00  0.00    +0.000 C 
ATOM      2  C   UNL     1      48.157   7.578  13.927  0.00  0.00    +0.000 C 
ENDROOT
BRANCH   2   3
ATOM      3  C   UNL     1      47.067   6.838  13.164  0.00  0.00    +0.000 A 
ATOM      4  C   UNL     1      46.200   7.511  12.295  0.00  0.00    +0.000 A 
ATOM      5  C   UNL     1      45.262   6.801  11.532  0.00  0.00    +0.000 A 
ATOM      6  C   UNL     1      45.179   5.401  11.615  0.00  0.00    +0.000 A 
ATOM      7  C   UNL     1      46.008   4.741  12.533  0.00  0.00    +0.000 A 
ATOM      8  C   UNL     1      46.943   5.446  13.288  0.00  0.00    +0.000 A 
BRANCH   6   9
ATOM      9  C   UNL     1      44.222   4.619  10.732  0.00  0.00    +0.000 C 
BRANCH   9  10
ATOM     10  C   UNL     1      44.916   3.825   9.635  0.00  0.00    +0.000 A 
ATOM     11  C   UNL     1      45.585   4.481   8.603  0.00  0.00    +0.000 A 
ATOM     12  C   UNL     1      46.183   3.723   7.603  0.00  0.00    +0.000 A 
ATOM     13  C   UNL     1      46.102   2.337   7.657  0.00  0.00    +0.000 A 
ATOM     14  C   UNL     1      45.440   1.759   8.727  0.00  0.00    +0.000 A 
ATOM     15  N   UNL     1      44.856   2.465   9.721  0.00  0.00    +0.000 NA
ENDBRANCH   9  10
BRANCH   9  16
ATOM     16  O   UNL     1      43.281   5.529  10.137  0.00  0.00    +0.000 OA
ATOM     17  H   UNL     1      43.829   6.080   9.542  0.00  0.00    +0.000 HD
ENDBRANCH   9  16
ENDBRANCH   6   9
ENDBRANCH   2   3
BRANCH   2  18
ATOM     18  N   UNL     1      48.023   7.269  15.345  0.00  0.00    +0.000 N 
ATOM     19  C   UNL     1      49.021   6.706  16.100  0.00  0.00    +0.000 C 
ATOM     20  O   UNL     1      50.134   6.454  15.647  0.00  0.00    +0.000 OA
ATOM     21  H   UNL     1      47.070   7.171  15.683  0.00  0.00    +0.000 HD
BRANCH  19  22
ATOM     22  C   UNL     1      48.716   6.475  17.518  0.00  0.00    +0.000 A 
ATOM     23  C   UNL     1      48.865   5.203  18.053  0.00  0.00    +0.000 A 
ATOM     24  S   UNL     1      48.466   5.105  19.708  0.00  0.00    +0.000 S 
ATOM     25  C   UNL     1      48.040   6.749  19.763  0.00  0.00    +0.000 A 
ATOM     26  N   UNL     1      47.564   7.316  20.901  0.00  0.00    +0.000 NA
ATOM     27  C   UNL     1      47.259   8.568  20.790  0.00  0.00    +0.000 A 
ATOM     28  N   UNL     1      47.408   9.305  19.646  0.00  0.00    +0.000 N 
ATOM     29  C   UNL     1      47.910   8.785  18.477  0.00  0.00    +0.000 A 
ATOM     30  O   UNL     1      48.074   9.482  17.478  0.00  0.00    +0.000 OA
ATOM     31  C   UNL     1      48.241   7.376  18.541  0.00  0.00    +0.000 A 
ATOM     32  H   UNL     1      47.169  10.288  19.628  0.00  0.00    +0.000 HD
ENDBRANCH  19  22
ENDBRANCH   2  18
TORSDOF 6
ENDMDL
MODEL 7
REMARK VINA RESULT:    -7.546      3.216      8.007
REMARK INTER + INTRA:         -10.891
REMARK INTER:                  -9.628
REMARK INTRA:                  -1.263
REMARK UNBOUND:                -0.920
REMARK  Name = 
REMARK  7 active torsions:
REMARK  status: ('A' for Active; 'I' for Inactive)
REMARK    1  A    between atoms: C_1  and  C_2
REMARK    2  A    between atoms: C_2  and  N_3
REMARK    3  A    between atoms: C_2  and  C_16
REMARK    4  A    between atoms: C_4  and  C_6
REMARK    5  A    between atoms: C_19  and  C_20
REMARK    6  A    between atoms: C_20  and  O_21
REMARK    7  A    between atoms: C_20  and  C_22
REMARK                            x       y       z     vdW  Elec       q    Type
REMARK                         _______ _______ _______ _____ _____    ______ ____
ROOT
ATOM      1  C   UNL     1      49.378   7.621  12.702  0.00  0.00    +0.000 C 
ATOM      2  C   UNL     1      48.057   7.145  13.320  0.00  0.00    +0.000 C 
ENDROOT
BRANCH   2   3
ATOM      3  C   UNL     1      48.325   6.484  14.665  0.00  0.00    +0.000 A 
ATOM      4  C   UNL     1      47.584   5.375  15.094  0.00  0.00    +0.000 A 
ATOM      5  C   UNL     1      47.905   4.724  16.293  0.00  0.00    +0.000 A 
ATOM      6  C   UNL     1      48.980   5.162  17.084  0.00  0.00    +0.000 A 
ATOM      7  C   UNL     1      49.677   6.309  16.680  0.00  0.00    +0.000 A 
ATOM      8  C   UNL     1      49.362   6.953  15.485  0.00  0.00    +0.000 A 
BRANCH   6   9
ATOM      9  C   UNL     1      49.383   4.411  18.342  0.00  0.00    +0.000 C 
BRANCH   9  10
ATOM     10  C   UNL     1      50.573   3.484  18.143  0.00  0.00    +0.000 A 
ATOM     11  C   UNL     1      50.425   2.285  17.447  0.00  0.00    +0.000 A 
ATOM     12  C   UNL     1      51.528   1.449  17.309  0.00  0.00    +0.000 A 
ATOM     13  C   UNL     1      52.744   1.828  17.864  0.00  0.00    +0.000 A 
ATOM     14  C   UNL     1      52.816   3.045  18.521  0.00  0.00    +0.000 A 
ATOM     15  N   UNL     1      51.767   3.885  18.665  0.00  0.00    +0.000 NA
ENDBRANCH   9  10
BRANCH   9  16
ATOM     16  O   UNL     1      48.260   3.649  18.816  0.00  0.00    +0.000 OA
ATOM     17  H   UNL     1      48.651   3.031  19.466  0.00  0.00    +0.000 HD
ENDBRANCH   9  16
ENDBRANCH   6   9
ENDBRANCH   2   3
BRANCH   2  18
ATOM     18  N   UNL     1      47.338   6.200  12.473  0.00  0.00    +0.000 N 
ATOM     19  C   UNL     1      46.252   6.538  11.706  0.00  0.00    +0.000 C 
ATOM     20  O   UNL     1      45.819   7.684  11.638  0.00  0.00    +0.000 OA
ATOM     21  H   UNL     1      47.452   5.221  12.717  0.00  0.00    +0.000 HD
BRANCH  19  22
ATOM     22  C   UNL     1      45.660   5.460  10.903  0.00  0.00    +0.000 A 
ATOM     23  C   UNL     1      45.764   5.501   9.519  0.00  0.00    +0.000 A 
ATOM     24  S   UNL     1      45.022   4.180   8.737  0.00  0.00    +0.000 S 
ATOM     25  C   UNL     1      44.499   3.524  10.216  0.00  0.00    +0.000 A 
ATOM     26  N   UNL     1      43.755   2.389  10.259  0.00  0.00    +0.000 NA
ATOM     27  C   UNL     1      43.409   2.019  11.448  0.00  0.00    +0.000 A 
ATOM     28  N   UNL     1      43.759   2.676  12.598  0.00  0.00    +0.000 N 
ATOM     29  C   UNL     1      44.532   3.811  12.609  0.00  0.00    +0.000 A 
ATOM     30  O   UNL     1      44.868   4.354  13.660  0.00  0.00    +0.000 OA
ATOM     31  C   UNL     1      44.923   4.283  11.296  0.00  0.00    +0.000 A 
ATOM     32  H   UNL     1      43.472   2.324  13.503  0.00  0.00    +0.000 HD
ENDBRANCH  19  22
ENDBRANCH   2  18
TORSDOF 6
ENDMDL
MODEL 8
REMARK VINA RESULT:    -6.974      3.419      5.110
REMARK INTER + INTRA:         -10.135
REMARK INTER:                  -8.855
REMARK INTRA:                  -1.280
REMARK UNBOUND:                -0.920
REMARK  Name = 
REMARK  7 active torsions:
REMARK  status: ('A' for Active; 'I' for Inactive)
REMARK    1  A    between atoms: C_1  and  C_2
REMARK    2  A    between atoms: C_2  and  N_3
REMARK    3  A    between atoms: C_2  and  C_16
REMARK    4  A    between atoms: C_4  and  C_6
REMARK    5  A    between atoms: C_19  and  C_20
REMARK    6  A    between atoms: C_20  and  O_21
REMARK    7  A    between atoms: C_20  and  C_22
REMARK                            x       y       z     vdW  Elec       q    Type
REMARK                         _______ _______ _______ _____ _____    ______ ____
ROOT
ATOM      1  C   UNL     1      47.672   6.200  18.532  0.00  0.00    +0.000 C 
ATOM      2  C   UNL     1      48.769   6.046  17.469  0.00  0.00    +0.000 C 
ENDROOT
BRANCH   2   3
ATOM      3  C   UNL     1      48.177   5.451  16.199  0.00  0.00    +0.000 A 
ATOM      4  C   UNL     1      47.594   4.177  16.193  0.00  0.00    +0.000 A 
ATOM      5  C   UNL     1      46.973   3.683  15.037  0.00  0.00    +0.000 A 
ATOM      6  C   UNL     1      46.914   4.456  13.866  0.00  0.00    +0.000 A 
ATOM      7  C   UNL     1      47.553   5.703  13.861  0.00  0.00    +0.000 A 
ATOM      8  C   UNL     1      48.166   6.197  15.011  0.00  0.00    +0.000 A 
BRANCH   6   9
ATOM      9  C   UNL     1      46.172   3.959  12.637  0.00  0.00    +0.000 C 
BRANCH   9  10
ATOM     10  C   UNL     1      44.939   4.782  12.296  0.00  0.00    +0.000 A 
ATOM     11  C   UNL     1      45.043   5.901  11.471  0.00  0.00    +0.000 A 
ATOM     12  C   UNL     1      43.899   6.646  11.204  0.00  0.00    +0.000 A 
ATOM     13  C   UNL     1      42.687   6.258  11.762  0.00  0.00    +0.000 A 
ATOM     14  C   UNL     1      42.662   5.122  12.552  0.00  0.00    +0.000 A 
ATOM     15  N   UNL     1      43.752   4.369  12.825  0.00  0.00    +0.000 NA
ENDBRANCH   9  10
BRANCH   9  16
ATOM     16  O   UNL     1      45.787   2.588  12.841  0.00  0.00    +0.000 OA
ATOM     17  H   UNL     1      45.716   2.226  11.935  0.00  0.00    +0.000 HD
ENDBRANCH   9  16
ENDBRANCH   6   9
ENDBRANCH   2   3
BRANCH   2  18
ATOM     18  N   UNL     1      49.873   5.202  17.908  0.00  0.00    +0.000 N 
ATOM     19  C   UNL     1      51.152   5.308  17.423  0.00  0.00    +0.000 C 
ATOM     20  O   UNL     1      51.482   6.159  16.603  0.00  0.00    +0.000 OA
ATOM     21  H   UNL     1      49.606   4.319  18.333  0.00  0.00    +0.000 HD
BRANCH  19  22
ATOM     22  C   UNL     1      52.143   4.383  17.989  0.00  0.00    +0.000 A 
ATOM     23  C   UNL     1      53.226   4.887  18.695  0.00  0.00    +0.000 A 
ATOM     24  S   UNL     1      54.282   3.684  19.281  0.00  0.00    +0.000 S 
ATOM     25  C   UNL     1      53.355   2.445  18.578  0.00  0.00    +0.000 A 
ATOM     26  N   UNL     1      53.733   1.144  18.668  0.00  0.00    +0.000 NA
ATOM     27  C   UNL     1      52.945   0.314  18.068  0.00  0.00    +0.000 A 
ATOM     28  N   UNL     1      51.803   0.670  17.402  0.00  0.00    +0.000 N 
ATOM     29  C   UNL     1      51.363   1.968  17.305  0.00  0.00    +0.000 A 
ATOM     30  O   UNL     1      50.310   2.253  16.739  0.00  0.00    +0.000 OA
ATOM     31  C   UNL     1      52.228   2.943  17.940  0.00  0.00    +0.000 A 
ATOM     32  H   UNL     1      51.216  -0.031  16.967  0.00  0.00    +0.000 HD
ENDBRANCH  19  22
ENDBRANCH   2  18
TORSDOF 6
ENDMDL
MODEL 9
REMARK VINA RESULT:    -6.676      4.079      7.248
REMARK INTER + INTRA:          -9.742
REMARK INTER:                  -8.824
REMARK INTRA:                  -0.918
REMARK UNBOUND:                -0.920
REMARK  Name = 
REMARK  7 active torsions:
REMARK  status: ('A' for Active; 'I' for Inactive)
REMARK    1  A    between atoms: C_1  and  C_2
REMARK    2  A    between atoms: C_2  and  N_3
REMARK    3  A    between atoms: C_2  and  C_16
REMARK    4  A    between atoms: C_4  and  C_6
REMARK    5  A    between atoms: C_19  and  C_20
REMARK    6  A    between atoms: C_20  and  O_21
REMARK    7  A    between atoms: C_20  and  C_22
REMARK                            x       y       z     vdW  Elec       q    Type
REMARK                         _______ _______ _______ _____ _____    ______ ____
ROOT
ATOM      1  C   UNL     1      45.150   9.546  12.120  0.00  0.00    +0.000 C 
ATOM      2  C   UNL     1      45.897   8.296  12.604  0.00  0.00    +0.000 C 
ENDROOT
BRANCH   2   3
ATOM      3  C   UNL     1      47.375   8.412  12.257  0.00  0.00    +0.000 A 
ATOM      4  C   UNL     1      47.955   9.645  11.934  0.00  0.00    +0.000 A 
ATOM      5  C   UNL     1      49.335   9.747  11.707  0.00  0.00    +0.000 A 
ATOM      6  C   UNL     1      50.165   8.619  11.808  0.00  0.00    +0.000 A 
ATOM      7  C   UNL     1      49.569   7.378  12.070  0.00  0.00    +0.000 A 
ATOM      8  C   UNL     1      48.199   7.277  12.301  0.00  0.00    +0.000 A 
BRANCH   6   9
ATOM      9  C   UNL     1      51.671   8.738  11.643  0.00  0.00    +0.000 C 
BRANCH   9  10
ATOM     10  C   UNL     1      52.159   8.396  10.243  0.00  0.00    +0.000 A 
ATOM     11  C   UNL     1      52.313   7.066   9.854  0.00  0.00    +0.000 A 
ATOM     12  C   UNL     1      52.789   6.792   8.577  0.00  0.00    +0.000 A 
ATOM     13  C   UNL     1      53.095   7.845   7.722  0.00  0.00    +0.000 A 
ATOM     14  C   UNL     1      52.893   9.137   8.174  0.00  0.00    +0.000 A 
ATOM     15  N   UNL     1      52.424   9.440   9.406  0.00  0.00    +0.000 NA
ENDBRANCH   9  10
BRANCH   9  16
ATOM     16  O   UNL     1      52.319   7.878  12.596  0.00  0.00    +0.000 OA
ATOM     17  H   UNL     1      52.621   8.490  13.298  0.00  0.00    +0.000 HD
ENDBRANCH   9  16
ENDBRANCH   6   9
ENDBRANCH   2   3
BRANCH   2  18
ATOM     18  N   UNL     1      45.380   7.063  12.026  0.00  0.00    +0.000 N 
ATOM     19  C   UNL     1      45.361   5.860  12.687  0.00  0.00    +0.000 C 
ATOM     20  O   UNL     1      45.743   5.735  13.846  0.00  0.00    +0.000 OA
ATOM     21  H   UNL     1      45.340   7.039  11.011  0.00  0.00    +0.000 HD
BRANCH  19  22
ATOM     22  C   UNL     1      44.790   4.723  11.955  0.00  0.00    +0.000 A 
ATOM     23  C   UNL     1      43.986   3.810  12.625  0.00  0.00    +0.000 A 
ATOM     24  S   UNL     1      43.407   2.549  11.635  0.00  0.00    +0.000 S 
ATOM     25  C   UNL     1      44.241   3.151  10.281  0.00  0.00    +0.000 A 
ATOM     26  N   UNL     1      44.205   2.506   9.087  0.00  0.00    +0.000 NA
ATOM     27  C   UNL     1      44.903   3.065   8.153  0.00  0.00    +0.000 A 
ATOM     28  N   UNL     1      45.618   4.223   8.307  0.00  0.00    +0.000 N 
ATOM     29  C   UNL     1      45.664   4.927   9.485  0.00  0.00    +0.000 A 
ATOM     30  O   UNL     1      46.278   5.988   9.581  0.00  0.00    +0.000 OA
ATOM     31  C   UNL     1      44.919   4.326  10.573  0.00  0.00    +0.000 A 
ATOM     32  H   UNL     1      46.131   4.623   7.530  0.00  0.00    +0.000 HD
ENDBRANCH  19  22
ENDBRANCH   2  18
TORSDOF 6
ENDMDL
