MODEL 1
REMARK VINA RESULT:    -8.260      0.000      0.000
REMARK INTER + INTRA:         -12.686
REMARK INTER:                 -11.640
REMARK INTRA:                  -1.045
REMARK UNBOUND:                -1.045
REMARK  Name = 
REMARK  7 active torsions:
REMARK  status: ('A' for Active; 'I' for Inactive)
REMARK    1  A    between atoms: C_2  and  C_19
REMARK    2  A    between atoms: N_3  and  C_4
REMARK    3  A    between atoms: C_4  and  C_5
REMARK    4  A    between atoms: C_8  and  C_9
REMARK    5  A    between atoms: C_9  and  N_10
REMARK    6  A    between atoms: N_10  and  C_11
REMARK    7  A    between atoms: C_11  and  C_12
REMARK                            x       y       z     vdW  Elec       q    Type
REMARK                         _______ _______ _______ _____ _____    ______ ____
ROOT
ATOM      1  C   UNL     1      46.767   8.028  13.058  0.00  0.00    +0.000 C 
ENDROOT
BRANCH   1   2
ATOM      2  C   UNL     1      45.952   6.997  12.323  0.00  0.00    +0.000 A 
ATOM      3  C   UNL     1      46.313   6.619  11.025  0.00  0.00    +0.000 A 
ATOM      4  C   UNL     1      45.607   5.620  10.353  0.00  0.00    +0.000 A 
ATOM      5  C   UNL     1      44.527   4.965  10.966  0.00  0.00    +0.000 A 
ATOM      6  C   UNL     1      44.133   5.385  12.244  0.00  0.00    +0.000 A 
ATOM      7  C   UNL     1      44.835   6.393  12.914  0.00  0.00    +0.000 A 
BRANCH   5   8
ATOM      8  C   UNL     1      43.754   3.873  10.253  0.00  0.00    +0.000 C 
BRANCH   8   9
ATOM      9  N   UNL     1      44.400   2.569  10.388  0.00  0.00    +0.000 NA
ATOM     10  H   UNL     1      43.830   1.987  11.001  0.00  0.00    +0.000 HD
BRANCH   9  11
ATOM     11  C   UNL     1      44.526   1.873   9.101  0.00  0.00    +0.000 C 
BRANCH  11  12
ATOM     12  C   UNL     1      45.937   2.123   8.537  0.00  0.00    +0.000 C 
ATOM     13  C   UNL     1      45.966   3.081   7.358  0.00  0.00    +0.000 C 
ATOM     14  C   UNL     1      47.328   2.801   6.750  0.00  0.00    +0.000 C 
ATOM     15  C   UNL     1      47.582   1.327   7.040  0.00  0.00    +0.000 C 
ATOM     16  N   UNL     1      46.544   0.898   7.979  0.00  0.00    +0.000 NA
ATOM     17  H   UNL     1      46.951   0.351   8.737  0.00  0.00    +0.000 HD
ENDBRANCH  11  12
ENDBRANCH   9  11
ENDBRANCH   8   9
ENDBRANCH   5   8
ENDBRANCH   1   2
BRANCH   1  20
ATOM     18  O   UNL     1      48.889   6.209  13.388  0.00  0.00    +0.000 OA
ATOM     19  C   UNL     1      48.334   6.662  14.385  0.00  0.00    +0.000 C 
ATOM     20  N   UNL     1      47.277   7.531  14.311  0.00  0.00    +0.000 N 
ATOM     21  H   UNL     1      46.968   8.015  15.146  0.00  0.00    +0.000 HD
BRANCH  19  22
ATOM     22  C   UNL     1      48.732   6.246  15.732  0.00  0.00    +0.000 A 
ATOM     23  C   UNL     1      49.580   7.049  16.485  0.00  0.00    +0.000 A 
ATOM     24  S   UNL     1      49.919   6.418  18.032  0.00  0.00    +0.000 S 
ATOM     25  C   UNL     1      48.924   5.067  17.761  0.00  0.00    +0.000 A 
ATOM     26  N   UNL     1      48.737   4.129  18.728  0.00  0.00    +0.000 NA
ATOM     27  C   UNL     1      47.923   3.179  18.399  0.00  0.00    +0.000 A 
ATOM     28  N   UNL     1      47.294   3.076  17.186  0.00  0.00    +0.000 N 
ATOM     29  C   UNL     1      47.523   3.951  16.149  0.00  0.00    +0.000 A 
ATOM     30  O   UNL     1      47.074   3.736  15.032  0.00  0.00    +0.000 OA
ATOM     31  C   UNL     1      48.373   5.074  16.494  0.00  0.00    +0.000 A 
ATOM     32  H   UNL     1      46.705   2.281  16.975  0.00  0.00    +0.000 HD
ENDBRANCH  19  22
ENDBRANCH   1  20
TORSDOF 7
ENDMDL
MODEL 2
REMARK VINA RESULT:    -7.845      1.510      1.744
REMARK INTER + INTRA:         -12.101
REMARK INTER:                 -11.266
REMARK INTRA:                  -0.835
REMARK UNBOUND:                -1.045
REMARK  Name = 
REMARK  7 active torsions:
REMARK  status: ('A' for Active; 'I' for Inactive)
REMARK    1  A    between atoms: C_2  and  C_19
REMARK    2  A    between atoms: N_3  and  C_4
REMARK    3  A    between atoms: C_4  and  C_5
REMARK    4  A    between atoms: C_8  and  C_9
REMARK    5  A    between atoms: C_9  and  N_10
REMARK    6  A    between atoms: N_10  and  C_11
REMARK    7  A    between atoms: C_11  and  C_12
REMARK                            x       y       z     vdW  Elec       q    Type
REMARK                         _______ _______ _______ _____ _____    ______ ____
ROOT
ATOM      1  C   UNL     1      47.988   6.740  13.394  0.00  0.00    +0.000 C 
ENDROOT
BRANCH   1   2
ATOM      2  C   UNL     1      46.864   5.916  12.827  0.00  0.00    +0.000 A 
ATOM      3  C   UNL     1      46.271   6.287  11.614  0.00  0.00    +0.000 A 
ATOM      4  C   UNL     1      45.270   5.500  11.043  0.00  0.00    +0.000 A 
ATOM      5  C   UNL     1      44.841   4.316  11.664  0.00  0.00    +0.000 A 
ATOM      6  C   UNL     1      45.396   3.979  12.906  0.00  0.00    +0.000 A 
ATOM      7  C   UNL     1      46.394   4.772  13.484  0.00  0.00    +0.000 A 
BRANCH   5   8
ATOM      8  C   UNL     1      43.760   3.446  11.053  0.00  0.00    +0.000 C 
BRANCH   8   9
ATOM      9  N   UNL     1      44.315   2.263  10.400  0.00  0.00    +0.000 NA
ATOM     10  H   UNL     1      43.705   1.469  10.593  0.00  0.00    +0.000 HD
BRANCH   9  11
ATOM     11  C   UNL     1      44.397   2.417   8.942  0.00  0.00    +0.000 C 
BRANCH  11  12
ATOM     12  C   UNL     1      45.874   2.321   8.515  0.00  0.00    +0.000 C 
ATOM     13  C   UNL     1      46.210   3.137   7.279  0.00  0.00    +0.000 C 
ATOM     14  C   UNL     1      47.531   2.530   6.842  0.00  0.00    +0.000 C 
ATOM     15  C   UNL     1      47.440   1.069   7.265  0.00  0.00    +0.000 C 
ATOM     16  N   UNL     1      46.255   0.951   8.117  0.00  0.00    +0.000 NA
ATOM     17  H   UNL     1      46.467   0.407   8.953  0.00  0.00    +0.000 HD
ENDBRANCH  11  12
ENDBRANCH   9  11
ENDBRANCH   8   9
ENDBRANCH   5   8
ENDBRANCH   1   2
BRANCH   1  20
ATOM     18  O   UNL     1      50.182   6.712  15.156  0.00  0.00    +0.000 OA
ATOM     19  C   UNL     1      49.051   6.834  15.618  0.00  0.00    +0.000 C 
ATOM     20  N   UNL     1      47.929   6.830  14.831  0.00  0.00    +0.000 N 
ATOM     21  H   UNL     1      47.039   7.111  15.228  0.00  0.00    +0.000 HD
BRANCH  19  22
ATOM     22  C   UNL     1      48.825   6.928  17.061  0.00  0.00    +0.000 A 
ATOM     23  C   UNL     1      48.454   8.140  17.630  0.00  0.00    +0.000 A 
ATOM     24  S   UNL     1      48.215   8.058  19.315  0.00  0.00    +0.000 S 
ATOM     25  C   UNL     1      48.570   6.395  19.341  0.00  0.00    +0.000 A 
ATOM     26  N   UNL     1      48.506   5.683  20.498  0.00  0.00    +0.000 NA
ATOM     27  C   UNL     1      48.761   4.422  20.362  0.00  0.00    +0.000 A 
ATOM     28  N   UNL     1      49.089   3.815  19.177  0.00  0.00    +0.000 N 
ATOM     29  C   UNL     1      49.252   4.512  18.002  0.00  0.00    +0.000 A 
ATOM     30  O   UNL     1      49.703   3.967  17.005  0.00  0.00    +0.000 OA
ATOM     31  C   UNL     1      48.907   5.917  18.089  0.00  0.00    +0.000 A 
ATOM     32  H   UNL     1      49.323   2.832  19.147  0.00  0.00    +0.000 HD
ENDBRANCH  19  22
ENDBRANCH   1  20
TORSDOF 7
ENDMDL
MODEL 3
REMARK VINA RESULT:    -7.520      2.414      3.081
REMARK INTER + INTRA:         -11.642
REMARK INTER:                 -10.636
REMARK INTRA:                  -1.006
REMARK UNBOUND:                -1.045
REMARK  Name = 
REMARK  7 active torsions:
REMARK  status: ('A' for Active; 'I' for Inactive)
REMARK    1  A    between atoms: C_2  and  C_19
REMARK    2  A    between atoms: N_3  and  C_4
REMARK    3  A    between atoms: C_4  and  C_5
REMARK    4  A    between atoms: C_8  and  C_9
REMARK    5  A    between atoms: C_9  and  N_10
REMARK    6  A    between atoms: N_10  and  C_11
REMARK    7  A    between atoms: C_11  and  C_12
REMARK                            x       y       z     vdW  Elec       q    Type
REMARK                         _______ _______ _______ _____ _____    ______ ____
ROOT
ATOM      1  C   UNL     1      48.261   6.908  13.785  0.00  0.00    +0.000 C 
ENDROOT
BRANCH   1   2
ATOM      2  C   UNL     1      47.166   6.180  13.052  0.00  0.00    +0.000 A 
ATOM      3  C   UNL     1      46.770   6.614  11.782  0.00  0.00    +0.000 A 
ATOM      4  C   UNL     1      45.800   5.914  11.062  0.00  0.00    +0.000 A 
ATOM      5  C   UNL     1      45.207   4.755  11.589  0.00  0.00    +0.000 A 
ATOM      6  C   UNL     1      45.565   4.357  12.885  0.00  0.00    +0.000 A 
ATOM      7  C   UNL     1      46.530   5.064  13.611  0.00  0.00    +0.000 A 
BRANCH   5   8
ATOM      8  C   UNL     1      44.157   3.980  10.818  0.00  0.00    +0.000 C 
BRANCH   8   9
ATOM      9  N   UNL     1      44.525   2.574  10.659  0.00  0.00    +0.000 NA
ATOM     10  H   UNL     1      43.862   2.004  11.183  0.00  0.00    +0.000 HD
BRANCH   9  11
ATOM     11  C   UNL     1      44.477   2.140   9.257  0.00  0.00    +0.000 C 
BRANCH  11  12
ATOM     12  C   UNL     1      45.894   2.234   8.659  0.00  0.00    +0.000 C 
ATOM     13  C   UNL     1      45.998   3.172   7.470  0.00  0.00    +0.000 C 
ATOM     14  C   UNL     1      47.308   2.743   6.835  0.00  0.00    +0.000 C 
ATOM     15  C   UNL     1      47.410   1.253   7.136  0.00  0.00    +0.000 C 
ATOM     16  N   UNL     1      46.354   0.946   8.102  0.00  0.00    +0.000 NA
ATOM     17  H   UNL     1      46.717   0.365   8.858  0.00  0.00    +0.000 HD
ENDBRANCH  11  12
ENDBRANCH   9  11
ENDBRANCH   8   9
ENDBRANCH   5   8
ENDBRANCH   1   2
BRANCH   1  20
ATOM     18  O   UNL     1      49.973   6.054  15.848  0.00  0.00    +0.000 OA
ATOM     19  C   UNL     1      48.905   6.582  16.144  0.00  0.00    +0.000 C 
ATOM     20  N   UNL     1      48.004   7.001  15.200  0.00  0.00    +0.000 N 
ATOM     21  H   UNL     1      47.225   7.588  15.478  0.00  0.00    +0.000 HD
BRANCH  19  22
ATOM     22  C   UNL     1      48.495   6.740  17.540  0.00  0.00    +0.000 A 
ATOM     23  C   UNL     1      48.494   5.642  18.392  0.00  0.00    +0.000 A 
ATOM     24  S   UNL     1      48.008   6.015  19.983  0.00  0.00    +0.000 S 
ATOM     25  C   UNL     1      47.811   7.658  19.597  0.00  0.00    +0.000 A 
ATOM     26  N   UNL     1      47.439   8.561  20.545  0.00  0.00    +0.000 NA
ATOM     27  C   UNL     1      47.367   9.781  20.121  0.00  0.00    +0.000 A 
ATOM     28  N   UNL     1      47.617  10.174  18.832  0.00  0.00    +0.000 N 
ATOM     29  C   UNL     1      47.908   9.285  17.823  0.00  0.00    +0.000 A 
ATOM     30  O   UNL     1      47.963   9.652  16.657  0.00  0.00    +0.000 OA
ATOM     31  C   UNL     1      48.070   7.914  18.265  0.00  0.00    +0.000 A 
ATOM     32  H   UNL     1      47.498  11.139  18.553  0.00  0.00    +0.000 HD
ENDBRANCH  19  22
ENDBRANCH   1  20
TORSDOF 7
ENDMDL
MODEL 4
REMARK VINA RESULT:    -7.263      2.144      3.501
REMARK INTER + INTRA:         -11.280
REMARK INTER:                 -10.246
REMARK INTRA:                  -1.034
REMARK UNBOUND:                -1.045
REMARK  Name = 
REMARK  7 active torsions:
REMARK  status: ('A' for Active; 'I' for Inactive)
REMARK    1  A    between atoms: C_2  and  C_19
REMARK    2  A    between atoms: N_3  and  C_4
REMARK    3  A    between atoms: C_4  and  C_5
REMARK    4  A    between atoms: C_8  and  C_9
REMARK    5  A    between atoms: C_9  and  N_10
REMARK    6  A    between atoms: N_10  and  C_11
REMARK    7  A    between atoms: C_11  and  C_12
REMARK                            x       y       z     vdW  Elec       q    Type
REMARK                         _______ _______ _______ _____ _____    ______ ____
ROOT
ATOM      1  C   UNL     1      47.246   3.996  14.838  0.00  0.00    +0.000 C 
ENDROOT
BRANCH   1   2
ATOM      2  C   UNL     1      46.398   4.267  13.624  0.00  0.00    +0.000 A 
ATOM      3  C   UNL     1      45.860   3.199  12.897  0.00  0.00    +0.000 A 
ATOM      4  C   UNL     1      45.021   3.432  11.806  0.00  0.00    +0.000 A 
ATOM      5  C   UNL     1      44.690   4.740  11.418  0.00  0.00    +0.000 A 
ATOM      6  C   UNL     1      45.277   5.808  12.113  0.00  0.00    +0.000 A 
ATOM      7  C   UNL     1      46.125   5.574  13.201  0.00  0.00    +0.000 A 
BRANCH   5   8
ATOM      8  C   UNL     1      43.775   5.011  10.240  0.00  0.00    +0.000 C 
BRANCH   8   9
ATOM      9  N   UNL     1      44.127   4.198   9.078  0.00  0.00    +0.000 NA
ATOM     10  H   UNL     1      43.471   4.407   8.325  0.00  0.00    +0.000 HD
BRANCH   9  11
ATOM     11  C   UNL     1      45.480   4.486   8.584  0.00  0.00    +0.000 C 
BRANCH  11  12
ATOM     12  C   UNL     1      45.927   3.336   7.662  0.00  0.00    +0.000 C 
ATOM     13  C   UNL     1      46.067   2.000   8.370  0.00  0.00    +0.000 C 
ATOM     14  C   UNL     1      46.911   1.204   7.392  0.00  0.00    +0.000 C 
ATOM     15  C   UNL     1      47.795   2.244   6.714  0.00  0.00    +0.000 C 
ATOM     16  N   UNL     1      47.278   3.556   7.107  0.00  0.00    +0.000 NA
ATOM     17  H   UNL     1      47.210   4.171   6.296  0.00  0.00    +0.000 HD
ENDBRANCH  11  12
ENDBRANCH   9  11
ENDBRANCH   8   9
ENDBRANCH   5   8
ENDBRANCH   1   2
BRANCH   1  20
ATOM     18  O   UNL     1      49.328   4.429  16.681  0.00  0.00    +0.000 OA
ATOM     19  C   UNL     1      48.502   5.318  16.500  0.00  0.00    +0.000 C 
ATOM     20  N   UNL     1      47.443   5.177  15.641  0.00  0.00    +0.000 N 
ATOM     21  H   UNL     1      46.892   5.990  15.388  0.00  0.00    +0.000 HD
BRANCH  19  22
ATOM     22  C   UNL     1      48.560   6.574  17.249  0.00  0.00    +0.000 A 
ATOM     23  C   UNL     1      48.529   6.557  18.638  0.00  0.00    +0.000 A 
ATOM     24  S   UNL     1      48.626   8.107  19.341  0.00  0.00    +0.000 S 
ATOM     25  C   UNL     1      48.744   8.852  17.818  0.00  0.00    +0.000 A 
ATOM     26  N   UNL     1      48.896  10.199  17.706  0.00  0.00    +0.000 NA
ATOM     27  C   UNL     1      49.013  10.623  16.490  0.00  0.00    +0.000 A 
ATOM     28  N   UNL     1      48.975   9.823  15.377  0.00  0.00    +0.000 N 
ATOM     29  C   UNL     1      48.734   8.470  15.438  0.00  0.00    +0.000 A 
ATOM     30  O   UNL     1      48.543   7.818  14.422  0.00  0.00    +0.000 OA
ATOM     31  C   UNL     1      48.668   7.937  16.785  0.00  0.00    +0.000 A 
ATOM     32  H   UNL     1      49.025  10.224  14.450  0.00  0.00    +0.000 HD
ENDBRANCH  19  22
ENDBRANCH   1  20
TORSDOF 7
ENDMDL
MODEL 5
REMARK VINA RESULT:    -7.251      1.931      2.629
REMARK INTER + INTRA:         -11.263
REMARK INTER:                 -10.476
REMARK INTRA:                  -0.787
REMARK UNBOUND:                -1.045
REMARK  Name = 
REMARK  7 active torsions:
REMARK  status: ('A' for Active; 'I' for Inactive)
REMARK    1  A    between atoms: C_2  and  C_19
REMARK    2  A    between atoms: N_3  and  C_4
REMARK    3  A    between atoms: C_4  and  C_5
REMARK    4  A    between atoms: C_8  and  C_9
REMARK    5  A    between atoms: C_9  and  N_10
REMARK    6  A    between atoms: N_10  and  C_11
REMARK    7  A    between atoms: C_11  and  C_12
REMARK                            x       y       z     vdW  Elec       q    Type
REMARK                         _______ _______ _______ _____ _____    ______ ____
ROOT
ATOM      1  C   UNL     1      47.645   7.092  13.707  0.00  0.00    +0.000 C 
ENDROOT
BRANCH   1   2
ATOM      2  C   UNL     1      46.775   6.262  12.802  0.00  0.00    +0.000 A 
ATOM      3  C   UNL     1      46.143   5.118  13.299  0.00  0.00    +0.000 A 
ATOM      4  C   UNL     1      45.283   4.372  12.491  0.00  0.00    +0.000 A 
ATOM      5  C   UNL     1      45.024   4.757  11.166  0.00  0.00    +0.000 A 
ATOM      6  C   UNL     1      45.703   5.871  10.654  0.00  0.00    +0.000 A 
ATOM      7  C   UNL     1      46.573   6.614  11.461  0.00  0.00    +0.000 A 
BRANCH   5   8
ATOM      8  C   UNL     1      44.089   3.962  10.277  0.00  0.00    +0.000 C 
BRANCH   8   9
ATOM      9  N   UNL     1      44.326   2.524  10.381  0.00  0.00    +0.000 NA
ATOM     10  H   UNL     1      43.528   2.097  10.852  0.00  0.00    +0.000 HD
BRANCH   9  11
ATOM     11  C   UNL     1      44.465   1.884   9.067  0.00  0.00    +0.000 C 
BRANCH  11  12
ATOM     12  C   UNL     1      45.897   2.117   8.550  0.00  0.00    +0.000 C 
ATOM     13  C   UNL     1      45.982   3.107   7.402  0.00  0.00    +0.000 C 
ATOM     14  C   UNL     1      47.354   2.812   6.824  0.00  0.00    +0.000 C 
ATOM     15  C   UNL     1      47.564   1.325   7.076  0.00  0.00    +0.000 C 
ATOM     16  N   UNL     1      46.490   0.894   7.973  0.00  0.00    +0.000 NA
ATOM     17  H   UNL     1      46.863   0.315   8.725  0.00  0.00    +0.000 HD
ENDBRANCH  11  12
ENDBRANCH   9  11
ENDBRANCH   8   9
ENDBRANCH   5   8
ENDBRANCH   1   2
BRANCH   1  20
ATOM     18  O   UNL     1      48.806   8.137  16.048  0.00  0.00    +0.000 OA
ATOM     19  C   UNL     1      48.691   6.920  15.935  0.00  0.00    +0.000 C 
ATOM     20  N   UNL     1      48.161   6.331  14.817  0.00  0.00    +0.000 N 
ATOM     21  H   UNL     1      47.921   5.346  14.837  0.00  0.00    +0.000 HD
BRANCH  19  22
ATOM     22  C   UNL     1      49.177   6.011  16.974  0.00  0.00    +0.000 A 
ATOM     23  C   UNL     1      48.275   5.374  17.819  0.00  0.00    +0.000 A 
ATOM     24  S   UNL     1      49.017   4.339  18.952  0.00  0.00    +0.000 S 
ATOM     25  C   UNL     1      50.564   4.681  18.335  0.00  0.00    +0.000 A 
ATOM     26  N   UNL     1      51.670   4.076  18.844  0.00  0.00    +0.000 NA
ATOM     27  C   UNL     1      52.774   4.398  18.253  0.00  0.00    +0.000 A 
ATOM     28  N   UNL     1      52.871   5.284  17.211  0.00  0.00    +0.000 N 
ATOM     29  C   UNL     1      51.792   5.985  16.724  0.00  0.00    +0.000 A 
ATOM     30  O   UNL     1      51.942   6.883  15.908  0.00  0.00    +0.000 OA
ATOM     31  C   UNL     1      50.521   5.603  17.308  0.00  0.00    +0.000 A 
ATOM     32  H   UNL     1      53.772   5.529  16.823  0.00  0.00    +0.000 HD
ENDBRANCH  19  22
ENDBRANCH   1  20
TORSDOF 7
ENDMDL
MODEL 6
REMARK VINA RESULT:    -7.223      2.561      3.146
REMARK INTER + INTRA:         -11.223
REMARK INTER:                 -10.368
REMARK INTRA:                  -0.856
REMARK UNBOUND:                -1.045
REMARK  Name = 
REMARK  7 active torsions:
REMARK  status: ('A' for Active; 'I' for Inactive)
REMARK    1  A    between atoms: C_2  and  C_19
REMARK    2  A    between atoms: N_3  and  C_4
REMARK    3  A    between atoms: C_4  and  C_5
REMARK    4  A    between atoms: C_8  and  C_9
REMARK    5  A    between atoms: C_9  and  N_10
REMARK    6  A    between atoms: N_10  and  C_11
REMARK    7  A    between atoms: C_11  and  C_12
REMARK                            x       y       z     vdW  Elec       q    Type
REMARK                         _______ _______ _______ _____ _____    ______ ____
ROOT
ATOM      1  C   UNL     1      47.410   4.219  14.806  0.00  0.00    +0.000 C 
ENDROOT
BRANCH   1   2
ATOM      2  C   UNL     1      46.432   4.328  13.666  0.00  0.00    +0.000 A 
ATOM      3  C   UNL     1      45.964   5.584  13.267  0.00  0.00    +0.000 A 
ATOM      4  C   UNL     1      45.106   5.709  12.173  0.00  0.00    +0.000 A 
ATOM      5  C   UNL     1      44.701   4.580  11.442  0.00  0.00    +0.000 A 
ATOM      6  C   UNL     1      45.127   3.318  11.879  0.00  0.00    +0.000 A 
ATOM      7  C   UNL     1      45.980   3.192  12.982  0.00  0.00    +0.000 A 
BRANCH   5   8
ATOM      8  C   UNL     1      43.776   4.699  10.248  0.00  0.00    +0.000 C 
BRANCH   8   9
ATOM      9  N   UNL     1      44.168   3.802   9.162  0.00  0.00    +0.000 NA
ATOM     10  H   UNL     1      43.379   3.701   8.523  0.00  0.00    +0.000 HD
BRANCH   9  11
ATOM     11  C   UNL     1      45.304   4.321   8.391  0.00  0.00    +0.000 C 
BRANCH  11  12
ATOM     12  C   UNL     1      45.893   3.179   7.542  0.00  0.00    +0.000 C 
ATOM     13  C   UNL     1      46.042   1.868   8.294  0.00  0.00    +0.000 C 
ATOM     14  C   UNL     1      47.010   1.100   7.414  0.00  0.00    +0.000 C 
ATOM     15  C   UNL     1      47.893   2.174   6.788  0.00  0.00    +0.000 C 
ATOM     16  N   UNL     1      47.273   3.462   7.101  0.00  0.00    +0.000 NA
ATOM     17  H   UNL     1      47.244   4.056   6.272  0.00  0.00    +0.000 HD
ENDBRANCH  11  12
ENDBRANCH   9  11
ENDBRANCH   8   9
ENDBRANCH   5   8
ENDBRANCH   1   2
BRANCH   1  20
ATOM     18  O   UNL     1      49.468   4.910  16.597  0.00  0.00    +0.000 OA
ATOM     19  C   UNL     1      48.563   5.714  16.393  0.00  0.00    +0.000 C 
ATOM     20  N   UNL     1      47.511   5.445  15.558  0.00  0.00    +0.000 N 
ATOM     21  H   UNL     1      46.888   6.195  15.281  0.00  0.00    +0.000 HD
BRANCH  19  22
ATOM     22  C   UNL     1      48.519   7.001  17.090  0.00  0.00    +0.000 A 
ATOM     23  C   UNL     1      48.804   8.174  16.402  0.00  0.00    +0.000 A 
ATOM     24  S   UNL     1      48.685   9.575  17.366  0.00  0.00    +0.000 S 
ATOM     25  C   UNL     1      48.220   8.668  18.726  0.00  0.00    +0.000 A 
ATOM     26  N   UNL     1      47.918   9.277  19.904  0.00  0.00    +0.000 NA
ATOM     27  C   UNL     1      47.541   8.468  20.841  0.00  0.00    +0.000 A 
ATOM     28  N   UNL     1      47.454   7.107  20.708  0.00  0.00    +0.000 N 
ATOM     29  C   UNL     1      47.833   6.442  19.564  0.00  0.00    +0.000 A 
ATOM     30  O   UNL     1      47.899   5.222  19.538  0.00  0.00    +0.000 OA
ATOM     31  C   UNL     1      48.196   7.312  18.462  0.00  0.00    +0.000 A 
ATOM     32  H   UNL     1      47.196   6.526  21.494  0.00  0.00    +0.000 HD
ENDBRANCH  19  22
ENDBRANCH   1  20
TORSDOF 7
ENDMDL
MODEL 7
REMARK VINA RESULT:    -7.173      1.449      1.558
REMARK INTER + INTRA:         -11.154
REMARK INTER:                 -10.266
REMARK INTRA:                  -0.888
REMARK UNBOUND:                -1.045
REMARK  Name = 
REMARK  7 active torsions:
REMARK  status: ('A' for Active; 'I' for Inactive)
REMARK    1  A    between atoms: C_2  and  C_19
REMARK    2  A    between atoms: N_3  and  C_4
REMARK    3  A    between atoms: C_4  and  C_5
REMARK    4  A    between atoms: C_8  and  C_9
REMARK    5  A    between atoms: C_9  and  N_10
REMARK    6  A    between atoms: N_10  and  C_11
REMARK    7  A    between atoms: C_11  and  C_12
REMARK                            x       y       z     vdW  Elec       q    Type
REMARK                         _______ _______ _______ _____ _____    ______ ____
ROOT
ATOM      1  C   UNL     1      47.399   7.242  12.773  0.00  0.00    +0.000 C 
ENDROOT
BRANCH   1   2
ATOM      2  C   UNL     1      46.370   6.192  12.447  0.00  0.00    +0.000 A 
ATOM      3  C   UNL     1      45.292   6.509  11.614  0.00  0.00    +0.000 A 
ATOM      4  C   UNL     1      44.363   5.533  11.251  0.00  0.00    +0.000 A 
ATOM      5  C   UNL     1      44.494   4.210  11.704  0.00  0.00    +0.000 A 
ATOM      6  C   UNL     1      45.543   3.910  12.584  0.00  0.00    +0.000 A 
ATOM      7  C   UNL     1      46.469   4.891  12.956  0.00  0.00    +0.000 A 
BRANCH   5   8
ATOM      8  C   UNL     1      43.498   3.136  11.314  0.00  0.00    +0.000 C 
BRANCH   8   9
ATOM      9  N   UNL     1      44.029   2.247  10.282  0.00  0.00    +0.000 NA
ATOM     10  H   UNL     1      43.311   1.565  10.040  0.00  0.00    +0.000 HD
BRANCH   9  11
ATOM     11  C   UNL     1      44.392   2.968   9.056  0.00  0.00    +0.000 C 
BRANCH  11  12
ATOM     12  C   UNL     1      45.795   2.517   8.610  0.00  0.00    +0.000 C 
ATOM     13  C   UNL     1      46.216   3.063   7.257  0.00  0.00    +0.000 C 
ATOM     14  C   UNL     1      47.365   2.146   6.882  0.00  0.00    +0.000 C 
ATOM     15  C   UNL     1      47.014   0.809   7.524  0.00  0.00    +0.000 C 
ATOM     16  N   UNL     1      45.878   1.055   8.414  0.00  0.00    +0.000 NA
ATOM     17  H   UNL     1      46.027   0.604   9.317  0.00  0.00    +0.000 HD
ENDBRANCH  11  12
ENDBRANCH   9  11
ENDBRANCH   8   9
ENDBRANCH   5   8
ENDBRANCH   1   2
BRANCH   1  20
ATOM     18  O   UNL     1      48.188   8.555  15.134  0.00  0.00    +0.000 OA
ATOM     19  C   UNL     1      48.685   7.465  14.867  0.00  0.00    +0.000 C 
ATOM     20  N   UNL     1      48.375   6.773  13.725  0.00  0.00    +0.000 N 
ATOM     21  H   UNL     1      48.667   5.807  13.631  0.00  0.00    +0.000 HD
BRANCH  19  22
ATOM     22  C   UNL     1      49.700   6.860  15.731  0.00  0.00    +0.000 A 
ATOM     23  C   UNL     1      50.977   7.405  15.790  0.00  0.00    +0.000 A 
ATOM     24  S   UNL     1      52.019   6.585  16.861  0.00  0.00    +0.000 S 
ATOM     25  C   UNL     1      50.794   5.493  17.305  0.00  0.00    +0.000 A 
ATOM     26  N   UNL     1      51.018   4.531  18.240  0.00  0.00    +0.000 NA
ATOM     27  C   UNL     1      49.987   3.798  18.510  0.00  0.00    +0.000 A 
ATOM     28  N   UNL     1      48.759   3.932  17.916  0.00  0.00    +0.000 N 
ATOM     29  C   UNL     1      48.512   4.831  16.903  0.00  0.00    +0.000 A 
ATOM     30  O   UNL     1      47.457   4.810  16.286  0.00  0.00    +0.000 OA
ATOM     31  C   UNL     1      49.619   5.723  16.617  0.00  0.00    +0.000 A 
ATOM     32  H   UNL     1      48.005   3.295  18.138  0.00  0.00    +0.000 HD
ENDBRANCH  19  22
ENDBRANCH   1  20
TORSDOF 7
ENDMDL
MODEL 8
REMARK VINA RESULT:    -7.114      2.317      3.397
REMARK INTER + INTRA:         -11.071
REMARK INTER:                 -10.123
REMARK INTRA:                  -0.948
REMARK UNBOUND:                -1.045
REMARK  Name = 
REMARK  7 active torsions:
REMARK  status: ('A' for Active; 'I' for Inactive)
REMARK    1  A    between atoms: C_2  and  C_19
REMARK    2  A    between atoms: N_3  and  C_4
REMARK    3  A    between atoms: C_4  and  C_5
REMARK    4  A    between atoms: C_8  and  C_9
REMARK    5  A    between atoms: C_9  and  N_10
REMARK    6  A    between atoms: N_10  and  C_11
REMARK    7  A    between atoms: C_11  and  C_12
REMARK                            x       y       z     vdW  Elec       q    Type
REMARK                         _______ _______ _______ _____ _____    ______ ____
ROOT
ATOM      1  C   UNL     1      47.473   3.548  15.012  0.00  0.00    +0.000 C 
ENDROOT
BRANCH   1   2
ATOM      2  C   UNL     1      46.791   4.127  13.801  0.00  0.00    +0.000 A 
ATOM      3  C   UNL     1      47.044   5.451  13.426  0.00  0.00    +0.000 A 
ATOM      4  C   UNL     1      46.470   5.984  12.271  0.00  0.00    +0.000 A 
ATOM      5  C   UNL     1      45.634   5.205  11.454  0.00  0.00    +0.000 A 
ATOM      6  C   UNL     1      45.338   3.897  11.864  0.00  0.00    +0.000 A 
ATOM      7  C   UNL     1      45.907   3.365  13.027  0.00  0.00    +0.000 A 
BRANCH   5   8
ATOM      8  C   UNL     1      45.008   5.766  10.194  0.00  0.00    +0.000 C 
BRANCH   8   9
ATOM      9  N   UNL     1      45.588   5.179   8.987  0.00  0.00    +0.000 NA
ATOM     10  H   UNL     1      46.483   4.754   9.231  0.00  0.00    +0.000 HD
BRANCH   9  11
ATOM     11  C   UNL     1      44.737   4.131   8.412  0.00  0.00    +0.000 C 
BRANCH  11  12
ATOM     12  C   UNL     1      45.601   3.226   7.514  0.00  0.00    +0.000 C 
ATOM     13  C   UNL     1      46.104   1.972   8.207  0.00  0.00    +0.000 C 
ATOM     14  C   UNL     1      47.234   1.531   7.295  0.00  0.00    +0.000 C 
ATOM     15  C   UNL     1      47.790   2.827   6.718  0.00  0.00    +0.000 C 
ATOM     16  N   UNL     1      46.850   3.888   7.086  0.00  0.00    +0.000 NA
ATOM     17  H   UNL     1      46.654   4.487   6.284  0.00  0.00    +0.000 HD
ENDBRANCH  11  12
ENDBRANCH   9  11
ENDBRANCH   8   9
ENDBRANCH   5   8
ENDBRANCH   1   2
BRANCH   1  20
ATOM     18  O   UNL     1      47.323   3.234  17.804  0.00  0.00    +0.000 OA
ATOM     19  C   UNL     1      47.701   4.309  17.347  0.00  0.00    +0.000 C 
ATOM     20  N   UNL     1      47.776   4.552  16.000  0.00  0.00    +0.000 N 
ATOM     21  H   UNL     1      48.259   5.379  15.667  0.00  0.00    +0.000 HD
BRANCH  19  22
ATOM     22  C   UNL     1      48.037   5.432  18.224  0.00  0.00    +0.000 A 
ATOM     23  C   UNL     1      47.100   5.909  19.133  0.00  0.00    +0.000 A 
ATOM     24  S   UNL     1      47.670   7.205  20.083  0.00  0.00    +0.000 S 
ATOM     25  C   UNL     1      49.196   7.155  19.335  0.00  0.00    +0.000 A 
ATOM     26  N   UNL     1      50.194   7.995  19.720  0.00  0.00    +0.000 NA
ATOM     27  C   UNL     1      51.312   7.819  19.095  0.00  0.00    +0.000 A 
ATOM     28  N   UNL     1      51.515   6.889  18.108  0.00  0.00    +0.000 N 
ATOM     29  C   UNL     1      50.512   6.080  17.626  0.00  0.00    +0.000 A 
ATOM     30  O   UNL     1      50.687   5.382  16.637  0.00  0.00    +0.000 OA
ATOM     31  C   UNL     1      49.259   6.192  18.346  0.00  0.00    +0.000 A 
ATOM     32  H   UNL     1      52.402   6.834  17.625  0.00  0.00    +0.000 HD
ENDBRANCH  19  22
ENDBRANCH   1  20
TORSDOF 7
ENDMDL
MODEL 9
REMARK VINA RESULT:    -6.919      4.248      9.058
REMARK INTER + INTRA:         -10.796
REMARK INTER:                  -9.961
REMARK INTRA:                  -0.835
REMARK UNBOUND:                -1.045
REMARK  Name = 
REMARK  7 active torsions:
REMARK  status: ('A' for Active; 'I' for Inactive)
REMARK    1  A    between atoms: C_2  and  C_19
REMARK    2  A    between atoms: N_3  and  C_4
REMARK    3  A    between atoms: C_4  and  C_5
REMARK    4  A    between atoms: C_8  and  C_9
REMARK    5  A    between atoms: C_9  and  N_10
REMARK    6  A    between atoms: N_10  and  C_11
REMARK    7  A    between atoms: C_11  and  C_12
REMARK                            x       y       z     vdW  Elec       q    Type
REMARK                         _______ _______ _______ _____ _____    ______ ____
ROOT
ATOM      1  C   UNL     1      47.167   3.341  16.818  0.00  0.00    +0.000 C 
ENDROOT
BRANCH   1   2
ATOM      2  C   UNL     1      48.644   3.404  17.101  0.00  0.00    +0.000 A 
ATOM      3  C   UNL     1      49.232   4.619  17.470  0.00  0.00    +0.000 A 
ATOM      4  C   UNL     1      50.587   4.683  17.796  0.00  0.00    +0.000 A 
ATOM      5  C   UNL     1      51.390   3.531  17.771  0.00  0.00    +0.000 A 
ATOM      6  C   UNL     1      50.811   2.327  17.346  0.00  0.00    +0.000 A 
ATOM      7  C   UNL     1      49.453   2.265  17.010  0.00  0.00    +0.000 A 
BRANCH   5   8
ATOM      8  C   UNL     1      52.862   3.581  18.129  0.00  0.00    +0.000 C 
BRANCH   8   9
ATOM      9  N   UNL     1      53.188   2.677  19.230  0.00  0.00    +0.000 NA
ATOM     10  H   UNL     1      52.822   1.751  19.009  0.00  0.00    +0.000 HD
BRANCH   9  11
ATOM     11  C   UNL     1      54.636   2.548  19.437  0.00  0.00    +0.000 C 
BRANCH  11  12
ATOM     12  C   UNL     1      55.099   1.189  18.880  0.00  0.00    +0.000 C 
ATOM     13  C   UNL     1      55.584   1.247  17.443  0.00  0.00    +0.000 C 
ATOM     14  C   UNL     1      55.542  -0.213  17.030  0.00  0.00    +0.000 C 
ATOM     15  C   UNL     1      54.389  -0.805  17.831  0.00  0.00    +0.000 C 
ATOM     16  N   UNL     1      54.000   0.205  18.816  0.00  0.00    +0.000 NA
ATOM     17  H   UNL     1      53.877  -0.219  19.735  0.00  0.00    +0.000 HD
ENDBRANCH  11  12
ENDBRANCH   9  11
ENDBRANCH   8   9
ENDBRANCH   5   8
ENDBRANCH   1   2
BRANCH   1  20
ATOM     18  O   UNL     1      47.278   3.091  14.017  0.00  0.00    +0.000 OA
ATOM     19  C   UNL     1      46.816   4.120  14.504  0.00  0.00    +0.000 C 
ATOM     20  N   UNL     1      46.752   4.331  15.857  0.00  0.00    +0.000 N 
ATOM     21  H   UNL     1      46.205   5.106  16.216  0.00  0.00    +0.000 HD
BRANCH  19  22
ATOM     22  C   UNL     1      46.360   5.224  13.657  0.00  0.00    +0.000 A 
ATOM     23  C   UNL     1      47.188   6.318  13.437  0.00  0.00    +0.000 A 
ATOM     24  S   UNL     1      46.503   7.496  12.413  0.00  0.00    +0.000 S 
ATOM     25  C   UNL     1      45.091   6.572  12.202  0.00  0.00    +0.000 A 
ATOM     26  N   UNL     1      44.089   6.999  11.388  0.00  0.00    +0.000 NA
ATOM     27  C   UNL     1      43.095   6.177  11.290  0.00  0.00    +0.000 A 
ATOM     28  N   UNL     1      43.007   4.977  11.947  0.00  0.00    +0.000 N 
ATOM     29  C   UNL     1      43.954   4.547  12.847  0.00  0.00    +0.000 A 
ATOM     30  O   UNL     1      43.764   3.554  13.535  0.00  0.00    +0.000 OA
ATOM     31  C   UNL     1      45.123   5.402  12.936  0.00  0.00    +0.000 A 
ATOM     32  H   UNL     1      42.179   4.402  11.864  0.00  0.00    +0.000 HD
ENDBRANCH  19  22
ENDBRANCH   1  20
TORSDOF 7
ENDMDL
