MODEL 1
REMARK VINA RESULT:    -7.509      0.000      0.000
REMARK INTER + INTRA:         -10.674
REMARK INTER:                 -10.143
REMARK INTRA:                  -0.532
REMARK UNBOUND:                -0.532
REMARK  Name = 
REMARK  7 active torsions:
REMARK  status: ('A' for Active; 'I' for Inactive)
REMARK    1  A    between atoms: C_1  and  C_2
REMARK    2  A    between atoms: C_2  and  C_3
REMARK    3  A    between atoms: C_2  and  C_14
REMARK    4  A    between atoms: C_3  and  N_4
REMARK    5  A    between atoms: N_4  and  C_5
REMARK    6  A    between atoms: C_8  and  C_9
REMARK    7  A    between atoms: C_18  and  C_19
REMARK                            x       y       z     vdW  Elec       q    Type
REMARK                         _______ _______ _______ _____ _____    ______ ____
ROOT
ATOM      1  N   UNL     1      43.836   4.873   9.870  0.00  0.00    +0.000 N 
ATOM      2  H   UNL     1      43.401   5.603   9.310  0.00  0.00    +0.000 HD
ENDROOT
BRANCH   1   3
ATOM      3  C   UNL     1      44.727   4.025   9.234  0.00  0.00    +0.000 A 
ATOM      4  C   UNL     1      44.726   2.644   9.372  0.00  0.00    +0.000 A 
ATOM      5  N   UNL     1      45.554   1.787   8.729  0.00  0.00    +0.000 NA
ATOM      6  C   UNL     1      46.423   2.368   7.874  0.00  0.00    +0.000 A 
ATOM      7  N   UNL     1      46.540   3.693   7.653  0.00  0.00    +0.000 NA
ATOM      8  C   UNL     1      45.682   4.479   8.338  0.00  0.00    +0.000 A 
BRANCH   6   9
ATOM      9  C   UNL     1      47.327   1.445   7.083  0.00  0.00    +0.000 C 
ATOM     10  N   UNL     1      48.421   2.026   6.489  0.00  0.00    +0.000 N 
ATOM     11  O   UNL     1      47.131   0.241   6.960  0.00  0.00    +0.000 OA
ATOM     12  H   UNL     1      48.611   3.016   6.598  0.00  0.00    +0.000 HD
ATOM     13  H   UNL     1      49.060   1.439   5.966  0.00  0.00    +0.000 HD
ENDBRANCH   6   9
ENDBRANCH   1   3
BRANCH   1  14
ATOM     14  C   UNL     1      43.851   5.030  11.319  0.00  0.00    +0.000 C 
BRANCH  14  16
ATOM     15  C   UNL     1      45.708   4.042  12.828  0.00  0.00    +0.000 C 
ATOM     16  C   UNL     1      45.274   5.054  11.813  0.00  0.00    +0.000 C 
BRANCH  16  17
ATOM     17  C   UNL     1      45.852   6.396  12.003  0.00  0.00    +0.000 A 
ATOM     18  C   UNL     1      47.239   6.544  12.069  0.00  0.00    +0.000 A 
ATOM     19  C   UNL     1      47.813   7.810  12.147  0.00  0.00    +0.000 A 
ATOM     20  C   UNL     1      47.000   8.940  12.148  0.00  0.00    +0.000 A 
ATOM     21  C   UNL     1      45.610   8.809  12.080  0.00  0.00    +0.000 A 
ATOM     22  C   UNL     1      45.032   7.535  12.023  0.00  0.00    +0.000 A 
BRANCH  21  23
ATOM     23  C   UNL     1      44.792   9.994  12.031  0.00  0.00    +0.000 C 
ATOM     24  N   UNL     1      44.128  10.929  11.963  0.00  0.00    +0.000 NA
ENDBRANCH  21  23
ENDBRANCH  16  17
ENDBRANCH  14  16
ENDBRANCH   1  14
TORSDOF 6
ENDMDL
MODEL 2
REMARK VINA RESULT:    -7.450      2.172      3.117
REMARK INTER + INTRA:         -10.596
REMARK INTER:                  -9.884
REMARK INTRA:                  -0.711
REMARK UNBOUND:                -0.532
REMARK  Name = 
REMARK  7 active torsions:
REMARK  status: ('A' for Active; 'I' for Inactive)
REMARK    1  A    between atoms: C_1  and  C_2
REMARK    2  A    between atoms: C_2  and  C_3
REMARK    3  A    between atoms: C_2  and  C_14
REMARK    4  A    between atoms: C_3  and  N_4
REMARK    5  A    between atoms: N_4  and  C_5
REMARK    6  A    between atoms: C_8  and  C_9
REMARK    7  A    between atoms: C_18  and  C_19
REMARK                            x       y       z     vdW  Elec       q    Type
REMARK                         _______ _______ _______ _____ _____    ______ ____
ROOT
ATOM      1  N   UNL     1      43.446   3.685  10.130  0.00  0.00    +0.000 N 
ATOM      2  H   UNL     1      42.679   4.214   9.724  0.00  0.00    +0.000 HD
ENDROOT
BRANCH   1   3
ATOM      3  C   UNL     1      44.505   3.354   9.302  0.00  0.00    +0.000 A 
ATOM      4  C   UNL     1      45.034   2.076   9.180  0.00  0.00    +0.000 A 
ATOM      5  N   UNL     1      46.036   1.715   8.346  0.00  0.00    +0.000 NA
ATOM      6  C   UNL     1      46.519   2.710   7.571  0.00  0.00    +0.000 A 
ATOM      7  N   UNL     1      46.108   3.993   7.594  0.00  0.00    +0.000 NA
ATOM      8  C   UNL     1      45.109   4.273   8.457  0.00  0.00    +0.000 A 
BRANCH   6   9
ATOM      9  C   UNL     1      47.599   2.339   6.574  0.00  0.00    +0.000 C 
ATOM     10  N   UNL     1      47.692   3.131   5.456  0.00  0.00    +0.000 N 
ATOM     11  O   UNL     1      48.369   1.397   6.724  0.00  0.00    +0.000 OA
ATOM     12  H   UNL     1      47.078   3.928   5.326  0.00  0.00    +0.000 HD
ATOM     13  H   UNL     1      48.414   2.927   4.775  0.00  0.00    +0.000 HD
ENDBRANCH   6   9
ENDBRANCH   1   3
BRANCH   1  14
ATOM     14  C   UNL     1      43.600   3.694  11.580  0.00  0.00    +0.000 C 
BRANCH  14  16
ATOM     15  C   UNL     1      43.193   6.238  11.335  0.00  0.00    +0.000 C 
ATOM     16  C   UNL     1      43.848   5.102  12.056  0.00  0.00    +0.000 C 
BRANCH  16  17
ATOM     17  C   UNL     1      45.220   5.379  12.516  0.00  0.00    +0.000 A 
ATOM     18  C   UNL     1      45.972   6.367  11.877  0.00  0.00    +0.000 A 
ATOM     19  C   UNL     1      47.232   6.717  12.354  0.00  0.00    +0.000 A 
ATOM     20  C   UNL     1      47.744   6.086  13.484  0.00  0.00    +0.000 A 
ATOM     21  C   UNL     1      47.002   5.097  14.137  0.00  0.00    +0.000 A 
ATOM     22  C   UNL     1      45.744   4.730  13.644  0.00  0.00    +0.000 A 
BRANCH  21  23
ATOM     23  C   UNL     1      47.532   4.495  15.334  0.00  0.00    +0.000 C 
ATOM     24  N   UNL     1      47.966   4.044  16.297  0.00  0.00    +0.000 NA
ENDBRANCH  21  23
ENDBRANCH  16  17
ENDBRANCH  14  16
ENDBRANCH   1  14
TORSDOF 6
ENDMDL
MODEL 3
REMARK VINA RESULT:    -7.349      1.449      1.846
REMARK INTER + INTRA:         -10.459
REMARK INTER:                  -9.885
REMARK INTRA:                  -0.574
REMARK UNBOUND:                -0.532
REMARK  Name = 
REMARK  7 active torsions:
REMARK  status: ('A' for Active; 'I' for Inactive)
REMARK    1  A    between atoms: C_1  and  C_2
REMARK    2  A    between atoms: C_2  and  C_3
REMARK    3  A    between atoms: C_2  and  C_14
REMARK    4  A    between atoms: C_3  and  N_4
REMARK    5  A    between atoms: N_4  and  C_5
REMARK    6  A    between atoms: C_8  and  C_9
REMARK    7  A    between atoms: C_18  and  C_19
REMARK                            x       y       z     vdW  Elec       q    Type
REMARK                         _______ _______ _______ _____ _____    ______ ____
ROOT
ATOM      1  N   UNL     1      43.789   3.525  10.496  0.00  0.00    +0.000 N 
ATOM      2  H   UNL     1      43.005   4.140  10.293  0.00  0.00    +0.000 HD
ENDROOT
BRANCH   1   3
ATOM      3  C   UNL     1      44.709   3.304   9.485  0.00  0.00    +0.000 A 
ATOM      4  C   UNL     1      45.228   2.059   9.158  0.00  0.00    +0.000 A 
ATOM      5  N   UNL     1      46.092   1.807   8.147  0.00  0.00    +0.000 NA
ATOM      6  C   UNL     1      46.433   2.884   7.407  0.00  0.00    +0.000 A 
ATOM      7  N   UNL     1      46.015   4.147   7.620  0.00  0.00    +0.000 NA
ATOM      8  C   UNL     1      45.160   4.315   8.651  0.00  0.00    +0.000 A 
BRANCH   6   9
ATOM      9  C   UNL     1      47.348   2.640   6.224  0.00  0.00    +0.000 C 
ATOM     10  N   UNL     1      48.549   2.032   6.499  0.00  0.00    +0.000 N 
ATOM     11  O   UNL     1      47.067   2.947   5.071  0.00  0.00    +0.000 OA
ATOM     12  H   UNL     1      48.789   1.750   7.443  0.00  0.00    +0.000 HD
ATOM     13  H   UNL     1      49.181   1.835   5.732  0.00  0.00    +0.000 HD
ENDBRANCH   6   9
ENDBRANCH   1   3
BRANCH   1  14
ATOM     14  C   UNL     1      44.134   3.284  11.892  0.00  0.00    +0.000 C 
BRANCH  14  16
ATOM     15  C   UNL     1      42.594   5.284  12.463  0.00  0.00    +0.000 C 
ATOM     16  C   UNL     1      43.860   4.522  12.705  0.00  0.00    +0.000 C 
BRANCH  16  17
ATOM     17  C   UNL     1      45.036   5.364  12.986  0.00  0.00    +0.000 A 
ATOM     18  C   UNL     1      46.199   4.775  13.487  0.00  0.00    +0.000 A 
ATOM     19  C   UNL     1      47.354   5.530  13.667  0.00  0.00    +0.000 A 
ATOM     20  C   UNL     1      47.357   6.882  13.335  0.00  0.00    +0.000 A 
ATOM     21  C   UNL     1      46.201   7.486  12.829  0.00  0.00    +0.000 A 
ATOM     22  C   UNL     1      45.033   6.731  12.669  0.00  0.00    +0.000 A 
BRANCH  21  23
ATOM     23  C   UNL     1      46.243   8.874  12.445  0.00  0.00    +0.000 C 
ATOM     24  N   UNL     1      46.259   9.973  12.112  0.00  0.00    +0.000 NA
ENDBRANCH  21  23
ENDBRANCH  16  17
ENDBRANCH  14  16
ENDBRANCH   1  14
TORSDOF 6
ENDMDL
MODEL 4
REMARK VINA RESULT:    -7.145      3.841      7.190
REMARK INTER + INTRA:         -10.183
REMARK INTER:                 -10.116
REMARK INTRA:                  -0.067
REMARK UNBOUND:                -0.532
REMARK  Name = 
REMARK  7 active torsions:
REMARK  status: ('A' for Active; 'I' for Inactive)
REMARK    1  A    between atoms: C_1  and  C_2
REMARK    2  A    between atoms: C_2  and  C_3
REMARK    3  A    between atoms: C_2  and  C_14
REMARK    4  A    between atoms: C_3  and  N_4
REMARK    5  A    between atoms: N_4  and  C_5
REMARK    6  A    between atoms: C_8  and  C_9
REMARK    7  A    between atoms: C_18  and  C_19
REMARK                            x       y       z     vdW  Elec       q    Type
REMARK                         _______ _______ _______ _____ _____    ______ ____
ROOT
ATOM      1  N   UNL     1      45.866   5.310  11.312  0.00  0.00    +0.000 N 
ATOM      2  H   UNL     1      46.471   5.750  10.623  0.00  0.00    +0.000 HD
ENDROOT
BRANCH   1   3
ATOM      3  C   UNL     1      46.352   5.181  12.602  0.00  0.00    +0.000 A 
ATOM      4  C   UNL     1      45.925   4.220  13.507  0.00  0.00    +0.000 A 
ATOM      5  N   UNL     1      46.414   4.041  14.756  0.00  0.00    +0.000 NA
ATOM      6  C   UNL     1      47.415   4.878  15.101  0.00  0.00    +0.000 A 
ATOM      7  N   UNL     1      47.918   5.862  14.329  0.00  0.00    +0.000 NA
ATOM      8  C   UNL     1      47.372   5.978  13.099  0.00  0.00    +0.000 A 
BRANCH   6   9
ATOM      9  C   UNL     1      48.038   4.675  16.468  0.00  0.00    +0.000 C 
ATOM     10  N   UNL     1      47.633   5.539  17.455  0.00  0.00    +0.000 N 
ATOM     11  O   UNL     1      48.856   3.797  16.719  0.00  0.00    +0.000 OA
ATOM     12  H   UNL     1      46.941   6.258  17.272  0.00  0.00    +0.000 HD
ATOM     13  H   UNL     1      48.013   5.424  18.388  0.00  0.00    +0.000 HD
ENDBRANCH   6   9
ENDBRANCH   1   3
BRANCH   1  14
ATOM     14  C   UNL     1      44.435   5.254  11.039  0.00  0.00    +0.000 C 
BRANCH  14  16
ATOM     15  C   UNL     1      43.634   2.799  11.223  0.00  0.00    +0.000 C 
ATOM     16  C   UNL     1      44.095   3.945  10.375  0.00  0.00    +0.000 C 
BRANCH  16  17
ATOM     17  C   UNL     1      44.969   3.562   9.253  0.00  0.00    +0.000 A 
ATOM     18  C   UNL     1      45.580   4.558   8.487  0.00  0.00    +0.000 A 
ATOM     19  C   UNL     1      46.487   4.224   7.486  0.00  0.00    +0.000 A 
ATOM     20  C   UNL     1      46.799   2.887   7.251  0.00  0.00    +0.000 A 
ATOM     21  C   UNL     1      46.198   1.879   8.011  0.00  0.00    +0.000 A 
ATOM     22  C   UNL     1      45.269   2.214   9.003  0.00  0.00    +0.000 A 
BRANCH  21  23
ATOM     23  C   UNL     1      46.574   0.507   7.783  0.00  0.00    +0.000 C 
ATOM     24  N   UNL     1      46.844  -0.596   7.609  0.00  0.00    +0.000 NA
ENDBRANCH  21  23
ENDBRANCH  16  17
ENDBRANCH  14  16
ENDBRANCH   1  14
TORSDOF 6
ENDMDL
MODEL 5
REMARK VINA RESULT:    -7.113      2.083      2.763
REMARK INTER + INTRA:         -10.140
REMARK INTER:                  -9.631
REMARK INTRA:                  -0.509
REMARK UNBOUND:                -0.532
REMARK  Name = 
REMARK  7 active torsions:
REMARK  status: ('A' for Active; 'I' for Inactive)
REMARK    1  A    between atoms: C_1  and  C_2
REMARK    2  A    between atoms: C_2  and  C_3
REMARK    3  A    between atoms: C_2  and  C_14
REMARK    4  A    between atoms: C_3  and  N_4
REMARK    5  A    between atoms: N_4  and  C_5
REMARK    6  A    between atoms: C_8  and  C_9
REMARK    7  A    between atoms: C_18  and  C_19
REMARK                            x       y       z     vdW  Elec       q    Type
REMARK                         _______ _______ _______ _____ _____    ______ ____
ROOT
ATOM      1  N   UNL     1      43.935   4.124  10.453  0.00  0.00    +0.000 N 
ATOM      2  H   UNL     1      42.960   3.834  10.435  0.00  0.00    +0.000 HD
ENDROOT
BRANCH   1   3
ATOM      3  C   UNL     1      44.754   3.679   9.429  0.00  0.00    +0.000 A 
ATOM      4  C   UNL     1      45.333   4.505   8.475  0.00  0.00    +0.000 A 
ATOM      5  N   UNL     1      46.173   4.105   7.493  0.00  0.00    +0.000 NA
ATOM      6  C   UNL     1      46.461   2.786   7.491  0.00  0.00    +0.000 A 
ATOM      7  N   UNL     1      45.963   1.872   8.348  0.00  0.00    +0.000 NA
ATOM      8  C   UNL     1      45.128   2.351   9.295  0.00  0.00    +0.000 A 
BRANCH   6   9
ATOM      9  C   UNL     1      47.449   2.301   6.448  0.00  0.00    +0.000 C 
ATOM     10  N   UNL     1      47.558   3.067   5.314  0.00  0.00    +0.000 N 
ATOM     11  O   UNL     1      48.132   1.292   6.575  0.00  0.00    +0.000 OA
ATOM     12  H   UNL     1      47.017   3.918   5.201  0.00  0.00    +0.000 HD
ATOM     13  H   UNL     1      48.221   2.787   4.600  0.00  0.00    +0.000 HD
ENDBRANCH   6   9
ENDBRANCH   1   3
BRANCH   1  14
ATOM     14  C   UNL     1      44.295   5.291  11.250  0.00  0.00    +0.000 C 
BRANCH  14  16
ATOM     15  C   UNL     1      45.661   3.802  12.868  0.00  0.00    +0.000 C 
ATOM     16  C   UNL     1      45.572   5.020  12.001  0.00  0.00    +0.000 C 
BRANCH  16  17
ATOM     17  C   UNL     1      46.245   6.210  12.550  0.00  0.00    +0.000 A 
ATOM     18  C   UNL     1      45.598   7.448  12.503  0.00  0.00    +0.000 A 
ATOM     19  C   UNL     1      46.168   8.567  13.102  0.00  0.00    +0.000 A 
ATOM     20  C   UNL     1      47.387   8.453  13.766  0.00  0.00    +0.000 A 
ATOM     21  C   UNL     1      48.045   7.220  13.824  0.00  0.00    +0.000 A 
ATOM     22  C   UNL     1      47.482   6.099  13.202  0.00  0.00    +0.000 A 
BRANCH  21  23
ATOM     23  C   UNL     1      49.280   7.116  14.559  0.00  0.00    +0.000 C 
ATOM     24  N   UNL     1      50.280   7.043  15.119  0.00  0.00    +0.000 NA
ENDBRANCH  21  23
ENDBRANCH  16  17
ENDBRANCH  14  16
ENDBRANCH   1  14
TORSDOF 6
ENDMDL
MODEL 6
REMARK VINA RESULT:    -7.055      4.008      6.871
REMARK INTER + INTRA:         -10.062
REMARK INTER:                  -9.453
REMARK INTRA:                  -0.609
REMARK UNBOUND:                -0.532
REMARK  Name = 
REMARK  7 active torsions:
REMARK  status: ('A' for Active; 'I' for Inactive)
REMARK    1  A    between atoms: C_1  and  C_2
REMARK    2  A    between atoms: C_2  and  C_3
REMARK    3  A    between atoms: C_2  and  C_14
REMARK    4  A    between atoms: C_3  and  N_4
REMARK    5  A    between atoms: N_4  and  C_5
REMARK    6  A    between atoms: C_8  and  C_9
REMARK    7  A    between atoms: C_18  and  C_19
REMARK                            x       y       z     vdW  Elec       q    Type
REMARK                         _______ _______ _______ _____ _____    ______ ____
ROOT
ATOM      1  N   UNL     1      46.479   6.606  12.804  0.00  0.00    +0.000 N 
ATOM      2  H   UNL     1      45.771   7.236  13.173  0.00  0.00    +0.000 HD
ENDROOT
BRANCH   1   3
ATOM      3  C   UNL     1      46.985   5.640  13.657  0.00  0.00    +0.000 A 
ATOM      4  C   UNL     1      47.719   5.915  14.803  0.00  0.00    +0.000 A 
ATOM      5  N   UNL     1      48.186   4.995  15.678  0.00  0.00    +0.000 NA
ATOM      6  C   UNL     1      47.869   3.716  15.385  0.00  0.00    +0.000 A 
ATOM      7  N   UNL     1      47.175   3.308  14.303  0.00  0.00    +0.000 NA
ATOM      8  C   UNL     1      46.750   4.286  13.476  0.00  0.00    +0.000 A 
BRANCH   6   9
ATOM      9  C   UNL     1      48.315   2.655  16.371  0.00  0.00    +0.000 C 
ATOM     10  N   UNL     1      47.689   2.661  17.594  0.00  0.00    +0.000 N 
ATOM     11  O   UNL     1      49.177   1.819  16.128  0.00  0.00    +0.000 OA
ATOM     12  H   UNL     1      46.958   3.332  17.805  0.00  0.00    +0.000 HD
ATOM     13  H   UNL     1      47.946   1.957  18.275  0.00  0.00    +0.000 HD
ENDBRANCH   6   9
ENDBRANCH   1   3
BRANCH   1  14
ATOM     14  C   UNL     1      46.591   6.464  11.357  0.00  0.00    +0.000 C 
BRANCH  14  16
ATOM     15  C   UNL     1      44.009   6.489  11.534  0.00  0.00    +0.000 C 
ATOM     16  C   UNL     1      45.245   6.120  10.774  0.00  0.00    +0.000 C 
BRANCH  16  17
ATOM     17  C   UNL     1      45.172   4.822  10.082  0.00  0.00    +0.000 A 
ATOM     18  C   UNL     1      44.398   3.795  10.627  0.00  0.00    +0.000 A 
ATOM     19  C   UNL     1      44.232   2.594   9.942  0.00  0.00    +0.000 A 
ATOM     20  C   UNL     1      44.833   2.417   8.699  0.00  0.00    +0.000 A 
ATOM     21  C   UNL     1      45.609   3.436   8.139  0.00  0.00    +0.000 A 
ATOM     22  C   UNL     1      45.793   4.636   8.837  0.00  0.00    +0.000 A 
BRANCH  21  23
ATOM     23  C   UNL     1      46.178   3.249   6.829  0.00  0.00    +0.000 C 
ATOM     24  N   UNL     1      46.602   3.099   5.771  0.00  0.00    +0.000 NA
ENDBRANCH  21  23
ENDBRANCH  16  17
ENDBRANCH  14  16
ENDBRANCH   1  14
TORSDOF 6
ENDMDL
MODEL 7
REMARK VINA RESULT:    -6.917      3.815      6.917
REMARK INTER + INTRA:          -9.875
REMARK INTER:                  -9.211
REMARK INTRA:                  -0.664
REMARK UNBOUND:                -0.532
REMARK  Name = 
REMARK  7 active torsions:
REMARK  status: ('A' for Active; 'I' for Inactive)
REMARK    1  A    between atoms: C_1  and  C_2
REMARK    2  A    between atoms: C_2  and  C_3
REMARK    3  A    between atoms: C_2  and  C_14
REMARK    4  A    between atoms: C_3  and  N_4
REMARK    5  A    between atoms: N_4  and  C_5
REMARK    6  A    between atoms: C_8  and  C_9
REMARK    7  A    between atoms: C_18  and  C_19
REMARK                            x       y       z     vdW  Elec       q    Type
REMARK                         _______ _______ _______ _____ _____    ______ ____
ROOT
ATOM      1  N   UNL     1      45.164   4.153  13.021  0.00  0.00    +0.000 N 
ATOM      2  H   UNL     1      45.291   3.156  13.178  0.00  0.00    +0.000 HD
ENDROOT
BRANCH   1   3
ATOM      3  C   UNL     1      46.238   4.985  13.286  0.00  0.00    +0.000 A 
ATOM      4  C   UNL     1      47.034   4.898  14.420  0.00  0.00    +0.000 A 
ATOM      5  N   UNL     1      48.116   5.667  14.683  0.00  0.00    +0.000 NA
ATOM      6  C   UNL     1      48.424   6.565  13.724  0.00  0.00    +0.000 A 
ATOM      7  N   UNL     1      47.734   6.763  12.583  0.00  0.00    +0.000 NA
ATOM      8  C   UNL     1      46.665   5.961  12.399  0.00  0.00    +0.000 A 
BRANCH   6   9
ATOM      9  C   UNL     1      49.667   7.405  13.945  0.00  0.00    +0.000 C 
ATOM     10  N   UNL     1      50.477   7.590  12.851  0.00  0.00    +0.000 N 
ATOM     11  O   UNL     1      49.964   7.911  15.021  0.00  0.00    +0.000 OA
ATOM     12  H   UNL     1      50.236   7.197  11.948  0.00  0.00    +0.000 HD
ATOM     13  H   UNL     1      51.308   8.160  12.954  0.00  0.00    +0.000 HD
ENDBRANCH   6   9
ENDBRANCH   1   3
BRANCH   1  14
ATOM     14  C   UNL     1      44.079   4.581  12.146  0.00  0.00    +0.000 C 
BRANCH  14  16
ATOM     15  C   UNL     1      43.329   2.135  11.753  0.00  0.00    +0.000 C 
ATOM     16  C   UNL     1      43.722   3.468  11.195  0.00  0.00    +0.000 C 
BRANCH  16  17
ATOM     17  C   UNL     1      44.537   3.402   9.969  0.00  0.00    +0.000 A 
ATOM     18  C   UNL     1      44.920   4.586   9.334  0.00  0.00    +0.000 A 
ATOM     19  C   UNL     1      45.771   4.554   8.233  0.00  0.00    +0.000 A 
ATOM     20  C   UNL     1      46.255   3.335   7.766  0.00  0.00    +0.000 A 
ATOM     21  C   UNL     1      45.883   2.142   8.393  0.00  0.00    +0.000 A 
ATOM     22  C   UNL     1      45.010   2.172   9.487  0.00  0.00    +0.000 A 
BRANCH  21  23
ATOM     23  C   UNL     1      46.437   0.898   7.923  0.00  0.00    +0.000 C 
ATOM     24  N   UNL     1      46.853  -0.110   7.561  0.00  0.00    +0.000 NA
ENDBRANCH  21  23
ENDBRANCH  16  17
ENDBRANCH  14  16
ENDBRANCH   1  14
TORSDOF 6
ENDMDL
MODEL 8
REMARK VINA RESULT:    -6.350      4.534      7.116
REMARK INTER + INTRA:          -9.109
REMARK INTER:                  -8.507
REMARK INTRA:                  -0.602
REMARK UNBOUND:                -0.532
REMARK  Name = 
REMARK  7 active torsions:
REMARK  status: ('A' for Active; 'I' for Inactive)
REMARK    1  A    between atoms: C_1  and  C_2
REMARK    2  A    between atoms: C_2  and  C_3
REMARK    3  A    between atoms: C_2  and  C_14
REMARK    4  A    between atoms: C_3  and  N_4
REMARK    5  A    between atoms: N_4  and  C_5
REMARK    6  A    between atoms: C_8  and  C_9
REMARK    7  A    between atoms: C_18  and  C_19
REMARK                            x       y       z     vdW  Elec       q    Type
REMARK                         _______ _______ _______ _____ _____    ______ ____
ROOT
ATOM      1  N   UNL     1      47.709   7.094  13.389  0.00  0.00    +0.000 N 
ATOM      2  H   UNL     1      47.587   8.054  13.703  0.00  0.00    +0.000 HD
ENDROOT
BRANCH   1   3
ATOM      3  C   UNL     1      47.764   6.107  14.359  0.00  0.00    +0.000 A 
ATOM      4  C   UNL     1      48.527   6.187  15.515  0.00  0.00    +0.000 A 
ATOM      5  N   UNL     1      48.565   5.260  16.500  0.00  0.00    +0.000 NA
ATOM      6  C   UNL     1      47.760   4.193  16.309  0.00  0.00    +0.000 A 
ATOM      7  N   UNL     1      46.978   3.982  15.232  0.00  0.00    +0.000 NA
ATOM      8  C   UNL     1      47.002   4.951  14.292  0.00  0.00    +0.000 A 
BRANCH   6   9
ATOM      9  C   UNL     1      47.720   3.158  17.416  0.00  0.00    +0.000 C 
ATOM     10  N   UNL     1      48.901   2.934  18.081  0.00  0.00    +0.000 N 
ATOM     11  O   UNL     1      46.711   2.540  17.734  0.00  0.00    +0.000 OA
ATOM     12  H   UNL     1      49.741   3.453  17.847  0.00  0.00    +0.000 HD
ATOM     13  H   UNL     1      48.912   2.263  18.840  0.00  0.00    +0.000 HD
ENDBRANCH   6   9
ENDBRANCH   1   3
BRANCH   1  14
ATOM     14  C   UNL     1      47.380   6.772  12.006  0.00  0.00    +0.000 C 
BRANCH  14  16
ATOM     15  C   UNL     1      45.406   8.415  12.330  0.00  0.00    +0.000 C 
ATOM     16  C   UNL     1      45.954   7.163  11.718  0.00  0.00    +0.000 C 
BRANCH  16  17
ATOM     17  C   UNL     1      44.996   6.045  11.652  0.00  0.00    +0.000 A 
ATOM     18  C   UNL     1      43.786   6.135  12.343  0.00  0.00    +0.000 A 
ATOM     19  C   UNL     1      42.823   5.138  12.217  0.00  0.00    +0.000 A 
ATOM     20  C   UNL     1      43.060   4.046  11.385  0.00  0.00    +0.000 A 
ATOM     21  C   UNL     1      44.265   3.944  10.684  0.00  0.00    +0.000 A 
ATOM     22  C   UNL     1      45.243   4.936  10.828  0.00  0.00    +0.000 A 
BRANCH  21  23
ATOM     23  C   UNL     1      44.467   2.831   9.791  0.00  0.00    +0.000 C 
ATOM     24  N   UNL     1      44.659   1.954   9.075  0.00  0.00    +0.000 NA
ENDBRANCH  21  23
ENDBRANCH  16  17
ENDBRANCH  14  16
ENDBRANCH   1  14
TORSDOF 6
ENDMDL
MODEL 9
REMARK VINA RESULT:    -6.258      3.438      7.064
REMARK INTER + INTRA:          -8.985
REMARK INTER:                  -8.365
REMARK INTRA:                  -0.619
REMARK UNBOUND:                -0.532
REMARK  Name = 
REMARK  7 active torsions:
REMARK  status: ('A' for Active; 'I' for Inactive)
REMARK    1  A    between atoms: C_1  and  C_2
REMARK    2  A    between atoms: C_2  and  C_3
REMARK    3  A    between atoms: C_2  and  C_14
REMARK    4  A    between atoms: C_3  and  N_4
REMARK    5  A    between atoms: N_4  and  C_5
REMARK    6  A    between atoms: C_8  and  C_9
REMARK    7  A    between atoms: C_18  and  C_19
REMARK                            x       y       z     vdW  Elec       q    Type
REMARK                         _______ _______ _______ _____ _____    ______ ____
ROOT
ATOM      1  N   UNL     1      45.029   5.811  12.749  0.00  0.00    +0.000 N 
ATOM      2  H   UNL     1      44.289   5.975  13.427  0.00  0.00    +0.000 HD
ENDROOT
BRANCH   1   3
ATOM      3  C   UNL     1      45.941   6.831  12.537  0.00  0.00    +0.000 A 
ATOM      4  C   UNL     1      47.218   6.645  12.026  0.00  0.00    +0.000 A 
ATOM      5  N   UNL     1      48.113   7.626  11.765  0.00  0.00    +0.000 NA
ATOM      6  C   UNL     1      47.675   8.878  12.018  0.00  0.00    +0.000 A 
ATOM      7  N   UNL     1      46.468   9.201  12.524  0.00  0.00    +0.000 NA
ATOM      8  C   UNL     1      45.637   8.164  12.762  0.00  0.00    +0.000 A 
BRANCH   6   9
ATOM      9  C   UNL     1      48.619  10.015  11.681  0.00  0.00    +0.000 C 
ATOM     10  N   UNL     1      49.942   9.681  11.524  0.00  0.00    +0.000 N 
ATOM     11  O   UNL     1      48.260  11.179  11.542  0.00  0.00    +0.000 OA
ATOM     12  H   UNL     1      50.253   8.720  11.614  0.00  0.00    +0.000 HD
ATOM     13  H   UNL     1      50.602  10.410  11.280  0.00  0.00    +0.000 HD
ENDBRANCH   6   9
ENDBRANCH   1   3
BRANCH   1  14
ATOM     14  C   UNL     1      45.346   4.433  12.393  0.00  0.00    +0.000 C 
BRANCH  14  16
ATOM     15  C   UNL     1      43.314   2.980  11.716  0.00  0.00    +0.000 C 
ATOM     16  C   UNL     1      44.390   3.949  11.334  0.00  0.00    +0.000 C 
BRANCH  16  17
ATOM     17  C   UNL     1      44.987   3.708  10.009  0.00  0.00    +0.000 A 
ATOM     18  C   UNL     1      45.336   4.795   9.204  0.00  0.00    +0.000 A 
ATOM     19  C   UNL     1      45.991   4.597   7.993  0.00  0.00    +0.000 A 
ATOM     20  C   UNL     1      46.314   3.307   7.582  0.00  0.00    +0.000 A 
ATOM     21  C   UNL     1      45.974   2.208   8.377  0.00  0.00    +0.000 A 
ATOM     22  C   UNL     1      45.295   2.406   9.586  0.00  0.00    +0.000 A 
BRANCH  21  23
ATOM     23  C   UNL     1      46.363   0.887   7.955  0.00  0.00    +0.000 C 
ATOM     24  N   UNL     1      46.697  -0.153   7.600  0.00  0.00    +0.000 NA
ENDBRANCH  21  23
ENDBRANCH  16  17
ENDBRANCH  14  16
ENDBRANCH   1  14
TORSDOF 6
ENDMDL
