MODEL 1
REMARK VINA RESULT:    -7.955      0.000      0.000
REMARK INTER + INTRA:         -10.500
REMARK INTER:                 -10.047
REMARK INTRA:                  -0.453
REMARK UNBOUND:                -0.453
REMARK  Name = 
REMARK  5 active torsions:
REMARK  status: ('A' for Active; 'I' for Inactive)
REMARK    1  A    between atoms: N_1  and  C_2
REMARK    2  A    between atoms: C_2  and  C_3
REMARK    3  A    between atoms: C_3  and  C_4
REMARK    4  A    between atoms: C_7  and  C_8
REMARK    5  A    between atoms: C_8  and  C_9
REMARK                            x       y       z     vdW  Elec       q    Type
REMARK                         _______ _______ _______ _____ _____    ______ ____
ROOT
ATOM      1  C   UNL     1      45.868   3.228   7.672  0.00  0.00    +0.000 A 
ATOM      2  C   UNL     1      45.309   2.226   8.474  0.00  0.00    +0.000 A 
ATOM      3  C   UNL     1      44.851   2.517   9.763  0.00  0.00    +0.000 A 
ATOM      4  C   UNL     1      44.942   3.818  10.275  0.00  0.00    +0.000 A 
ATOM      5  C   UNL     1      45.482   4.824   9.461  0.00  0.00    +0.000 A 
ATOM      6  C   UNL     1      45.931   4.534   8.170  0.00  0.00    +0.000 A 
ENDROOT
BRANCH   1   7
ATOM      7  C   UNL     1      46.396   2.904   6.295  0.00  0.00    +0.000 C 
BRANCH   7   8
ATOM      8  C   UNL     1      47.277   1.652   6.286  0.00  0.00    +0.000 C 
BRANCH   8   9
ATOM      9  N   UNL     1      48.563   1.917   5.640  0.00  0.00    +0.000 NA
ATOM     10  H   UNL     1      48.953   2.783   6.010  0.00  0.00    +0.000 HD
ATOM     11  H   UNL     1      48.423   2.071   4.642  0.00  0.00    +0.000 HD
ENDBRANCH   8   9
ENDBRANCH   7   8
ENDBRANCH   1   7
BRANCH   4  12
ATOM     12  C   UNL     1      44.470   4.141  11.674  0.00  0.00    +0.000 C 
BRANCH  12  13
ATOM     13  C   UNL     1      45.554   4.161  12.697  0.00  0.00    +0.000 A 
ATOM     14  N   UNL     1      46.080   3.108  13.292  0.00  0.00    +0.000 NA
ATOM     15  N   UNL     1      47.142   3.529  14.059  0.00  0.00    +0.000 NA
ATOM     16  C   UNL     1      47.262   4.833  13.927  0.00  0.00    +0.000 A 
ATOM     17  N   UNL     1      48.189   5.696  14.447  0.00  0.00    +0.000 NA
ATOM     18  C   UNL     1      48.046   6.944  14.126  0.00  0.00    +0.000 A 
ATOM     19  C   UNL     1      46.974   7.521  13.267  0.00  0.00    +0.000 A 
ATOM     20  C   UNL     1      46.101   6.631  12.772  0.00  0.00    +0.000 A 
ATOM     21  N   UNL     1      46.246   5.286  13.091  0.00  0.00    +0.000 N 
ENDBRANCH  12  13
ENDBRANCH   4  12
TORSDOF 5
ENDMDL
MODEL 2
REMARK VINA RESULT:    -7.159      1.512      2.271
REMARK INTER + INTRA:          -9.496
REMARK INTER:                  -9.099
REMARK INTRA:                  -0.397
REMARK UNBOUND:                -0.453
REMARK  Name = 
REMARK  5 active torsions:
REMARK  status: ('A' for Active; 'I' for Inactive)
REMARK    1  A    between atoms: N_1  and  C_2
REMARK    2  A    between atoms: C_2  and  C_3
REMARK    3  A    between atoms: C_3  and  C_4
REMARK    4  A    between atoms: C_7  and  C_8
REMARK    5  A    between atoms: C_8  and  C_9
REMARK                            x       y       z     vdW  Elec       q    Type
REMARK                         _______ _______ _______ _____ _____    ______ ____
ROOT
ATOM      1  C   UNL     1      45.842   2.496   8.114  0.00  0.00    +0.000 A 
ATOM      2  C   UNL     1      44.989   1.955   9.082  0.00  0.00    +0.000 A 
ATOM      3  C   UNL     1      44.300   2.787   9.970  0.00  0.00    +0.000 A 
ATOM      4  C   UNL     1      44.448   4.179   9.904  0.00  0.00    +0.000 A 
ATOM      5  C   UNL     1      45.286   4.718   8.918  0.00  0.00    +0.000 A 
ATOM      6  C   UNL     1      45.968   3.886   8.026  0.00  0.00    +0.000 A 
ENDROOT
BRANCH   1   7
ATOM      7  C   UNL     1      46.614   1.594   7.180  0.00  0.00    +0.000 C 
BRANCH   7   8
ATOM      8  C   UNL     1      48.023   2.121   6.892  0.00  0.00    +0.000 C 
BRANCH   8   9
ATOM      9  N   UNL     1      48.425   1.826   5.516  0.00  0.00    +0.000 NA
ATOM     10  H   UNL     1      49.323   2.269   5.326  0.00  0.00    +0.000 HD
ATOM     11  H   UNL     1      47.759   2.242   4.866  0.00  0.00    +0.000 HD
ENDBRANCH   8   9
ENDBRANCH   7   8
ENDBRANCH   1   7
BRANCH   4  12
ATOM     12  C   UNL     1      43.725   5.088  10.871  0.00  0.00    +0.000 C 
BRANCH  12  13
ATOM     13  C   UNL     1      44.560   6.199  11.410  0.00  0.00    +0.000 A 
ATOM     14  N   UNL     1      44.345   7.488  11.233  0.00  0.00    +0.000 NA
ATOM     15  N   UNL     1      45.247   8.187  12.002  0.00  0.00    +0.000 NA
ATOM     16  C   UNL     1      46.006   7.324  12.646  0.00  0.00    +0.000 A 
ATOM     17  N   UNL     1      47.003   7.529  13.560  0.00  0.00    +0.000 NA
ATOM     18  C   UNL     1      47.570   6.462  14.031  0.00  0.00    +0.000 A 
ATOM     19  C   UNL     1      47.250   5.054  13.665  0.00  0.00    +0.000 A 
ATOM     20  C   UNL     1      46.256   4.908  12.777  0.00  0.00    +0.000 A 
ATOM     21  N   UNL     1      45.624   6.039  12.272  0.00  0.00    +0.000 N 
ENDBRANCH  12  13
ENDBRANCH   4  12
TORSDOF 5
ENDMDL
MODEL 3
REMARK VINA RESULT:    -6.621      2.090      6.828
REMARK INTER + INTRA:          -8.816
REMARK INTER:                  -8.375
REMARK INTRA:                  -0.440
REMARK UNBOUND:                -0.453
REMARK  Name = 
REMARK  5 active torsions:
REMARK  status: ('A' for Active; 'I' for Inactive)
REMARK    1  A    between atoms: N_1  and  C_2
REMARK    2  A    between atoms: C_2  and  C_3
REMARK    3  A    between atoms: C_3  and  C_4
REMARK    4  A    between atoms: C_7  and  C_8
REMARK    5  A    between atoms: C_8  and  C_9
REMARK                            x       y       z     vdW  Elec       q    Type
REMARK                         _______ _______ _______ _____ _____    ______ ____
ROOT
ATOM      1  C   UNL     1      46.467   4.914  13.737  0.00  0.00    +0.000 A 
ATOM      2  C   UNL     1      45.921   5.937  12.954  0.00  0.00    +0.000 A 
ATOM      3  C   UNL     1      45.246   5.642  11.765  0.00  0.00    +0.000 A 
ATOM      4  C   UNL     1      45.103   4.315  11.337  0.00  0.00    +0.000 A 
ATOM      5  C   UNL     1      45.631   3.292  12.136  0.00  0.00    +0.000 A 
ATOM      6  C   UNL     1      46.298   3.587  13.328  0.00  0.00    +0.000 A 
ENDROOT
BRANCH   1   7
ATOM      7  C   UNL     1      47.228   5.237  15.002  0.00  0.00    +0.000 C 
BRANCH   7   8
ATOM      8  C   UNL     1      47.428   4.008  15.893  0.00  0.00    +0.000 C 
BRANCH   8   9
ATOM      9  N   UNL     1      48.677   4.102  16.649  0.00  0.00    +0.000 NA
ATOM     10  H   UNL     1      48.843   5.075  16.905  0.00  0.00    +0.000 HD
ATOM     11  H   UNL     1      49.460   3.827  16.056  0.00  0.00    +0.000 HD
ENDBRANCH   8   9
ENDBRANCH   7   8
ENDBRANCH   1   7
BRANCH   4  12
ATOM     12  C   UNL     1      44.394   3.984  10.044  0.00  0.00    +0.000 C 
BRANCH  12  13
ATOM     13  C   UNL     1      45.286   3.937   8.851  0.00  0.00    +0.000 A 
ATOM     14  N   UNL     1      45.785   4.978   8.213  0.00  0.00    +0.000 NA
ATOM     15  N   UNL     1      46.667   4.520   7.262  0.00  0.00    +0.000 NA
ATOM     16  C   UNL     1      46.706   3.206   7.324  0.00  0.00    +0.000 A 
ATOM     17  N   UNL     1      47.462   2.306   6.624  0.00  0.00    +0.000 NA
ATOM     18  C   UNL     1      47.279   1.057   6.919  0.00  0.00    +0.000 A 
ATOM     19  C   UNL     1      46.324   0.516   7.927  0.00  0.00    +0.000 A 
ATOM     20  C   UNL     1      45.618   1.441   8.595  0.00  0.00    +0.000 A 
ATOM     21  N   UNL     1      45.812   2.786   8.305  0.00  0.00    +0.000 N 
ENDBRANCH  12  13
ENDBRANCH   4  12
TORSDOF 5
ENDMDL
MODEL 4
REMARK VINA RESULT:    -6.584      1.691      6.477
REMARK INTER + INTRA:          -8.769
REMARK INTER:                  -8.293
REMARK INTRA:                  -0.476
REMARK UNBOUND:                -0.453
REMARK  Name = 
REMARK  5 active torsions:
REMARK  status: ('A' for Active; 'I' for Inactive)
REMARK    1  A    between atoms: N_1  and  C_2
REMARK    2  A    between atoms: C_2  and  C_3
REMARK    3  A    between atoms: C_3  and  C_4
REMARK    4  A    between atoms: C_7  and  C_8
REMARK    5  A    between atoms: C_8  and  C_9
REMARK                            x       y       z     vdW  Elec       q    Type
REMARK                         _______ _______ _______ _____ _____    ______ ____
ROOT
ATOM      1  C   UNL     1      45.827   5.528  12.172  0.00  0.00    +0.000 A 
ATOM      2  C   UNL     1      45.790   5.936  10.834  0.00  0.00    +0.000 A 
ATOM      3  C   UNL     1      45.335   5.069   9.836  0.00  0.00    +0.000 A 
ATOM      4  C   UNL     1      44.906   3.774  10.158  0.00  0.00    +0.000 A 
ATOM      5  C   UNL     1      44.924   3.376  11.502  0.00  0.00    +0.000 A 
ATOM      6  C   UNL     1      45.371   4.247  12.499  0.00  0.00    +0.000 A 
ENDROOT
BRANCH   1   7
ATOM      7  C   UNL     1      46.354   6.453  13.244  0.00  0.00    +0.000 C 
BRANCH   7   8
ATOM      8  C   UNL     1      47.699   7.079  12.866  0.00  0.00    +0.000 C 
BRANCH   8   9
ATOM      9  N   UNL     1      48.795   6.128  13.055  0.00  0.00    +0.000 NA
ATOM     10  H   UNL     1      48.789   5.452  12.292  0.00  0.00    +0.000 HD
ATOM     11  H   UNL     1      48.644   5.593  13.910  0.00  0.00    +0.000 HD
ENDBRANCH   8   9
ENDBRANCH   7   8
ENDBRANCH   1   7
BRANCH   4  12
ATOM     12  C   UNL     1      44.433   2.820   9.086  0.00  0.00    +0.000 C 
BRANCH  12  13
ATOM     13  C   UNL     1      45.518   2.011   8.462  0.00  0.00    +0.000 A 
ATOM     14  N   UNL     1      45.820   0.760   8.754  0.00  0.00    +0.000 NA
ATOM     15  N   UNL     1      46.778   0.329   7.867  0.00  0.00    +0.000 NA
ATOM     16  C   UNL     1      47.055   1.313   7.037  0.00  0.00    +0.000 A 
ATOM     17  N   UNL     1      47.898   1.355   5.960  0.00  0.00    +0.000 NA
ATOM     18  C   UNL     1      47.953   2.483   5.324  0.00  0.00    +0.000 A 
ATOM     19  C   UNL     1      47.204   3.726   5.661  0.00  0.00    +0.000 A 
ATOM     20  C   UNL     1      46.382   3.627   6.716  0.00  0.00    +0.000 A 
ATOM     21  N   UNL     1      46.296   2.421   7.401  0.00  0.00    +0.000 N 
ENDBRANCH  12  13
ENDBRANCH   4  12
TORSDOF 5
ENDMDL
MODEL 5
REMARK VINA RESULT:    -6.062      1.452      2.381
REMARK INTER + INTRA:          -8.110
REMARK INTER:                  -7.739
REMARK INTRA:                  -0.371
REMARK UNBOUND:                -0.453
REMARK  Name = 
REMARK  5 active torsions:
REMARK  status: ('A' for Active; 'I' for Inactive)
REMARK    1  A    between atoms: N_1  and  C_2
REMARK    2  A    between atoms: C_2  and  C_3
REMARK    3  A    between atoms: C_3  and  C_4
REMARK    4  A    between atoms: C_7  and  C_8
REMARK    5  A    between atoms: C_8  and  C_9
REMARK                            x       y       z     vdW  Elec       q    Type
REMARK                         _______ _______ _______ _____ _____    ______ ____
ROOT
ATOM      1  C   UNL     1      45.137   3.743   9.081  0.00  0.00    +0.000 A 
ATOM      2  C   UNL     1      45.491   5.069   9.354  0.00  0.00    +0.000 A 
ATOM      3  C   UNL     1      45.517   5.544  10.668  0.00  0.00    +0.000 A 
ATOM      4  C   UNL     1      45.190   4.701  11.738  0.00  0.00    +0.000 A 
ATOM      5  C   UNL     1      44.856   3.367  11.464  0.00  0.00    +0.000 A 
ATOM      6  C   UNL     1      44.839   2.891  10.150  0.00  0.00    +0.000 A 
ENDROOT
BRANCH   1   7
ATOM      7  C   UNL     1      45.073   3.241   7.658  0.00  0.00    +0.000 C 
BRANCH   7   8
ATOM      8  C   UNL     1      46.457   2.908   7.094  0.00  0.00    +0.000 C 
BRANCH   8   9
ATOM      9  N   UNL     1      46.932   3.968   6.204  0.00  0.00    +0.000 NA
ATOM     10  H   UNL     1      46.634   4.872   6.568  0.00  0.00    +0.000 HD
ATOM     11  H   UNL     1      46.495   3.871   5.288  0.00  0.00    +0.000 HD
ENDBRANCH   8   9
ENDBRANCH   7   8
ENDBRANCH   1   7
BRANCH   4  12
ATOM     12  C   UNL     1      45.193   5.208  13.162  0.00  0.00    +0.000 C 
BRANCH  12  13
ATOM     13  C   UNL     1      46.491   5.794  13.601  0.00  0.00    +0.000 A 
ATOM     14  N   UNL     1      47.507   5.131  14.121  0.00  0.00    +0.000 NA
ATOM     15  N   UNL     1      48.565   5.999  14.259  0.00  0.00    +0.000 NA
ATOM     16  C   UNL     1      48.195   7.185  13.822  0.00  0.00    +0.000 A 
ATOM     17  N   UNL     1      48.903   8.350  13.708  0.00  0.00    +0.000 NA
ATOM     18  C   UNL     1      48.256   9.364  13.226  0.00  0.00    +0.000 A 
ATOM     19  C   UNL     1      46.827   9.384  12.804  0.00  0.00    +0.000 A 
ATOM     20  C   UNL     1      46.182   8.213  12.922  0.00  0.00    +0.000 A 
ATOM     21  N   UNL     1      46.864   7.109  13.421  0.00  0.00    +0.000 N 
ENDBRANCH  12  13
ENDBRANCH   4  12
TORSDOF 5
ENDMDL
MODEL 6
REMARK VINA RESULT:    -6.010      2.343      6.528
REMARK INTER + INTRA:          -8.044
REMARK INTER:                  -7.713
REMARK INTRA:                  -0.331
REMARK UNBOUND:                -0.453
REMARK  Name = 
REMARK  5 active torsions:
REMARK  status: ('A' for Active; 'I' for Inactive)
REMARK    1  A    between atoms: N_1  and  C_2
REMARK    2  A    between atoms: C_2  and  C_3
REMARK    3  A    between atoms: C_3  and  C_4
REMARK    4  A    between atoms: C_7  and  C_8
REMARK    5  A    between atoms: C_8  and  C_9
REMARK                            x       y       z     vdW  Elec       q    Type
REMARK                         _______ _______ _______ _____ _____    ______ ____
ROOT
ATOM      1  C   UNL     1      47.705   7.612  13.460  0.00  0.00    +0.000 A 
ATOM      2  C   UNL     1      47.567   6.289  13.027  0.00  0.00    +0.000 A 
ATOM      3  C   UNL     1      46.394   5.863  12.398  0.00  0.00    +0.000 A 
ATOM      4  C   UNL     1      45.333   6.754  12.189  0.00  0.00    +0.000 A 
ATOM      5  C   UNL     1      45.482   8.085  12.605  0.00  0.00    +0.000 A 
ATOM      6  C   UNL     1      46.659   8.512  13.225  0.00  0.00    +0.000 A 
ENDROOT
BRANCH   1   7
ATOM      7  C   UNL     1      48.959   8.061  14.173  0.00  0.00    +0.000 C 
BRANCH   7   8
ATOM      8  C   UNL     1      49.299   7.173  15.373  0.00  0.00    +0.000 C 
BRANCH   8   9
ATOM      9  N   UNL     1      48.284   7.291  16.420  0.00  0.00    +0.000 NA
ATOM     10  H   UNL     1      48.744   7.400  17.323  0.00  0.00    +0.000 HD
ATOM     11  H   UNL     1      47.746   6.427  16.477  0.00  0.00    +0.000 HD
ENDBRANCH   8   9
ENDBRANCH   7   8
ENDBRANCH   1   7
BRANCH   4  12
ATOM     12  C   UNL     1      44.051   6.302  11.530  0.00  0.00    +0.000 C 
BRANCH  12  13
ATOM     13  C   UNL     1      43.997   4.843  11.230  0.00  0.00    +0.000 A 
ATOM     14  N   UNL     1      43.302   3.938  11.893  0.00  0.00    +0.000 NA
ATOM     15  N   UNL     1      43.402   2.740  11.224  0.00  0.00    +0.000 NA
ATOM     16  C   UNL     1      44.152   2.917  10.156  0.00  0.00    +0.000 A 
ATOM     17  N   UNL     1      44.497   2.045   9.160  0.00  0.00    +0.000 NA
ATOM     18  C   UNL     1      45.255   2.523   8.223  0.00  0.00    +0.000 A 
ATOM     19  C   UNL     1      45.789   3.912   8.138  0.00  0.00    +0.000 A 
ATOM     20  C   UNL     1      45.409   4.730   9.132  0.00  0.00    +0.000 A 
ATOM     21  N   UNL     1      44.583   4.240  10.137  0.00  0.00    +0.000 N 
ENDBRANCH  12  13
ENDBRANCH   4  12
TORSDOF 5
ENDMDL
MODEL 7
REMARK VINA RESULT:    -5.800      2.592      3.922
REMARK INTER + INTRA:          -7.778
REMARK INTER:                  -7.956
REMARK INTRA:                   0.178
REMARK UNBOUND:                -0.453
REMARK  Name = 
REMARK  5 active torsions:
REMARK  status: ('A' for Active; 'I' for Inactive)
REMARK    1  A    between atoms: N_1  and  C_2
REMARK    2  A    between atoms: C_2  and  C_3
REMARK    3  A    between atoms: C_3  and  C_4
REMARK    4  A    between atoms: C_7  and  C_8
REMARK    5  A    between atoms: C_8  and  C_9
REMARK                            x       y       z     vdW  Elec       q    Type
REMARK                         _______ _______ _______ _____ _____    ______ ____
ROOT
ATOM      1  C   UNL     1      44.901   4.517  10.515  0.00  0.00    +0.000 A 
ATOM      2  C   UNL     1      45.706   5.656  10.621  0.00  0.00    +0.000 A 
ATOM      3  C   UNL     1      46.313   5.990  11.836  0.00  0.00    +0.000 A 
ATOM      4  C   UNL     1      46.127   5.187  12.970  0.00  0.00    +0.000 A 
ATOM      5  C   UNL     1      45.338   4.034  12.854  0.00  0.00    +0.000 A 
ATOM      6  C   UNL     1      44.739   3.697  11.637  0.00  0.00    +0.000 A 
ENDROOT
BRANCH   1   7
ATOM      7  C   UNL     1      44.216   4.178   9.212  0.00  0.00    +0.000 C 
BRANCH   7   8
ATOM      8  C   UNL     1      45.107   3.352   8.281  0.00  0.00    +0.000 C 
BRANCH   8   9
ATOM      9  N   UNL     1      45.947   4.215   7.450  0.00  0.00    +0.000 NA
ATOM     10  H   UNL     1      46.028   5.131   7.891  0.00  0.00    +0.000 HD
ATOM     11  H   UNL     1      45.496   4.372   6.550  0.00  0.00    +0.000 HD
ENDBRANCH   8   9
ENDBRANCH   7   8
ENDBRANCH   1   7
BRANCH   4  12
ATOM     12  C   UNL     1      46.760   5.548  14.294  0.00  0.00    +0.000 C 
BRANCH  12  13
ATOM     13  C   UNL     1      47.260   4.380  15.073  0.00  0.00    +0.000 A 
ATOM     14  N   UNL     1      47.561   3.191  14.585  0.00  0.00    +0.000 NA
ATOM     15  N   UNL     1      48.119   2.439  15.592  0.00  0.00    +0.000 NA
ATOM     16  C   UNL     1      48.160   3.168  16.687  0.00  0.00    +0.000 A 
ATOM     17  N   UNL     1      48.667   2.882  17.926  0.00  0.00    +0.000 NA
ATOM     18  C   UNL     1      48.565   3.821  18.813  0.00  0.00    +0.000 A 
ATOM     19  C   UNL     1      47.944   5.161  18.616  0.00  0.00    +0.000 A 
ATOM     20  C   UNL     1      47.476   5.396  17.381  0.00  0.00    +0.000 A 
ATOM     21  N   UNL     1      47.590   4.407  16.411  0.00  0.00    +0.000 N 
ENDBRANCH  12  13
ENDBRANCH   4  12
TORSDOF 5
ENDMDL
MODEL 8
REMARK VINA RESULT:    -5.644      3.989      6.335
REMARK INTER + INTRA:          -7.582
REMARK INTER:                  -7.121
REMARK INTRA:                  -0.462
REMARK UNBOUND:                -0.453
REMARK  Name = 
REMARK  5 active torsions:
REMARK  status: ('A' for Active; 'I' for Inactive)
REMARK    1  A    between atoms: N_1  and  C_2
REMARK    2  A    between atoms: C_2  and  C_3
REMARK    3  A    between atoms: C_3  and  C_4
REMARK    4  A    between atoms: C_7  and  C_8
REMARK    5  A    between atoms: C_8  and  C_9
REMARK                            x       y       z     vdW  Elec       q    Type
REMARK                         _______ _______ _______ _____ _____    ______ ____
ROOT
ATOM      1  C   UNL     1      47.066   5.977  13.115  0.00  0.00    +0.000 A 
ATOM      2  C   UNL     1      47.922   6.385  14.144  0.00  0.00    +0.000 A 
ATOM      3  C   UNL     1      48.063   5.616  15.302  0.00  0.00    +0.000 A 
ATOM      4  C   UNL     1      47.349   4.419  15.455  0.00  0.00    +0.000 A 
ATOM      5  C   UNL     1      46.509   4.002  14.413  0.00  0.00    +0.000 A 
ATOM      6  C   UNL     1      46.376   4.767  13.252  0.00  0.00    +0.000 A 
ENDROOT
BRANCH   1   7
ATOM      7  C   UNL     1      46.886   6.828  11.880  0.00  0.00    +0.000 C 
BRANCH   7   8
ATOM      8  C   UNL     1      45.834   6.258  10.926  0.00  0.00    +0.000 C 
BRANCH   8   9
ATOM      9  N   UNL     1      44.596   7.035  10.981  0.00  0.00    +0.000 NA
ATOM     10  H   UNL     1      44.250   7.185  10.034  0.00  0.00    +0.000 HD
ATOM     11  H   UNL     1      44.786   7.960  11.365  0.00  0.00    +0.000 HD
ENDBRANCH   8   9
ENDBRANCH   7   8
ENDBRANCH   1   7
BRANCH   4  12
ATOM     12  C   UNL     1      47.476   3.589  16.711  0.00  0.00    +0.000 C 
BRANCH  12  13
ATOM     13  C   UNL     1      48.791   2.905  16.864  0.00  0.00    +0.000 A 
ATOM     14  N   UNL     1      49.189   1.831  16.209  0.00  0.00    +0.000 NA
ATOM     15  N   UNL     1      50.507   1.595  16.525  0.00  0.00    +0.000 NA
ATOM     16  C   UNL     1      50.910   2.525  17.366  0.00  0.00    +0.000 A 
ATOM     17  N   UNL     1      52.140   2.745  17.923  0.00  0.00    +0.000 NA
ATOM     18  C   UNL     1      52.229   3.763  18.722  0.00  0.00    +0.000 A 
ATOM     19  C   UNL     1      51.127   4.694  19.095  0.00  0.00    +0.000 A 
ATOM     20  C   UNL     1      49.946   4.443  18.510  0.00  0.00    +0.000 A 
ATOM     21  N   UNL     1      49.835   3.366  17.638  0.00  0.00    +0.000 N 
ENDBRANCH  12  13
ENDBRANCH   4  12
TORSDOF 5
ENDMDL
MODEL 9
REMARK VINA RESULT:    -5.618      2.396      6.320
REMARK INTER + INTRA:          -7.549
REMARK INTER:                  -7.184
REMARK INTRA:                  -0.365
REMARK UNBOUND:                -0.453
REMARK  Name = 
REMARK  5 active torsions:
REMARK  status: ('A' for Active; 'I' for Inactive)
REMARK    1  A    between atoms: N_1  and  C_2
REMARK    2  A    between atoms: C_2  and  C_3
REMARK    3  A    between atoms: C_3  and  C_4
REMARK    4  A    between atoms: C_7  and  C_8
REMARK    5  A    between atoms: C_8  and  C_9
REMARK                            x       y       z     vdW  Elec       q    Type
REMARK                         _______ _______ _______ _____ _____    ______ ____
ROOT
ATOM      1  C   UNL     1      46.445   7.639  12.816  0.00  0.00    +0.000 A 
ATOM      2  C   UNL     1      45.289   8.229  12.294  0.00  0.00    +0.000 A 
ATOM      3  C   UNL     1      44.401   7.486  11.510  0.00  0.00    +0.000 A 
ATOM      4  C   UNL     1      44.653   6.135  11.232  0.00  0.00    +0.000 A 
ATOM      5  C   UNL     1      45.802   5.542  11.774  0.00  0.00    +0.000 A 
ATOM      6  C   UNL     1      46.683   6.283  12.566  0.00  0.00    +0.000 A 
ENDROOT
BRANCH   1   7
ATOM      7  C   UNL     1      47.422   8.453  13.632  0.00  0.00    +0.000 C 
BRANCH   7   8
ATOM      8  C   UNL     1      48.088   9.561  12.812  0.00  0.00    +0.000 C 
BRANCH   8   9
ATOM      9  N   UNL     1      49.289   9.069  12.137  0.00  0.00    +0.000 NA
ATOM     10  H   UNL     1      49.956   9.833  12.037  0.00  0.00    +0.000 HD
ATOM     11  H   UNL     1      49.055   8.769  11.191  0.00  0.00    +0.000 HD
ENDBRANCH   8   9
ENDBRANCH   7   8
ENDBRANCH   1   7
BRANCH   4  12
ATOM     12  C   UNL     1      43.713   5.327  10.368  0.00  0.00    +0.000 C 
BRANCH  12  13
ATOM     13  C   UNL     1      44.195   3.951  10.059  0.00  0.00    +0.000 A 
ATOM     14  N   UNL     1      43.731   2.830  10.580  0.00  0.00    +0.000 NA
ATOM     15  N   UNL     1      44.333   1.773   9.937  0.00  0.00    +0.000 NA
ATOM     16  C   UNL     1      45.158   2.250   9.028  0.00  0.00    +0.000 A 
ATOM     17  N   UNL     1      45.938   1.601   8.110  0.00  0.00    +0.000 NA
ATOM     18  C   UNL     1      46.648   2.356   7.332  0.00  0.00    +0.000 A 
ATOM     19  C   UNL     1      46.703   3.845   7.351  0.00  0.00    +0.000 A 
ATOM     20  C   UNL     1      45.908   4.432   8.259  0.00  0.00    +0.000 A 
ATOM     21  N   UNL     1      45.127   3.640   9.092  0.00  0.00    +0.000 N 
ENDBRANCH  12  13
ENDBRANCH   4  12
TORSDOF 5
ENDMDL
