MODEL 1
REMARK VINA RESULT:    -7.694      0.000      0.000
REMARK INTER + INTRA:         -10.410
REMARK INTER:                  -9.944
REMARK INTRA:                  -0.467
REMARK UNBOUND:                -0.467
REMARK  Name = 
REMARK  6 active torsions:
REMARK  status: ('A' for Active; 'I' for Inactive)
REMARK    1  A    between atoms: N_1  and  C_2
REMARK    2  A    between atoms: C_2  and  C_3
REMARK    3  A    between atoms: C_3  and  C_4
REMARK    4  A    between atoms: C_7  and  C_8
REMARK    5  A    between atoms: C_8  and  C_9
REMARK    6  A    between atoms: C_14  and  N_15
REMARK                            x       y       z     vdW  Elec       q    Type
REMARK                         _______ _______ _______ _____ _____    ______ ____
ROOT
ATOM      1  C   UNL     1      43.927   4.626  10.698  0.00  0.00    +0.000 C 
ENDROOT
BRANCH   1   2
ATOM      2  C   UNL     1      44.606   4.728  12.021  0.00  0.00    +0.000 A 
ATOM      3  N   UNL     1      44.329   4.011  13.095  0.00  0.00    +0.000 NA
ATOM      4  N   UNL     1      45.287   4.264  14.049  0.00  0.00    +0.000 NA
ATOM      5  C   UNL     1      46.138   5.127  13.542  0.00  0.00    +0.000 A 
ATOM      6  C   UNL     1      47.352   5.683  14.035  0.00  0.00    +0.000 A 
ATOM      7  C   UNL     1      48.054   6.566  13.290  0.00  0.00    +0.000 A 
ATOM      8  C   UNL     1      47.539   6.978  11.982  0.00  0.00    +0.000 A 
ATOM      9  C   UNL     1      46.406   6.435  11.502  0.00  0.00    +0.000 A 
ATOM     10  N   UNL     1      45.723   5.498  12.273  0.00  0.00    +0.000 N 
BRANCH   7  11
ATOM     11  N   UNL     1      49.259   7.101  13.681  0.00  0.00    +0.000 N 
ATOM     12  H   UNL     1      49.714   6.598  14.439  0.00  0.00    +0.000 HD
ATOM     13  H   UNL     1      49.249   8.106  13.829  0.00  0.00    +0.000 HD
ENDBRANCH   7  11
ENDBRANCH   1   2
BRANCH   1  17
ATOM     14  C   UNL     1      46.143   2.326   7.762  0.00  0.00    +0.000 A 
ATOM     15  C   UNL     1      46.109   3.724   7.695  0.00  0.00    +0.000 A 
ATOM     16  C   UNL     1      45.397   4.469   8.639  0.00  0.00    +0.000 A 
ATOM     17  C   UNL     1      44.688   3.830   9.665  0.00  0.00    +0.000 A 
ATOM     18  C   UNL     1      44.707   2.430   9.722  0.00  0.00    +0.000 A 
ATOM     19  C   UNL     1      45.431   1.686   8.785  0.00  0.00    +0.000 A 
BRANCH  14  20
ATOM     20  C   UNL     1      46.892   1.516   6.727  0.00  0.00    +0.000 C 
BRANCH  20  21
ATOM     21  C   UNL     1      48.250   2.123   6.348  0.00  0.00    +0.000 C 
BRANCH  21  22
ATOM     22  N   UNL     1      48.257   2.575   4.956  0.00  0.00    +0.000 NA
ATOM     23  H   UNL     1      47.818   3.494   4.900  0.00  0.00    +0.000 HD
ATOM     24  H   UNL     1      47.684   1.951   4.389  0.00  0.00    +0.000 HD
ENDBRANCH  21  22
ENDBRANCH  20  21
ENDBRANCH  14  20
ENDBRANCH   1  17
TORSDOF 6
ENDMDL
MODEL 2
REMARK VINA RESULT:    -7.520      1.101      1.195
REMARK INTER + INTRA:         -10.184
REMARK INTER:                  -9.731
REMARK INTRA:                  -0.453
REMARK UNBOUND:                -0.467
REMARK  Name = 
REMARK  6 active torsions:
REMARK  status: ('A' for Active; 'I' for Inactive)
REMARK    1  A    between atoms: N_1  and  C_2
REMARK    2  A    between atoms: C_2  and  C_3
REMARK    3  A    between atoms: C_3  and  C_4
REMARK    4  A    between atoms: C_7  and  C_8
REMARK    5  A    between atoms: C_8  and  C_9
REMARK    6  A    between atoms: C_14  and  N_15
REMARK                            x       y       z     vdW  Elec       q    Type
REMARK                         _______ _______ _______ _____ _____    ______ ____
ROOT
ATOM      1  C   UNL     1      44.375   4.004  11.625  0.00  0.00    +0.000 C 
ENDROOT
BRANCH   1   2
ATOM      2  C   UNL     1      45.440   4.222  12.645  0.00  0.00    +0.000 A 
ATOM      3  N   UNL     1      46.086   3.280  13.309  0.00  0.00    +0.000 NA
ATOM      4  N   UNL     1      47.111   3.866  14.014  0.00  0.00    +0.000 NA
ATOM      5  C   UNL     1      47.080   5.155  13.766  0.00  0.00    +0.000 A 
ATOM      6  C   UNL     1      47.931   6.229  14.151  0.00  0.00    +0.000 A 
ATOM      7  C   UNL     1      47.670   7.492  13.744  0.00  0.00    +0.000 A 
ATOM      8  C   UNL     1      46.481   7.757  12.931  0.00  0.00    +0.000 A 
ATOM      9  C   UNL     1      45.689   6.742  12.543  0.00  0.00    +0.000 A 
ATOM     10  N   UNL     1      46.003   5.445  12.944  0.00  0.00    +0.000 N 
BRANCH   7  11
ATOM     11  N   UNL     1      48.478   8.566  14.035  0.00  0.00    +0.000 N 
ATOM     12  H   UNL     1      48.771   9.103  13.222  0.00  0.00    +0.000 HD
ATOM     13  H   UNL     1      49.248   8.359  14.664  0.00  0.00    +0.000 HD
ENDBRANCH   7  11
ENDBRANCH   1   2
BRANCH   1  17
ATOM     14  C   UNL     1      45.889   3.176   7.645  0.00  0.00    +0.000 A 
ATOM     15  C   UNL     1      45.965   4.466   8.182  0.00  0.00    +0.000 A 
ATOM     16  C   UNL     1      45.479   4.737   9.464  0.00  0.00    +0.000 A 
ATOM     17  C   UNL     1      44.891   3.725  10.233  0.00  0.00    +0.000 A 
ATOM     18  C   UNL     1      44.797   2.438   9.688  0.00  0.00    +0.000 A 
ATOM     19  C   UNL     1      45.297   2.164   8.411  0.00  0.00    +0.000 A 
BRANCH  14  20
ATOM     20  C   UNL     1      46.391   2.885   6.247  0.00  0.00    +0.000 C 
BRANCH  20  21
ATOM     21  C   UNL     1      47.242   1.612   6.160  0.00  0.00    +0.000 C 
BRANCH  21  22
ATOM     22  N   UNL     1      48.627   1.924   5.803  0.00  0.00    +0.000 NA
ATOM     23  H   UNL     1      49.250   1.267   6.271  0.00  0.00    +0.000 HD
ATOM     24  H   UNL     1      48.872   2.849   6.155  0.00  0.00    +0.000 HD
ENDBRANCH  21  22
ENDBRANCH  20  21
ENDBRANCH  14  20
ENDBRANCH   1  17
TORSDOF 6
ENDMDL
MODEL 3
REMARK VINA RESULT:    -7.353      1.893      2.165
REMARK INTER + INTRA:          -9.969
REMARK INTER:                  -9.535
REMARK INTRA:                  -0.435
REMARK UNBOUND:                -0.467
REMARK  Name = 
REMARK  6 active torsions:
REMARK  status: ('A' for Active; 'I' for Inactive)
REMARK    1  A    between atoms: N_1  and  C_2
REMARK    2  A    between atoms: C_2  and  C_3
REMARK    3  A    between atoms: C_3  and  C_4
REMARK    4  A    between atoms: C_7  and  C_8
REMARK    5  A    between atoms: C_8  and  C_9
REMARK    6  A    between atoms: C_14  and  N_15
REMARK                            x       y       z     vdW  Elec       q    Type
REMARK                         _______ _______ _______ _____ _____    ______ ____
ROOT
ATOM      1  C   UNL     1      43.680   4.741  10.574  0.00  0.00    +0.000 C 
ENDROOT
BRANCH   1   2
ATOM      2  C   UNL     1      44.449   5.477  11.617  0.00  0.00    +0.000 A 
ATOM      3  N   UNL     1      45.217   4.937  12.545  0.00  0.00    +0.000 NA
ATOM      4  N   UNL     1      45.896   5.942  13.193  0.00  0.00    +0.000 NA
ATOM      5  C   UNL     1      45.536   7.082  12.648  0.00  0.00    +0.000 A 
ATOM      6  C   UNL     1      45.963   8.424  12.854  0.00  0.00    +0.000 A 
ATOM      7  C   UNL     1      45.421   9.435  12.138  0.00  0.00    +0.000 A 
ATOM      8  C   UNL     1      44.361   9.146  11.170  0.00  0.00    +0.000 A 
ATOM      9  C   UNL     1      43.973   7.877  10.953  0.00  0.00    +0.000 A 
ATOM     10  N   UNL     1      44.576   6.850  11.676  0.00  0.00    +0.000 N 
BRANCH   7  11
ATOM     11  N   UNL     1      45.824  10.745  12.249  0.00  0.00    +0.000 N 
ATOM     12  H   UNL     1      46.784  10.864  12.562  0.00  0.00    +0.000 HD
ATOM     13  H   UNL     1      45.174  11.348  12.746  0.00  0.00    +0.000 HD
ENDBRANCH   7  11
ENDBRANCH   1   2
BRANCH   1  17
ATOM     14  C   UNL     1      46.146   2.354   7.920  0.00  0.00    +0.000 A 
ATOM     15  C   UNL     1      46.172   3.753   7.853  0.00  0.00    +0.000 A 
ATOM     16  C   UNL     1      45.380   4.525   8.706  0.00  0.00    +0.000 A 
ATOM     17  C   UNL     1      44.530   3.915   9.638  0.00  0.00    +0.000 A 
ATOM     18  C   UNL     1      44.489   2.516   9.693  0.00  0.00    +0.000 A 
ATOM     19  C   UNL     1      45.293   1.744   8.848  0.00  0.00    +0.000 A 
BRANCH  14  20
ATOM     20  C   UNL     1      46.983   1.516   6.979  0.00  0.00    +0.000 C 
BRANCH  20  21
ATOM     21  C   UNL     1      48.270   2.217   6.523  0.00  0.00    +0.000 C 
BRANCH  21  22
ATOM     22  N   UNL     1      48.268   2.436   5.076  0.00  0.00    +0.000 NA
ATOM     23  H   UNL     1      48.234   1.534   4.601  0.00  0.00    +0.000 HD
ATOM     24  H   UNL     1      49.145   2.873   4.794  0.00  0.00    +0.000 HD
ENDBRANCH  21  22
ENDBRANCH  20  21
ENDBRANCH  14  20
ENDBRANCH   1  17
TORSDOF 6
ENDMDL
MODEL 4
REMARK VINA RESULT:    -6.686      1.710      2.305
REMARK INTER + INTRA:          -9.107
REMARK INTER:                  -8.621
REMARK INTRA:                  -0.486
REMARK UNBOUND:                -0.467
REMARK  Name = 
REMARK  6 active torsions:
REMARK  status: ('A' for Active; 'I' for Inactive)
REMARK    1  A    between atoms: N_1  and  C_2
REMARK    2  A    between atoms: C_2  and  C_3
REMARK    3  A    between atoms: C_3  and  C_4
REMARK    4  A    between atoms: C_7  and  C_8
REMARK    5  A    between atoms: C_8  and  C_9
REMARK    6  A    between atoms: C_14  and  N_15
REMARK                            x       y       z     vdW  Elec       q    Type
REMARK                         _______ _______ _______ _____ _____    ______ ____
ROOT
ATOM      1  C   UNL     1      44.624   4.884  12.099  0.00  0.00    +0.000 C 
ENDROOT
BRANCH   1   2
ATOM      2  C   UNL     1      45.768   5.472  12.853  0.00  0.00    +0.000 A 
ATOM      3  N   UNL     1      46.726   4.799  13.463  0.00  0.00    +0.000 NA
ATOM      4  N   UNL     1      47.688   5.688  13.881  0.00  0.00    +0.000 NA
ATOM      5  C   UNL     1      47.306   6.891  13.516  0.00  0.00    +0.000 A 
ATOM      6  C   UNL     1      47.929   8.167  13.608  0.00  0.00    +0.000 A 
ATOM      7  C   UNL     1      47.306   9.271  13.136  0.00  0.00    +0.000 A 
ATOM      8  C   UNL     1      45.965   9.152  12.560  0.00  0.00    +0.000 A 
ATOM      9  C   UNL     1      45.384   7.944  12.447  0.00  0.00    +0.000 A 
ATOM     10  N   UNL     1      46.064   6.818  12.905  0.00  0.00    +0.000 N 
BRANCH   7  11
ATOM     11  N   UNL     1      47.872  10.524  13.145  0.00  0.00    +0.000 N 
ATOM     12  H   UNL     1      47.808  11.007  14.037  0.00  0.00    +0.000 HD
ATOM     13  H   UNL     1      47.607  11.114  12.361  0.00  0.00    +0.000 HD
ENDBRANCH   7  11
ENDBRANCH   1   2
BRANCH   1  17
ATOM     14  C   UNL     1      45.625   3.388   8.151  0.00  0.00    +0.000 A 
ATOM     15  C   UNL     1      45.128   2.525   9.136  0.00  0.00    +0.000 A 
ATOM     16  C   UNL     1      44.804   3.003  10.409  0.00  0.00    +0.000 A 
ATOM     17  C   UNL     1      44.984   4.354  10.731  0.00  0.00    +0.000 A 
ATOM     18  C   UNL     1      45.499   5.214   9.752  0.00  0.00    +0.000 A 
ATOM     19  C   UNL     1      45.809   4.738   8.474  0.00  0.00    +0.000 A 
BRANCH  14  20
ATOM     20  C   UNL     1      46.000   2.868   6.781  0.00  0.00    +0.000 C 
BRANCH  20  21
ATOM     21  C   UNL     1      47.516   2.738   6.576  0.00  0.00    +0.000 C 
BRANCH  21  22
ATOM     22  N   UNL     1      47.972   1.375   6.851  0.00  0.00    +0.000 NA
ATOM     23  H   UNL     1      48.090   1.259   7.858  0.00  0.00    +0.000 HD
ATOM     24  H   UNL     1      48.894   1.232   6.439  0.00  0.00    +0.000 HD
ENDBRANCH  21  22
ENDBRANCH  20  21
ENDBRANCH  14  20
ENDBRANCH   1  17
TORSDOF 6
ENDMDL
MODEL 5
REMARK VINA RESULT:    -6.314      1.937      6.259
REMARK INTER + INTRA:          -8.626
REMARK INTER:                  -8.182
REMARK INTRA:                  -0.444
REMARK UNBOUND:                -0.467
REMARK  Name = 
REMARK  6 active torsions:
REMARK  status: ('A' for Active; 'I' for Inactive)
REMARK    1  A    between atoms: N_1  and  C_2
REMARK    2  A    between atoms: C_2  and  C_3
REMARK    3  A    between atoms: C_3  and  C_4
REMARK    4  A    between atoms: C_7  and  C_8
REMARK    5  A    between atoms: C_8  and  C_9
REMARK    6  A    between atoms: C_14  and  N_15
REMARK                            x       y       z     vdW  Elec       q    Type
REMARK                         _______ _______ _______ _____ _____    ______ ____
ROOT
ATOM      1  C   UNL     1      44.074   4.227   9.964  0.00  0.00    +0.000 C 
ENDROOT
BRANCH   1   2
ATOM      2  C   UNL     1      44.798   3.060   9.385  0.00  0.00    +0.000 A 
ATOM      3  N   UNL     1      44.547   1.787   9.632  0.00  0.00    +0.000 NA
ATOM      4  N   UNL     1      45.298   1.018   8.775  0.00  0.00    +0.000 NA
ATOM      5  C   UNL     1      45.994   1.832   8.014  0.00  0.00    +0.000 A 
ATOM      6  C   UNL     1      46.869   1.608   6.914  0.00  0.00    +0.000 A 
ATOM      7  C   UNL     1      47.466   2.648   6.288  0.00  0.00    +0.000 A 
ATOM      8  C   UNL     1      47.235   4.010   6.773  0.00  0.00    +0.000 A 
ATOM      9  C   UNL     1      46.388   4.228   7.794  0.00  0.00    +0.000 A 
ATOM     10  N   UNL     1      45.756   3.143   8.396  0.00  0.00    +0.000 N 
BRANCH   7  11
ATOM     11  N   UNL     1      48.279   2.507   5.188  0.00  0.00    +0.000 N 
ATOM     12  H   UNL     1      47.826   2.714   4.302  0.00  0.00    +0.000 HD
ATOM     13  H   UNL     1      48.810   1.641   5.162  0.00  0.00    +0.000 HD
ENDBRANCH   7  11
ENDBRANCH   1   2
BRANCH   1  17
ATOM     14  C   UNL     1      46.364   6.577  12.802  0.00  0.00    +0.000 A 
ATOM     15  C   UNL     1      46.192   7.019  11.485  0.00  0.00    +0.000 A 
ATOM     16  C   UNL     1      45.455   6.265  10.567  0.00  0.00    +0.000 A 
ATOM     17  C   UNL     1      44.884   5.042  10.943  0.00  0.00    +0.000 A 
ATOM     18  C   UNL     1      45.071   4.591  12.256  0.00  0.00    +0.000 A 
ATOM     19  C   UNL     1      45.797   5.353  13.178  0.00  0.00    +0.000 A 
BRANCH  14  20
ATOM     20  C   UNL     1      47.183   7.378  13.790  0.00  0.00    +0.000 C 
BRANCH  20  21
ATOM     21  C   UNL     1      48.493   6.688  14.193  0.00  0.00    +0.000 C 
BRANCH  21  22
ATOM     22  N   UNL     1      49.464   6.715  13.098  0.00  0.00    +0.000 NA
ATOM     23  H   UNL     1      50.014   7.571  13.158  0.00  0.00    +0.000 HD
ATOM     24  H   UNL     1      48.973   6.755  12.205  0.00  0.00    +0.000 HD
ENDBRANCH  21  22
ENDBRANCH  20  21
ENDBRANCH  14  20
ENDBRANCH   1  17
TORSDOF 6
ENDMDL
MODEL 6
REMARK VINA RESULT:    -6.267      3.141      4.645
REMARK INTER + INTRA:          -8.565
REMARK INTER:                  -8.656
REMARK INTRA:                   0.091
REMARK UNBOUND:                -0.467
REMARK  Name = 
REMARK  6 active torsions:
REMARK  status: ('A' for Active; 'I' for Inactive)
REMARK    1  A    between atoms: N_1  and  C_2
REMARK    2  A    between atoms: C_2  and  C_3
REMARK    3  A    between atoms: C_3  and  C_4
REMARK    4  A    between atoms: C_7  and  C_8
REMARK    5  A    between atoms: C_8  and  C_9
REMARK    6  A    between atoms: C_14  and  N_15
REMARK                            x       y       z     vdW  Elec       q    Type
REMARK                         _______ _______ _______ _____ _____    ______ ____
ROOT
ATOM      1  C   UNL     1      46.650   5.498  14.155  0.00  0.00    +0.000 C 
ENDROOT
BRANCH   1   2
ATOM      2  C   UNL     1      47.144   4.326  14.932  0.00  0.00    +0.000 A 
ATOM      3  N   UNL     1      47.533   3.168  14.431  0.00  0.00    +0.000 NA
ATOM      4  N   UNL     1      48.090   2.418  15.440  0.00  0.00    +0.000 NA
ATOM      5  C   UNL     1      48.037   3.131  16.542  0.00  0.00    +0.000 A 
ATOM      6  C   UNL     1      48.525   2.903  17.860  0.00  0.00    +0.000 A 
ATOM      7  C   UNL     1      48.338   3.825  18.831  0.00  0.00    +0.000 A 
ATOM      8  C   UNL     1      47.594   5.050  18.529  0.00  0.00    +0.000 A 
ATOM      9  C   UNL     1      47.154   5.281  17.279  0.00  0.00    +0.000 A 
ATOM     10  N   UNL     1      47.395   4.333  16.288  0.00  0.00    +0.000 N 
BRANCH   7  11
ATOM     11  N   UNL     1      48.828   3.693  20.109  0.00  0.00    +0.000 N 
ATOM     12  H   UNL     1      48.930   2.730  20.421  0.00  0.00    +0.000 HD
ATOM     13  H   UNL     1      48.374   4.282  20.800  0.00  0.00    +0.000 HD
ENDBRANCH   7  11
ENDBRANCH   1   2
BRANCH   1  17
ATOM     14  C   UNL     1      45.021   4.550  10.248  0.00  0.00    +0.000 A 
ATOM     15  C   UNL     1      44.811   3.693  11.335  0.00  0.00    +0.000 A 
ATOM     16  C   UNL     1      45.334   3.995  12.596  0.00  0.00    +0.000 A 
ATOM     17  C   UNL     1      46.093   5.155  12.794  0.00  0.00    +0.000 A 
ATOM     18  C   UNL     1      46.319   6.003  11.702  0.00  0.00    +0.000 A 
ATOM     19  C   UNL     1      45.783   5.708  10.444  0.00  0.00    +0.000 A 
BRANCH  14  20
ATOM     20  C   UNL     1      44.478   4.212   8.877  0.00  0.00    +0.000 C 
BRANCH  20  21
ATOM     21  C   UNL     1      45.423   3.330   8.050  0.00  0.00    +0.000 C 
BRANCH  21  22
ATOM     22  N   UNL     1      46.302   4.142   7.207  0.00  0.00    +0.000 NA
ATOM     23  H   UNL     1      46.036   4.019   6.230  0.00  0.00    +0.000 HD
ATOM     24  H   UNL     1      47.261   3.803   7.284  0.00  0.00    +0.000 HD
ENDBRANCH  21  22
ENDBRANCH  20  21
ENDBRANCH  14  20
ENDBRANCH   1  17
TORSDOF 6
ENDMDL
MODEL 7
REMARK VINA RESULT:    -6.243      2.310      6.884
REMARK INTER + INTRA:          -8.535
REMARK INTER:                  -8.054
REMARK INTRA:                  -0.481
REMARK UNBOUND:                -0.467
REMARK  Name = 
REMARK  6 active torsions:
REMARK  status: ('A' for Active; 'I' for Inactive)
REMARK    1  A    between atoms: N_1  and  C_2
REMARK    2  A    between atoms: C_2  and  C_3
REMARK    3  A    between atoms: C_3  and  C_4
REMARK    4  A    between atoms: C_7  and  C_8
REMARK    5  A    between atoms: C_8  and  C_9
REMARK    6  A    between atoms: C_14  and  N_15
REMARK                            x       y       z     vdW  Elec       q    Type
REMARK                         _______ _______ _______ _____ _____    ______ ____
ROOT
ATOM      1  C   UNL     1      44.622   5.103  10.410  0.00  0.00    +0.000 C 
ENDROOT
BRANCH   1   2
ATOM      2  C   UNL     1      45.383   4.619   9.223  0.00  0.00    +0.000 A 
ATOM      3  N   UNL     1      46.155   5.352   8.442  0.00  0.00    +0.000 NA
ATOM      4  N   UNL     1      46.823   4.517   7.578  0.00  0.00    +0.000 NA
ATOM      5  C   UNL     1      46.453   3.285   7.847  0.00  0.00    +0.000 A 
ATOM      6  C   UNL     1      46.868   2.023   7.336  0.00  0.00    +0.000 A 
ATOM      7  C   UNL     1      46.317   0.879   7.802  0.00  0.00    +0.000 A 
ATOM      8  C   UNL     1      45.260   0.947   8.814  0.00  0.00    +0.000 A 
ATOM      9  C   UNL     1      44.885   2.136   9.318  0.00  0.00    +0.000 A 
ATOM     10  N   UNL     1      45.496   3.296   8.849  0.00  0.00    +0.000 N 
BRANCH   7  11
ATOM     11  N   UNL     1      46.707  -0.374   7.391  0.00  0.00    +0.000 N 
ATOM     12  H   UNL     1      46.403  -1.128   8.001  0.00  0.00    +0.000 HD
ATOM     13  H   UNL     1      47.687  -0.449   7.133  0.00  0.00    +0.000 HD
ENDBRANCH   7  11
ENDBRANCH   1   2
BRANCH   1  17
ATOM     14  C   UNL     1      46.842   5.100  14.137  0.00  0.00    +0.000 A 
ATOM     15  C   UNL     1      46.885   6.209  13.282  0.00  0.00    +0.000 A 
ATOM     16  C   UNL     1      46.171   6.213  12.080  0.00  0.00    +0.000 A 
ATOM     17  C   UNL     1      45.408   5.102  11.699  0.00  0.00    +0.000 A 
ATOM     18  C   UNL     1      45.380   3.986  12.545  0.00  0.00    +0.000 A 
ATOM     19  C   UNL     1      46.083   3.987  13.754  0.00  0.00    +0.000 A 
BRANCH  14  20
ATOM     20  C   UNL     1      47.634   5.082  15.425  0.00  0.00    +0.000 C 
BRANCH  20  21
ATOM     21  C   UNL     1      47.217   3.954  16.379  0.00  0.00    +0.000 C 
BRANCH  21  22
ATOM     22  N   UNL     1      46.849   4.482  17.693  0.00  0.00    +0.000 NA
ATOM     23  H   UNL     1      47.688   4.569  18.266  0.00  0.00    +0.000 HD
ATOM     24  H   UNL     1      46.245   3.816  18.174  0.00  0.00    +0.000 HD
ENDBRANCH  21  22
ENDBRANCH  20  21
ENDBRANCH  14  20
ENDBRANCH   1  17
TORSDOF 6
ENDMDL
MODEL 8
REMARK VINA RESULT:    -6.160      1.790      6.047
REMARK INTER + INTRA:          -8.427
REMARK INTER:                  -8.032
REMARK INTRA:                  -0.395
REMARK UNBOUND:                -0.467
REMARK  Name = 
REMARK  6 active torsions:
REMARK  status: ('A' for Active; 'I' for Inactive)
REMARK    1  A    between atoms: N_1  and  C_2
REMARK    2  A    between atoms: C_2  and  C_3
REMARK    3  A    between atoms: C_3  and  C_4
REMARK    4  A    between atoms: C_7  and  C_8
REMARK    5  A    between atoms: C_8  and  C_9
REMARK    6  A    between atoms: C_14  and  N_15
REMARK                            x       y       z     vdW  Elec       q    Type
REMARK                         _______ _______ _______ _____ _____    ______ ____
ROOT
ATOM      1  C   UNL     1      43.989   5.773  12.465  0.00  0.00    +0.000 C 
ENDROOT
BRANCH   1   2
ATOM      2  C   UNL     1      44.017   4.513  11.669  0.00  0.00    +0.000 A 
ATOM      3  N   UNL     1      43.319   3.420  11.917  0.00  0.00    +0.000 NA
ATOM      4  N   UNL     1      43.475   2.551  10.862  0.00  0.00    +0.000 NA
ATOM      5  C   UNL     1      44.262   3.128   9.983  0.00  0.00    +0.000 A 
ATOM      6  C   UNL     1      44.703   2.741   8.686  0.00  0.00    +0.000 A 
ATOM      7  C   UNL     1      45.526   3.542   7.973  0.00  0.00    +0.000 A 
ATOM      8  C   UNL     1      45.995   4.800   8.559  0.00  0.00    +0.000 A 
ATOM      9  C   UNL     1      45.561   5.182   9.773  0.00  0.00    +0.000 A 
ATOM     10  N   UNL     1      44.681   4.356  10.470  0.00  0.00    +0.000 N 
BRANCH   7  11
ATOM     11  N   UNL     1      45.947   3.255   6.696  0.00  0.00    +0.000 N 
ATOM     12  H   UNL     1      45.403   2.534   6.227  0.00  0.00    +0.000 HD
ATOM     13  H   UNL     1      46.948   3.111   6.601  0.00  0.00    +0.000 HD
ENDBRANCH   7  11
ENDBRANCH   1   2
BRANCH   1  17
ATOM     14  C   UNL     1      47.871   7.128  13.847  0.00  0.00    +0.000 A 
ATOM     15  C   UNL     1      46.973   8.024  13.254  0.00  0.00    +0.000 A 
ATOM     16  C   UNL     1      45.721   7.591  12.808  0.00  0.00    +0.000 A 
ATOM     17  C   UNL     1      45.344   6.248  12.931  0.00  0.00    +0.000 A 
ATOM     18  C   UNL     1      46.250   5.348  13.507  0.00  0.00    +0.000 A 
ATOM     19  C   UNL     1      47.497   5.784  13.966  0.00  0.00    +0.000 A 
BRANCH  14  20
ATOM     20  C   UNL     1      49.237   7.588  14.307  0.00  0.00    +0.000 C 
BRANCH  20  21
ATOM     21  C   UNL     1      50.079   8.208  13.184  0.00  0.00    +0.000 C 
BRANCH  21  22
ATOM     22  N   UNL     1      50.329   7.241  12.115  0.00  0.00    +0.000 NA
ATOM     23  H   UNL     1      49.646   6.487  12.178  0.00  0.00    +0.000 HD
ATOM     24  H   UNL     1      51.243   6.808  12.250  0.00  0.00    +0.000 HD
ENDBRANCH  21  22
ENDBRANCH  20  21
ENDBRANCH  14  20
ENDBRANCH   1  17
TORSDOF 6
ENDMDL
MODEL 9
REMARK VINA RESULT:    -5.647      2.161      3.170
REMARK INTER + INTRA:          -7.764
REMARK INTER:                  -7.401
REMARK INTRA:                  -0.363
REMARK UNBOUND:                -0.467
REMARK  Name = 
REMARK  6 active torsions:
REMARK  status: ('A' for Active; 'I' for Inactive)
REMARK    1  A    between atoms: N_1  and  C_2
REMARK    2  A    between atoms: C_2  and  C_3
REMARK    3  A    between atoms: C_3  and  C_4
REMARK    4  A    between atoms: C_7  and  C_8
REMARK    5  A    between atoms: C_8  and  C_9
REMARK    6  A    between atoms: C_14  and  N_15
REMARK                            x       y       z     vdW  Elec       q    Type
REMARK                         _______ _______ _______ _____ _____    ______ ____
ROOT
ATOM      1  C   UNL     1      44.751   6.270  12.781  0.00  0.00    +0.000 C 
ENDROOT
BRANCH   1   2
ATOM      2  C   UNL     1      45.540   7.488  12.438  0.00  0.00    +0.000 A 
ATOM      3  N   UNL     1      45.047   8.673  12.128  0.00  0.00    +0.000 NA
ATOM      4  N   UNL     1      46.083   9.574  12.060  0.00  0.00    +0.000 NA
ATOM      5  C   UNL     1      47.193   8.928  12.334  0.00  0.00    +0.000 A 
ATOM      6  C   UNL     1      48.542   9.356  12.484  0.00  0.00    +0.000 A 
ATOM      7  C   UNL     1      49.516   8.465  12.781  0.00  0.00    +0.000 A 
ATOM      8  C   UNL     1      49.179   7.045  12.911  0.00  0.00    +0.000 A 
ATOM      9  C   UNL     1      47.902   6.641  12.796  0.00  0.00    +0.000 A 
ATOM     10  N   UNL     1      46.913   7.585  12.529  0.00  0.00    +0.000 N 
BRANCH   7  11
ATOM     11  N   UNL     1      50.828   8.816  12.993  0.00  0.00    +0.000 N 
ATOM     12  H   UNL     1      51.450   8.031  13.165  0.00  0.00    +0.000 HD
ATOM     13  H   UNL     1      50.963   9.574  13.656  0.00  0.00    +0.000 HD
ENDBRANCH   7  11
ENDBRANCH   1   2
BRANCH   1  17
ATOM     14  C   UNL     1      44.833   3.160   9.758  0.00  0.00    +0.000 A 
ATOM     15  C   UNL     1      45.240   4.464   9.451  0.00  0.00    +0.000 A 
ATOM     16  C   UNL     1      45.215   5.469  10.422  0.00  0.00    +0.000 A 
ATOM     17  C   UNL     1      44.768   5.196  11.721  0.00  0.00    +0.000 A 
ATOM     18  C   UNL     1      44.344   3.895  12.024  0.00  0.00    +0.000 A 
ATOM     19  C   UNL     1      44.382   2.887  11.055  0.00  0.00    +0.000 A 
BRANCH  14  20
ATOM     20  C   UNL     1      44.834   2.077   8.702  0.00  0.00    +0.000 C 
BRANCH  20  21
ATOM     21  C   UNL     1      46.219   1.824   8.093  0.00  0.00    +0.000 C 
BRANCH  21  22
ATOM     22  N   UNL     1      46.491   0.391   7.974  0.00  0.00    +0.000 NA
ATOM     23  H   UNL     1      46.330   0.099   7.010  0.00  0.00    +0.000 HD
ATOM     24  H   UNL     1      45.828  -0.133   8.544  0.00  0.00    +0.000 HD
ENDBRANCH  21  22
ENDBRANCH  20  21
ENDBRANCH  14  20
ENDBRANCH   1  17
TORSDOF 6
ENDMDL
