MODEL 1
REMARK VINA RESULT:    -8.560      0.000      0.000
REMARK INTER + INTRA:         -13.022
REMARK INTER:                 -12.063
REMARK INTRA:                  -0.959
REMARK UNBOUND:                -0.959
REMARK  Name = 
REMARK  7 active torsions:
REMARK  status: ('A' for Active; 'I' for Inactive)
REMARK    1  A    between atoms: C_2  and  C_3
REMARK    2  A    between atoms: C_6  and  C_7
REMARK    3  A    between atoms: N_9  and  C_10
REMARK    4  A    between atoms: C_10  and  C_11
REMARK    5  A    between atoms: C_14  and  C_15
REMARK    6  A    between atoms: C_15  and  N_16
REMARK    7  A    between atoms: C_17  and  C_19
REMARK                            x       y       z     vdW  Elec       q    Type
REMARK                         _______ _______ _______ _____ _____    ______ ____
ROOT
ATOM      1  C   UNL     1      46.235   4.386  13.640  0.00  0.00    +0.000 A 
ATOM      2  C   UNL     1      46.784   5.511  13.024  0.00  0.00    +0.000 A 
ATOM      3  C   UNL     1      47.705   6.294  13.723  0.00  0.00    +0.000 A 
ATOM      4  C   UNL     1      48.072   5.940  15.026  0.00  0.00    +0.000 A 
ATOM      5  C   UNL     1      47.464   4.807  15.557  0.00  0.00    +0.000 A 
ATOM      6  N   UNL     1      46.574   4.020  14.901  0.00  0.00    +0.000 NA
ENDROOT
BRANCH   1   7
ATOM      7  C   UNL     1      45.255   3.509  12.885  0.00  0.00    +0.000 C 
BRANCH   7  10
ATOM      8  C   UNL     1      44.385   3.263  10.602  0.00  0.00    +0.000 C 
ATOM      9  O   UNL     1      43.307   2.856  11.019  0.00  0.00    +0.000 OA
ATOM     10  N   UNL     1      45.426   3.593  11.444  0.00  0.00    +0.000 N 
ATOM     11  H   UNL     1      46.186   4.171  11.110  0.00  0.00    +0.000 HD
BRANCH   8  15
ATOM     12  C   UNL     1      46.062   2.921   7.222  0.00  0.00    +0.000 C 
ATOM     13  C   UNL     1      46.376   4.368   7.608  0.00  0.00    +0.000 C 
ATOM     14  C   UNL     1      45.498   4.704   8.818  0.00  0.00    +0.000 C 
ATOM     15  C   UNL     1      44.666   3.457   9.115  0.00  0.00    +0.000 C 
ATOM     16  C   UNL     1      45.481   2.314   8.498  0.00  0.00    +0.000 C 
BRANCH  12  18
ATOM     17  N   UNL     1      48.359   1.562   6.442  0.00  0.00    +0.000 NA
ATOM     18  C   UNL     1      47.317   2.178   6.795  0.00  0.00    +0.000 C 
ENDBRANCH  12  18
ENDBRANCH   8  15
ENDBRANCH   7  10
ENDBRANCH   1   7
BRANCH   4  19
ATOM     19  C   UNL     1      49.072   6.718  15.842  0.00  0.00    +0.000 C 
BRANCH  19  20
ATOM     20  N   UNL     1      50.116   5.884  16.388  0.00  0.00    +0.000 N 
ATOM     21  C   UNL     1      50.160   5.559  17.719  0.00  0.00    +0.000 C 
ATOM     22  O   UNL     1      49.318   5.935  18.530  0.00  0.00    +0.000 OA
ATOM     23  H   UNL     1      50.991   5.874  15.877  0.00  0.00    +0.000 HD
BRANCH  21  24
ATOM     24  C   UNL     1      51.271   4.673  18.115  0.00  0.00    +0.000 A 
ATOM     25  C   UNL     1      52.350   5.172  18.830  0.00  0.00    +0.000 A 
ATOM     26  S   UNL     1      53.504   3.984  19.240  0.00  0.00    +0.000 S 
ATOM     27  C   UNL     1      52.628   2.769  18.431  0.00  0.00    +0.000 A 
ATOM     28  N   UNL     1      53.089   1.490  18.366  0.00  0.00    +0.000 NA
ATOM     29  C   UNL     1      52.339   0.686  17.687  0.00  0.00    +0.000 A 
ATOM     30  N   UNL     1      51.163   1.039  17.079  0.00  0.00    +0.000 N 
ATOM     31  C   UNL     1      50.629   2.306  17.168  0.00  0.00    +0.000 A 
ATOM     32  O   UNL     1      49.536   2.567  16.688  0.00  0.00    +0.000 OA
ATOM     33  C   UNL     1      51.454   3.257  17.884  0.00  0.00    +0.000 A 
ATOM     34  H   UNL     1      50.609   0.356  16.583  0.00  0.00    +0.000 HD
ENDBRANCH  21  24
ENDBRANCH  19  20
ENDBRANCH   4  19
TORSDOF 7
ENDMDL
MODEL 2
REMARK VINA RESULT:    -7.318      3.861      5.070
REMARK INTER + INTRA:         -11.272
REMARK INTER:                 -10.119
REMARK INTRA:                  -1.154
REMARK UNBOUND:                -0.959
REMARK  Name = 
REMARK  7 active torsions:
REMARK  status: ('A' for Active; 'I' for Inactive)
REMARK    1  A    between atoms: C_2  and  C_3
REMARK    2  A    between atoms: C_6  and  C_7
REMARK    3  A    between atoms: N_9  and  C_10
REMARK    4  A    between atoms: C_10  and  C_11
REMARK    5  A    between atoms: C_14  and  C_15
REMARK    6  A    between atoms: C_15  and  N_16
REMARK    7  A    between atoms: C_17  and  C_19
REMARK                            x       y       z     vdW  Elec       q    Type
REMARK                         _______ _______ _______ _____ _____    ______ ____
ROOT
ATOM      1  C   UNL     1      46.193   4.785  13.606  0.00  0.00    +0.000 A 
ATOM      2  C   UNL     1      46.603   5.950  12.956  0.00  0.00    +0.000 A 
ATOM      3  C   UNL     1      47.608   6.734  13.526  0.00  0.00    +0.000 A 
ATOM      4  C   UNL     1      48.197   6.343  14.733  0.00  0.00    +0.000 A 
ATOM      5  C   UNL     1      47.715   5.172  15.308  0.00  0.00    +0.000 A 
ATOM      6  N   UNL     1      46.748   4.382  14.776  0.00  0.00    +0.000 NA
ENDROOT
BRANCH   1   7
ATOM      7  C   UNL     1      45.123   3.907  12.988  0.00  0.00    +0.000 C 
BRANCH   7  10
ATOM      8  C   UNL     1      44.295   3.133  10.808  0.00  0.00    +0.000 C 
ATOM      9  O   UNL     1      43.344   2.564  11.332  0.00  0.00    +0.000 OA
ATOM     10  N   UNL     1      45.248   3.809  11.542  0.00  0.00    +0.000 N 
ATOM     11  H   UNL     1      45.851   4.483  11.092  0.00  0.00    +0.000 HD
BRANCH   8  15
ATOM     12  C   UNL     1      45.897   2.555   7.424  0.00  0.00    +0.000 C 
ATOM     13  C   UNL     1      46.025   4.069   7.602  0.00  0.00    +0.000 C 
ATOM     14  C   UNL     1      45.148   4.450   8.800  0.00  0.00    +0.000 C 
ATOM     15  C   UNL     1      44.501   3.158   9.297  0.00  0.00    +0.000 C 
ATOM     16  C   UNL     1      45.442   2.057   8.795  0.00  0.00    +0.000 C 
BRANCH  12  18
ATOM     17  N   UNL     1      48.330   1.411   6.717  0.00  0.00    +0.000 NA
ATOM     18  C   UNL     1      47.227   1.930   7.038  0.00  0.00    +0.000 C 
ENDBRANCH  12  18
ENDBRANCH   8  15
ENDBRANCH   7  10
ENDBRANCH   1   7
BRANCH   4  19
ATOM     19  C   UNL     1      49.299   7.120  15.403  0.00  0.00    +0.000 C 
BRANCH  19  20
ATOM     20  N   UNL     1      50.430   7.346  14.535  0.00  0.00    +0.000 N 
ATOM     21  C   UNL     1      50.888   8.608  14.257  0.00  0.00    +0.000 C 
ATOM     22  O   UNL     1      50.388   9.624  14.734  0.00  0.00    +0.000 OA
ATOM     23  H   UNL     1      50.618   6.621  13.851  0.00  0.00    +0.000 HD
BRANCH  21  24
ATOM     24  C   UNL     1      52.071   8.669  13.378  0.00  0.00    +0.000 A 
ATOM     25  C   UNL     1      53.277   9.163  13.854  0.00  0.00    +0.000 A 
ATOM     26  S   UNL     1      54.538   9.101  12.706  0.00  0.00    +0.000 S 
ATOM     27  C   UNL     1      53.503   8.461  11.515  0.00  0.00    +0.000 A 
ATOM     28  N   UNL     1      53.951   8.199  10.257  0.00  0.00    +0.000 NA
ATOM     29  C   UNL     1      53.045   7.752   9.451  0.00  0.00    +0.000 A 
ATOM     30  N   UNL     1      51.737   7.530   9.790  0.00  0.00    +0.000 N 
ATOM     31  C   UNL     1      51.254   7.725  11.064  0.00  0.00    +0.000 A 
ATOM     32  O   UNL     1      50.103   7.435  11.357  0.00  0.00    +0.000 OA
ATOM     33  C   UNL     1      52.221   8.265  11.997  0.00  0.00    +0.000 A 
ATOM     34  H   UNL     1      51.083   7.156   9.118  0.00  0.00    +0.000 HD
ENDBRANCH  21  24
ENDBRANCH  19  20
ENDBRANCH   4  19
TORSDOF 7
ENDMDL
MODEL 3
REMARK VINA RESULT:    -7.200      2.782      3.034
REMARK INTER + INTRA:         -11.106
REMARK INTER:                  -9.998
REMARK INTRA:                  -1.107
REMARK UNBOUND:                -0.959
REMARK  Name = 
REMARK  7 active torsions:
REMARK  status: ('A' for Active; 'I' for Inactive)
REMARK    1  A    between atoms: C_2  and  C_3
REMARK    2  A    between atoms: C_6  and  C_7
REMARK    3  A    between atoms: N_9  and  C_10
REMARK    4  A    between atoms: C_10  and  C_11
REMARK    5  A    between atoms: C_14  and  C_15
REMARK    6  A    between atoms: C_15  and  N_16
REMARK    7  A    between atoms: C_17  and  C_19
REMARK                            x       y       z     vdW  Elec       q    Type
REMARK                         _______ _______ _______ _____ _____    ______ ____
ROOT
ATOM      1  C   UNL     1      45.493   6.102  12.881  0.00  0.00    +0.000 A 
ATOM      2  C   UNL     1      45.733   7.476  12.852  0.00  0.00    +0.000 A 
ATOM      3  C   UNL     1      46.972   7.964  13.274  0.00  0.00    +0.000 A 
ATOM      4  C   UNL     1      47.958   7.074  13.714  0.00  0.00    +0.000 A 
ATOM      5  C   UNL     1      47.620   5.725  13.715  0.00  0.00    +0.000 A 
ATOM      6  N   UNL     1      46.431   5.218  13.302  0.00  0.00    +0.000 NA
ENDROOT
BRANCH   1   7
ATOM      7  C   UNL     1      44.164   5.554  12.400  0.00  0.00    +0.000 C 
BRANCH   7  10
ATOM      8  C   UNL     1      44.327   3.574  10.955  0.00  0.00    +0.000 C 
ATOM      9  O   UNL     1      44.356   2.825  11.925  0.00  0.00    +0.000 OA
ATOM     10  N   UNL     1      44.255   4.945  11.082  0.00  0.00    +0.000 N 
ATOM     11  H   UNL     1      43.961   5.513  10.299  0.00  0.00    +0.000 HD
BRANCH   8  15
ATOM     12  C   UNL     1      45.645   2.104   7.721  0.00  0.00    +0.000 C 
ATOM     13  C   UNL     1      45.350   3.555   7.335  0.00  0.00    +0.000 C 
ATOM     14  C   UNL     1      44.537   4.163   8.484  0.00  0.00    +0.000 C 
ATOM     15  C   UNL     1      44.349   3.056   9.520  0.00  0.00    +0.000 C 
ATOM     16  C   UNL     1      45.507   2.090   9.243  0.00  0.00    +0.000 C 
BRANCH  12  18
ATOM     17  N   UNL     1      48.212   1.357   6.958  0.00  0.00    +0.000 NA
ATOM     18  C   UNL     1      47.047   1.696   7.304  0.00  0.00    +0.000 C 
ENDBRANCH  12  18
ENDBRANCH   8  15
ENDBRANCH   7  10
ENDBRANCH   1   7
BRANCH   4  19
ATOM     19  C   UNL     1      49.325   7.515  14.167  0.00  0.00    +0.000 C 
BRANCH  19  20
ATOM     20  N   UNL     1      49.561   7.250  15.567  0.00  0.00    +0.000 N 
ATOM     21  C   UNL     1      49.024   8.037  16.553  0.00  0.00    +0.000 C 
ATOM     22  O   UNL     1      48.300   9.002  16.322  0.00  0.00    +0.000 OA
ATOM     23  H   UNL     1      50.411   6.743  15.786  0.00  0.00    +0.000 HD
BRANCH  21  24
ATOM     24  C   UNL     1      49.334   7.616  17.932  0.00  0.00    +0.000 A 
ATOM     25  C   UNL     1      50.053   8.448  18.778  0.00  0.00    +0.000 A 
ATOM     26  S   UNL     1      50.261   7.809  20.346  0.00  0.00    +0.000 S 
ATOM     27  C   UNL     1      49.442   6.375  19.935  0.00  0.00    +0.000 A 
ATOM     28  N   UNL     1      49.292   5.364  20.835  0.00  0.00    +0.000 NA
ATOM     29  C   UNL     1      48.683   4.323  20.371  0.00  0.00    +0.000 A 
ATOM     30  N   UNL     1      48.198   4.204  19.096  0.00  0.00    +0.000 N 
ATOM     31  C   UNL     1      48.275   5.222  18.171  0.00  0.00    +0.000 A 
ATOM     32  O   UNL     1      47.755   5.117  17.070  0.00  0.00    +0.000 OA
ATOM     33  C   UNL     1      48.986   6.397  18.629  0.00  0.00    +0.000 A 
ATOM     34  H   UNL     1      47.708   3.372  18.802  0.00  0.00    +0.000 HD
ENDBRANCH  21  24
ENDBRANCH  19  20
ENDBRANCH   4  19
TORSDOF 7
ENDMDL
MODEL 4
REMARK VINA RESULT:    -7.004      1.883      2.250
REMARK INTER + INTRA:         -10.829
REMARK INTER:                  -9.915
REMARK INTRA:                  -0.915
REMARK UNBOUND:                -0.959
REMARK  Name = 
REMARK  7 active torsions:
REMARK  status: ('A' for Active; 'I' for Inactive)
REMARK    1  A    between atoms: C_2  and  C_3
REMARK    2  A    between atoms: C_6  and  C_7
REMARK    3  A    between atoms: N_9  and  C_10
REMARK    4  A    between atoms: C_10  and  C_11
REMARK    5  A    between atoms: C_14  and  C_15
REMARK    6  A    between atoms: C_15  and  N_16
REMARK    7  A    between atoms: C_17  and  C_19
REMARK                            x       y       z     vdW  Elec       q    Type
REMARK                         _______ _______ _______ _____ _____    ______ ____
ROOT
ATOM      1  C   UNL     1      45.549   6.296  12.900  0.00  0.00    +0.000 A 
ATOM      2  C   UNL     1      46.699   5.586  13.247  0.00  0.00    +0.000 A 
ATOM      3  C   UNL     1      47.853   6.285  13.608  0.00  0.00    +0.000 A 
ATOM      4  C   UNL     1      47.843   7.684  13.624  0.00  0.00    +0.000 A 
ATOM      5  C   UNL     1      46.653   8.301  13.254  0.00  0.00    +0.000 A 
ATOM      6  N   UNL     1      45.512   7.652  12.908  0.00  0.00    +0.000 NA
ENDROOT
BRANCH   1   7
ATOM      7  C   UNL     1      44.280   5.553  12.533  0.00  0.00    +0.000 C 
BRANCH   7  10
ATOM      8  C   UNL     1      44.412   3.606  11.041  0.00  0.00    +0.000 C 
ATOM      9  O   UNL     1      44.473   2.836  11.992  0.00  0.00    +0.000 OA
ATOM     10  N   UNL     1      44.336   4.974  11.200  0.00  0.00    +0.000 N 
ATOM     11  H   UNL     1      44.017   5.557  10.439  0.00  0.00    +0.000 HD
BRANCH   8  15
ATOM     12  C   UNL     1      45.629   2.152   7.761  0.00  0.00    +0.000 C 
ATOM     13  C   UNL     1      45.395   3.623   7.410  0.00  0.00    +0.000 C 
ATOM     14  C   UNL     1      44.622   4.240   8.581  0.00  0.00    +0.000 C 
ATOM     15  C   UNL     1      44.397   3.120   9.595  0.00  0.00    +0.000 C 
ATOM     16  C   UNL     1      45.507   2.110   9.283  0.00  0.00    +0.000 C 
BRANCH  12  18
ATOM     17  N   UNL     1      48.152   1.311   6.951  0.00  0.00    +0.000 NA
ATOM     18  C   UNL     1      47.008   1.692   7.319  0.00  0.00    +0.000 C 
ENDBRANCH  12  18
ENDBRANCH   8  15
ENDBRANCH   7  10
ENDBRANCH   1   7
BRANCH   4  19
ATOM     19  C   UNL     1      49.037   8.513  14.019  0.00  0.00    +0.000 C 
BRANCH  19  20
ATOM     20  N   UNL     1      50.094   7.724  14.605  0.00  0.00    +0.000 N 
ATOM     21  C   UNL     1      50.174   7.510  15.956  0.00  0.00    +0.000 C 
ATOM     22  O   UNL     1      49.353   7.954  16.755  0.00  0.00    +0.000 OA
ATOM     23  H   UNL     1      50.956   7.670  14.073  0.00  0.00    +0.000 HD
BRANCH  21  24
ATOM     24  C   UNL     1      51.295   6.657  16.394  0.00  0.00    +0.000 A 
ATOM     25  C   UNL     1      52.607   7.062  16.196  0.00  0.00    +0.000 A 
ATOM     26  S   UNL     1      53.758   5.967  16.819  0.00  0.00    +0.000 S 
ATOM     27  C   UNL     1      52.544   4.888  17.328  0.00  0.00    +0.000 A 
ATOM     28  N   UNL     1      52.856   3.704  17.922  0.00  0.00    +0.000 NA
ATOM     29  C   UNL     1      51.835   2.971  18.221  0.00  0.00    +0.000 A 
ATOM     30  N   UNL     1      50.530   3.318  17.992  0.00  0.00    +0.000 N 
ATOM     31  C   UNL     1      50.165   4.529  17.448  0.00  0.00    +0.000 A 
ATOM     32  O   UNL     1      48.989   4.846  17.337  0.00  0.00    +0.000 OA
ATOM     33  C   UNL     1      51.277   5.371  17.057  0.00  0.00    +0.000 A 
ATOM     34  H   UNL     1      49.774   2.710  18.272  0.00  0.00    +0.000 HD
ENDBRANCH  21  24
ENDBRANCH  19  20
ENDBRANCH   4  19
TORSDOF 7
ENDMDL
MODEL 5
REMARK VINA RESULT:    -6.993      3.215      9.492
REMARK INTER + INTRA:         -10.815
REMARK INTER:                  -9.850
REMARK INTRA:                  -0.964
REMARK UNBOUND:                -0.959
REMARK  Name = 
REMARK  7 active torsions:
REMARK  status: ('A' for Active; 'I' for Inactive)
REMARK    1  A    between atoms: C_2  and  C_3
REMARK    2  A    between atoms: C_6  and  C_7
REMARK    3  A    between atoms: N_9  and  C_10
REMARK    4  A    between atoms: C_10  and  C_11
REMARK    5  A    between atoms: C_14  and  C_15
REMARK    6  A    between atoms: C_15  and  N_16
REMARK    7  A    between atoms: C_17  and  C_19
REMARK                            x       y       z     vdW  Elec       q    Type
REMARK                         _______ _______ _______ _____ _____    ______ ____
ROOT
ATOM      1  C   UNL     1      50.030   7.252  15.543  0.00  0.00    +0.000 A 
ATOM      2  C   UNL     1      50.375   8.216  14.596  0.00  0.00    +0.000 A 
ATOM      3  C   UNL     1      49.604   8.347  13.439  0.00  0.00    +0.000 A 
ATOM      4  C   UNL     1      48.493   7.518  13.246  0.00  0.00    +0.000 A 
ATOM      5  C   UNL     1      48.236   6.582  14.242  0.00  0.00    +0.000 A 
ATOM      6  N   UNL     1      48.959   6.436  15.381  0.00  0.00    +0.000 NA
ENDROOT
BRANCH   1   7
ATOM      7  C   UNL     1      50.840   7.116  16.817  0.00  0.00    +0.000 C 
BRANCH   7  10
ATOM      8  C   UNL     1      52.060   5.055  17.362  0.00  0.00    +0.000 C 
ATOM      9  O   UNL     1      53.115   5.530  16.957  0.00  0.00    +0.000 OA
ATOM     10  N   UNL     1      50.871   5.750  17.317  0.00  0.00    +0.000 N 
ATOM     11  H   UNL     1      50.091   5.460  17.891  0.00  0.00    +0.000 HD
BRANCH   8  15
ATOM     12  C   UNL     1      52.759   1.377  17.947  0.00  0.00    +0.000 C 
ATOM     13  C   UNL     1      51.341   1.363  17.372  0.00  0.00    +0.000 C 
ATOM     14  C   UNL     1      50.847   2.813  17.376  0.00  0.00    +0.000 C 
ATOM     15  C   UNL     1      51.973   3.658  17.970  0.00  0.00    +0.000 C 
ATOM     16  C   UNL     1      53.231   2.815  17.733  0.00  0.00    +0.000 C 
BRANCH  12  18
ATOM     17  N   UNL     1      54.411  -0.412  16.606  0.00  0.00    +0.000 NA
ATOM     18  C   UNL     1      53.662   0.399  17.214  0.00  0.00    +0.000 C 
ENDBRANCH  12  18
ENDBRANCH   8  15
ENDBRANCH   7  10
ENDBRANCH   1   7
BRANCH   4  19
ATOM     19  C   UNL     1      47.598   7.606  12.037  0.00  0.00    +0.000 C 
BRANCH  19  20
ATOM     20  N   UNL     1      46.856   6.391  11.803  0.00  0.00    +0.000 N 
ATOM     21  C   UNL     1      45.486   6.376  11.759  0.00  0.00    +0.000 C 
ATOM     22  O   UNL     1      44.799   7.385  11.897  0.00  0.00    +0.000 OA
ATOM     23  H   UNL     1      47.323   5.527  12.059  0.00  0.00    +0.000 HD
BRANCH  21  24
ATOM     24  C   UNL     1      44.879   5.061  11.478  0.00  0.00    +0.000 A 
ATOM     25  C   UNL     1      44.124   4.413  12.445  0.00  0.00    +0.000 A 
ATOM     26  S   UNL     1      43.462   2.933  11.914  0.00  0.00    +0.000 S 
ATOM     27  C   UNL     1      44.204   3.081  10.389  0.00  0.00    +0.000 A 
ATOM     28  N   UNL     1      44.069   2.113   9.441  0.00  0.00    +0.000 NA
ATOM     29  C   UNL     1      44.718   2.343   8.348  0.00  0.00    +0.000 A 
ATOM     30  N   UNL     1      45.478   3.457   8.109  0.00  0.00    +0.000 N 
ATOM     31  C   UNL     1      45.596   4.487   9.014  0.00  0.00    +0.000 A 
ATOM     32  O   UNL     1      46.210   5.507   8.737  0.00  0.00    +0.000 OA
ATOM     33  C   UNL     1      44.919   4.260  10.275  0.00  0.00    +0.000 A 
ATOM     34  H   UNL     1      45.942   3.589   7.222  0.00  0.00    +0.000 HD
ENDBRANCH  21  24
ENDBRANCH  19  20
ENDBRANCH   4  19
TORSDOF 7
ENDMDL
MODEL 6
REMARK VINA RESULT:    -6.734      5.225      6.250
REMARK INTER + INTRA:         -10.448
REMARK INTER:                  -9.266
REMARK INTRA:                  -1.182
REMARK UNBOUND:                -0.959
REMARK  Name = 
REMARK  7 active torsions:
REMARK  status: ('A' for Active; 'I' for Inactive)
REMARK    1  A    between atoms: C_2  and  C_3
REMARK    2  A    between atoms: C_6  and  C_7
REMARK    3  A    between atoms: N_9  and  C_10
REMARK    4  A    between atoms: C_10  and  C_11
REMARK    5  A    between atoms: C_14  and  C_15
REMARK    6  A    between atoms: C_15  and  N_16
REMARK    7  A    between atoms: C_17  and  C_19
REMARK                            x       y       z     vdW  Elec       q    Type
REMARK                         _______ _______ _______ _____ _____    ______ ____
ROOT
ATOM      1  C   UNL     1      45.358   6.485  12.891  0.00  0.00    +0.000 A 
ATOM      2  C   UNL     1      46.610   6.151  13.406  0.00  0.00    +0.000 A 
ATOM      3  C   UNL     1      47.541   7.163  13.654  0.00  0.00    +0.000 A 
ATOM      4  C   UNL     1      47.206   8.496  13.390  0.00  0.00    +0.000 A 
ATOM      5  C   UNL     1      45.937   8.726  12.870  0.00  0.00    +0.000 A 
ATOM      6  N   UNL     1      45.008   7.768  12.628  0.00  0.00    +0.000 NA
ENDROOT
BRANCH   1   7
ATOM      7  C   UNL     1      44.326   5.401  12.643  0.00  0.00    +0.000 C 
BRANCH   7  10
ATOM      8  C   UNL     1      44.798   3.629  11.010  0.00  0.00    +0.000 C 
ATOM      9  O   UNL     1      45.217   2.883  11.888  0.00  0.00    +0.000 OA
ATOM     10  N   UNL     1      44.353   4.907  11.276  0.00  0.00    +0.000 N 
ATOM     11  H   UNL     1      43.772   5.391  10.607  0.00  0.00    +0.000 HD
BRANCH   8  15
ATOM     12  C   UNL     1      45.847   2.277   7.630  0.00  0.00    +0.000 C 
ATOM     13  C   UNL     1      45.647   3.767   7.348  0.00  0.00    +0.000 C 
ATOM     14  C   UNL     1      44.938   4.358   8.571  0.00  0.00    +0.000 C 
ATOM     15  C   UNL     1      44.714   3.203   9.547  0.00  0.00    +0.000 C 
ATOM     16  C   UNL     1      45.779   2.174   9.153  0.00  0.00    +0.000 C 
BRANCH  12  18
ATOM     17  N   UNL     1      48.311   1.393   6.692  0.00  0.00    +0.000 NA
ATOM     18  C   UNL     1      47.193   1.793   7.117  0.00  0.00    +0.000 C 
ENDBRANCH  12  18
ENDBRANCH   8  15
ENDBRANCH   7  10
ENDBRANCH   1   7
BRANCH   4  19
ATOM     19  C   UNL     1      48.142   9.648  13.647  0.00  0.00    +0.000 C 
BRANCH  19  20
ATOM     20  N   UNL     1      49.327   9.597  12.824  0.00  0.00    +0.000 N 
ATOM     21  C   UNL     1      49.412  10.274  11.635  0.00  0.00    +0.000 C 
ATOM     22  O   UNL     1      48.506  10.977  11.196  0.00  0.00    +0.000 OA
ATOM     23  H   UNL     1      49.912   8.775  12.935  0.00  0.00    +0.000 HD
BRANCH  21  24
ATOM     24  C   UNL     1      50.701  10.146  10.928  0.00  0.00    +0.000 A 
ATOM     25  C   UNL     1      51.345  11.269  10.429  0.00  0.00    +0.000 A 
ATOM     26  S   UNL     1      52.846  10.922   9.695  0.00  0.00    +0.000 S 
ATOM     27  C   UNL     1      52.663   9.253   9.971  0.00  0.00    +0.000 A 
ATOM     28  N   UNL     1      53.600   8.360   9.549  0.00  0.00    +0.000 NA
ATOM     29  C   UNL     1      53.310   7.125   9.795  0.00  0.00    +0.000 A 
ATOM     30  N   UNL     1      52.176   6.701  10.436  0.00  0.00    +0.000 N 
ATOM     31  C   UNL     1      51.230   7.571  10.931  0.00  0.00    +0.000 A 
ATOM     32  O   UNL     1      50.273   7.166  11.575  0.00  0.00    +0.000 OA
ATOM     33  C   UNL     1      51.489   8.966  10.645  0.00  0.00    +0.000 A 
ATOM     34  H   UNL     1      52.019   5.721  10.619  0.00  0.00    +0.000 HD
ENDBRANCH  21  24
ENDBRANCH  19  20
ENDBRANCH   4  19
TORSDOF 7
ENDMDL
MODEL 7
REMARK VINA RESULT:    -6.543      5.899      7.874
REMARK INTER + INTRA:         -10.179
REMARK INTER:                  -9.154
REMARK INTRA:                  -1.025
REMARK UNBOUND:                -0.959
REMARK  Name = 
REMARK  7 active torsions:
REMARK  status: ('A' for Active; 'I' for Inactive)
REMARK    1  A    between atoms: C_2  and  C_3
REMARK    2  A    between atoms: C_6  and  C_7
REMARK    3  A    between atoms: N_9  and  C_10
REMARK    4  A    between atoms: C_10  and  C_11
REMARK    5  A    between atoms: C_14  and  C_15
REMARK    6  A    between atoms: C_15  and  N_16
REMARK    7  A    between atoms: C_17  and  C_19
REMARK                            x       y       z     vdW  Elec       q    Type
REMARK                         _______ _______ _______ _____ _____    ______ ____
ROOT
ATOM      1  C   UNL     1      49.032   7.177  13.679  0.00  0.00    +0.000 A 
ATOM      2  C   UNL     1      48.960   7.205  12.286  0.00  0.00    +0.000 A 
ATOM      3  C   UNL     1      49.989   7.808  11.559  0.00  0.00    +0.000 A 
ATOM      4  C   UNL     1      51.080   8.370  12.231  0.00  0.00    +0.000 A 
ATOM      5  C   UNL     1      51.057   8.300  13.619  0.00  0.00    +0.000 A 
ATOM      6  N   UNL     1      50.079   7.713  14.355  0.00  0.00    +0.000 NA
ENDROOT
BRANCH   1   7
ATOM      7  C   UNL     1      47.938   6.502  14.483  0.00  0.00    +0.000 C 
BRANCH   7  10
ATOM      8  C   UNL     1      46.263   4.841  13.798  0.00  0.00    +0.000 C 
ATOM      9  O   UNL     1      46.720   4.009  14.574  0.00  0.00    +0.000 OA
ATOM     10  N   UNL     1      46.808   6.100  13.660  0.00  0.00    +0.000 N 
ATOM     11  H   UNL     1      46.270   6.843  13.236  0.00  0.00    +0.000 HD
BRANCH   8  15
ATOM     12  C   UNL     1      44.126   3.431  11.006  0.00  0.00    +0.000 C 
ATOM     13  C   UNL     1      44.214   4.916  10.645  0.00  0.00    +0.000 C 
ATOM     14  C   UNL     1      44.806   5.633  11.863  0.00  0.00    +0.000 C 
ATOM     15  C   UNL     1      45.040   4.564  12.929  0.00  0.00    +0.000 C 
ATOM     16  C   UNL     1      45.148   3.261  12.129  0.00  0.00    +0.000 C 
BRANCH  12  18
ATOM     17  N   UNL     1      44.775   1.823   8.833  0.00  0.00    +0.000 NA
ATOM     18  C   UNL     1      44.480   2.552   9.818  0.00  0.00    +0.000 C 
ENDBRANCH  12  18
ENDBRANCH   8  15
ENDBRANCH   7  10
ENDBRANCH   1   7
BRANCH   4  19
ATOM     19  C   UNL     1      52.239   9.021  11.522  0.00  0.00    +0.000 C 
BRANCH  19  20
ATOM     20  N   UNL     1      52.444   8.498  10.192  0.00  0.00    +0.000 N 
ATOM     21  C   UNL     1      53.572   8.785   9.468  0.00  0.00    +0.000 C 
ATOM     22  O   UNL     1      54.486   9.484   9.898  0.00  0.00    +0.000 OA
ATOM     23  H   UNL     1      51.606   8.259   9.674  0.00  0.00    +0.000 HD
BRANCH  21  24
ATOM     24  C   UNL     1      53.646   8.149   8.139  0.00  0.00    +0.000 A 
ATOM     25  C   UNL     1      53.674   8.923   6.988  0.00  0.00    +0.000 A 
ATOM     26  S   UNL     1      53.815   8.008   5.555  0.00  0.00    +0.000 S 
ATOM     27  C   UNL     1      53.791   6.542   6.419  0.00  0.00    +0.000 A 
ATOM     28  N   UNL     1      53.845   5.343   5.777  0.00  0.00    +0.000 NA
ATOM     29  C   UNL     1      53.779   4.316   6.557  0.00  0.00    +0.000 A 
ATOM     30  N   UNL     1      53.679   4.376   7.922  0.00  0.00    +0.000 N 
ATOM     31  C   UNL     1      53.680   5.564   8.618  0.00  0.00    +0.000 A 
ATOM     32  O   UNL     1      53.677   5.582   9.840  0.00  0.00    +0.000 OA
ATOM     33  C   UNL     1      53.710   6.748   7.784  0.00  0.00    +0.000 A 
ATOM     34  H   UNL     1      53.656   3.534   8.479  0.00  0.00    +0.000 HD
ENDBRANCH  21  24
ENDBRANCH  19  20
ENDBRANCH   4  19
TORSDOF 7
ENDMDL
MODEL 8
REMARK VINA RESULT:    -6.439      2.441      2.909
REMARK INTER + INTRA:         -10.033
REMARK INTER:                  -9.279
REMARK INTRA:                  -0.754
REMARK UNBOUND:                -0.959
REMARK  Name = 
REMARK  7 active torsions:
REMARK  status: ('A' for Active; 'I' for Inactive)
REMARK    1  A    between atoms: C_2  and  C_3
REMARK    2  A    between atoms: C_6  and  C_7
REMARK    3  A    between atoms: N_9  and  C_10
REMARK    4  A    between atoms: C_10  and  C_11
REMARK    5  A    between atoms: C_14  and  C_15
REMARK    6  A    between atoms: C_15  and  N_16
REMARK    7  A    between atoms: C_17  and  C_19
REMARK                            x       y       z     vdW  Elec       q    Type
REMARK                         _______ _______ _______ _____ _____    ______ ____
ROOT
ATOM      1  C   UNL     1      45.410   6.036  12.899  0.00  0.00    +0.000 A 
ATOM      2  C   UNL     1      46.328   5.207  13.544  0.00  0.00    +0.000 A 
ATOM      3  C   UNL     1      47.520   5.751  14.029  0.00  0.00    +0.000 A 
ATOM      4  C   UNL     1      47.777   7.117  13.869  0.00  0.00    +0.000 A 
ATOM      5  C   UNL     1      46.806   7.859  13.205  0.00  0.00    +0.000 A 
ATOM      6  N   UNL     1      45.634   7.363  12.732  0.00  0.00    +0.000 NA
ENDROOT
BRANCH   1   7
ATOM      7  C   UNL     1      44.099   5.468  12.391  0.00  0.00    +0.000 C 
BRANCH   7  10
ATOM      8  C   UNL     1      44.330   3.528  10.902  0.00  0.00    +0.000 C 
ATOM      9  O   UNL     1      44.374   2.758  11.855  0.00  0.00    +0.000 OA
ATOM     10  N   UNL     1      44.217   4.893  11.060  0.00  0.00    +0.000 N 
ATOM     11  H   UNL     1      43.912   5.470  10.289  0.00  0.00    +0.000 HD
BRANCH   8  15
ATOM     12  C   UNL     1      45.709   2.157   7.652  0.00  0.00    +0.000 C 
ATOM     13  C   UNL     1      45.395   3.611   7.296  0.00  0.00    +0.000 C 
ATOM     14  C   UNL     1      44.559   4.178   8.448  0.00  0.00    +0.000 C 
ATOM     15  C   UNL     1      44.378   3.044   9.457  0.00  0.00    +0.000 C 
ATOM     16  C   UNL     1      45.554   2.104   9.171  0.00  0.00    +0.000 C 
BRANCH  12  18
ATOM     17  N   UNL     1      48.297   1.470   6.901  0.00  0.00    +0.000 NA
ATOM     18  C   UNL     1      47.124   1.781   7.241  0.00  0.00    +0.000 C 
ENDBRANCH  12  18
ENDBRANCH   8  15
ENDBRANCH   7  10
ENDBRANCH   1   7
BRANCH   4  19
ATOM     19  C   UNL     1      49.027   7.786  14.379  0.00  0.00    +0.000 C 
BRANCH  19  20
ATOM     20  N   UNL     1      49.805   6.930  15.242  0.00  0.00    +0.000 N 
ATOM     21  C   UNL     1      50.944   7.372  15.864  0.00  0.00    +0.000 C 
ATOM     22  O   UNL     1      51.371   8.517  15.747  0.00  0.00    +0.000 OA
ATOM     23  H   UNL     1      49.724   5.933  15.071  0.00  0.00    +0.000 HD
BRANCH  21  24
ATOM     24  C   UNL     1      51.607   6.385  16.738  0.00  0.00    +0.000 A 
ATOM     25  C   UNL     1      50.905   5.767  17.762  0.00  0.00    +0.000 A 
ATOM     26  S   UNL     1      51.829   4.620  18.624  0.00  0.00    +0.000 S 
ATOM     27  C   UNL     1      53.215   4.947  17.692  0.00  0.00    +0.000 A 
ATOM     28  N   UNL     1      54.395   4.316  17.938  0.00  0.00    +0.000 NA
ATOM     29  C   UNL     1      55.370   4.693  17.177  0.00  0.00    +0.000 A 
ATOM     30  N   UNL     1      55.269   5.631  16.185  0.00  0.00    +0.000 N 
ATOM     31  C   UNL     1      54.083   6.252  15.863  0.00  0.00    +0.000 A 
ATOM     32  O   UNL     1      54.007   7.020  14.915  0.00  0.00    +0.000 OA
ATOM     33  C   UNL     1      52.968   5.894  16.715  0.00  0.00    +0.000 A 
ATOM     34  H   UNL     1      56.064   5.863  15.607  0.00  0.00    +0.000 HD
ENDBRANCH  21  24
ENDBRANCH  19  20
ENDBRANCH   4  19
TORSDOF 7
ENDMDL
MODEL 9
REMARK VINA RESULT:    -6.343      3.377      9.308
REMARK INTER + INTRA:          -9.898
REMARK INTER:                  -8.851
REMARK INTRA:                  -1.046
REMARK UNBOUND:                -0.959
REMARK  Name = 
REMARK  7 active torsions:
REMARK  status: ('A' for Active; 'I' for Inactive)
REMARK    1  A    between atoms: C_2  and  C_3
REMARK    2  A    between atoms: C_6  and  C_7
REMARK    3  A    between atoms: N_9  and  C_10
REMARK    4  A    between atoms: C_10  and  C_11
REMARK    5  A    between atoms: C_14  and  C_15
REMARK    6  A    between atoms: C_15  and  N_16
REMARK    7  A    between atoms: C_17  and  C_19
REMARK                            x       y       z     vdW  Elec       q    Type
REMARK                         _______ _______ _______ _____ _____    ______ ____
ROOT
ATOM      1  C   UNL     1      50.054   8.492  14.521  0.00  0.00    +0.000 A 
ATOM      2  C   UNL     1      49.649   9.680  13.913  0.00  0.00    +0.000 A 
ATOM      3  C   UNL     1      48.670   9.641  12.918  0.00  0.00    +0.000 A 
ATOM      4  C   UNL     1      48.102   8.417  12.548  0.00  0.00    +0.000 A 
ATOM      5  C   UNL     1      48.577   7.288  13.205  0.00  0.00    +0.000 A 
ATOM      6  N   UNL     1      49.519   7.293  14.182  0.00  0.00    +0.000 NA
ENDROOT
BRANCH   1   7
ATOM      7  C   UNL     1      51.096   8.519  15.622  0.00  0.00    +0.000 C 
BRANCH   7  10
ATOM      8  C   UNL     1      50.409   7.225  17.594  0.00  0.00    +0.000 C 
ATOM      9  O   UNL     1      49.788   8.180  18.047  0.00  0.00    +0.000 OA
ATOM     10  N   UNL     1      51.110   7.296  16.408  0.00  0.00    +0.000 N 
ATOM     11  H   UNL     1      51.377   6.449  15.925  0.00  0.00    +0.000 HD
BRANCH   8  15
ATOM     12  C   UNL     1      50.350   3.468  18.076  0.00  0.00    +0.000 C 
ATOM     13  C   UNL     1      49.030   3.909  18.712  0.00  0.00    +0.000 C 
ATOM     14  C   UNL     1      49.087   5.435  18.837  0.00  0.00    +0.000 C 
ATOM     15  C   UNL     1      50.447   5.869  18.290  0.00  0.00    +0.000 C 
ATOM     16  C   UNL     1      50.854   4.721  17.360  0.00  0.00    +0.000 C 
BRANCH  12  18
ATOM     17  N   UNL     1      49.956   1.393  16.268  0.00  0.00    +0.000 NA
ATOM     18  C   UNL     1      50.135   2.334  17.088  0.00  0.00    +0.000 C 
ENDBRANCH  12  18
ENDBRANCH   8  15
ENDBRANCH   7  10
ENDBRANCH   1   7
BRANCH   4  19
ATOM     19  C   UNL     1      47.027   8.290  11.500  0.00  0.00    +0.000 C 
BRANCH  19  20
ATOM     20  N   UNL     1      46.450   6.968  11.451  0.00  0.00    +0.000 N 
ATOM     21  C   UNL     1      45.094   6.773  11.395  0.00  0.00    +0.000 C 
ATOM     22  O   UNL     1      44.283   7.695  11.367  0.00  0.00    +0.000 OA
ATOM     23  H   UNL     1      47.013   6.221  11.844  0.00  0.00    +0.000 HD
BRANCH  21  24
ATOM     24  C   UNL     1      44.664   5.363  11.318  0.00  0.00    +0.000 A 
ATOM     25  C   UNL     1      43.918   4.798  12.341  0.00  0.00    +0.000 A 
ATOM     26  S   UNL     1      43.471   3.178  12.043  0.00  0.00    +0.000 S 
ATOM     27  C   UNL     1      44.304   3.159  10.559  0.00  0.00    +0.000 A 
ATOM     28  N   UNL     1      44.352   2.037   9.791  0.00  0.00    +0.000 NA
ATOM     29  C   UNL     1      45.052   2.159   8.711  0.00  0.00    +0.000 A 
ATOM     30  N   UNL     1      45.696   3.303   8.322  0.00  0.00    +0.000 N 
ATOM     31  C   UNL     1      45.626   4.478   9.037  0.00  0.00    +0.000 A 
ATOM     32  O   UNL     1      46.139   5.506   8.618  0.00  0.00    +0.000 OA
ATOM     33  C   UNL     1      44.887   4.382  10.279  0.00  0.00    +0.000 A 
ATOM     34  H   UNL     1      46.207   3.341   7.452  0.00  0.00    +0.000 HD
ENDBRANCH  21  24
ENDBRANCH  19  20
ENDBRANCH   4  19
TORSDOF 7
ENDMDL
