MODEL 1
REMARK VINA RESULT:    -7.631      0.000      0.000
REMARK INTER + INTRA:         -12.703
REMARK INTER:                 -11.646
REMARK INTRA:                  -1.057
REMARK UNBOUND:                -1.057
REMARK  Name = 
REMARK  10 active torsions:
REMARK  status: ('A' for Active; 'I' for Inactive)
REMARK    1  A    between atoms: C_1  and  C_2
REMARK    2  A    between atoms: C_2  and  C_3
REMARK    3  A    between atoms: C_3  and  N_4
REMARK    4  A    between atoms: C_3  and  C_20
REMARK    5  A    between atoms: N_4  and  C_5
REMARK    6  A    between atoms: C_5  and  C_6
REMARK    7  A    between atoms: C_9  and  C_10
REMARK    8  A    between atoms: C_10  and  O_11
REMARK    9  A    between atoms: O_11  and  C_12
REMARK   10  A    between atoms: C_12  and  C_13
REMARK                            x       y       z     vdW  Elec       q    Type
REMARK                         _______ _______ _______ _____ _____    ______ ____
ROOT
ATOM      1  N   UNL     1      48.767   4.978  15.633  0.00  0.00    +0.000 NA
ATOM      2  H   UNL     1      48.615   4.054  15.228  0.00  0.00    +0.000 HD
ENDROOT
BRANCH   1   3
ATOM      3  C   UNL     1      48.593   4.850  17.090  0.00  0.00    +0.000 C 
BRANCH   3   4
ATOM      4  C   UNL     1      49.981   4.523  17.652  0.00  0.00    +0.000 A 
ATOM      5  C   UNL     1      50.752   5.389  18.418  0.00  0.00    +0.000 A 
ATOM      6  S   UNL     1      52.244   4.721  18.910  0.00  0.00    +0.000 S 
ATOM      7  C   UNL     1      51.898   3.240  18.144  0.00  0.00    +0.000 A 
ATOM      8  N   UNL     1      52.771   2.201  18.198  0.00  0.00    +0.000 NA
ATOM      9  C   UNL     1      52.363   1.131  17.588  0.00  0.00    +0.000 A 
ATOM     10  N   UNL     1      51.166   1.014  16.933  0.00  0.00    +0.000 N 
ATOM     11  C   UNL     1      50.249   2.042  16.849  0.00  0.00    +0.000 A 
ATOM     12  O   UNL     1      49.182   1.905  16.263  0.00  0.00    +0.000 OA
ATOM     13  C   UNL     1      50.669   3.261  17.517  0.00  0.00    +0.000 A 
ATOM     14  H   UNL     1      50.907   0.152  16.483  0.00  0.00    +0.000 HD
ENDBRANCH   3   4
BRANCH   3  16
ATOM     15  C   UNL     1      47.121   5.840  19.039  0.00  0.00    +0.000 C 
ATOM     16  C   UNL     1      48.032   6.088  17.844  0.00  0.00    +0.000 C 
ENDBRANCH   3  16
ENDBRANCH   1   3
BRANCH   1  17
ATOM     17  C   UNL     1      47.844   5.907  15.003  0.00  0.00    +0.000 C 
BRANCH  17  18
ATOM     18  C   UNL     1      46.962   5.246  13.988  0.00  0.00    +0.000 A 
ATOM     19  C   UNL     1      46.337   5.961  12.971  0.00  0.00    +0.000 A 
ATOM     20  C   UNL     1      45.583   5.276  12.026  0.00  0.00    +0.000 A 
ATOM     21  C   UNL     1      45.483   3.888  12.118  0.00  0.00    +0.000 A 
ATOM     22  N   UNL     1      46.074   3.172  13.105  0.00  0.00    +0.000 NA
ATOM     23  C   UNL     1      46.792   3.863  14.010  0.00  0.00    +0.000 A 
BRANCH  21  24
ATOM     24  C   UNL     1      44.708   3.115  11.086  0.00  0.00    +0.000 C 
BRANCH  24  25
ATOM     25  O   UNL     1      45.325   3.293   9.810  0.00  0.00    +0.000 OA
BRANCH  25  26
ATOM     26  C   UNL     1      44.987   2.228   8.933  0.00  0.00    +0.000 C 
BRANCH  26  27
ATOM     27  C   UNL     1      46.155   2.027   8.055  0.00  0.00    +0.000 A 
ATOM     28  C   UNL     1      46.864   0.899   7.701  0.00  0.00    +0.000 A 
ATOM     29  N   UNL     1      47.890   1.213   6.847  0.00  0.00    +0.000 NA
ATOM     30  C   UNL     1      47.811   2.511   6.673  0.00  0.00    +0.000 A 
ATOM     31  N   UNL     1      46.781   3.049   7.387  0.00  0.00    +0.000 N 
ATOM     32  H   UNL     1      46.495   4.020   7.408  0.00  0.00    +0.000 HD
ENDBRANCH  26  27
ENDBRANCH  25  26
ENDBRANCH  24  25
ENDBRANCH  21  24
ENDBRANCH  17  18
ENDBRANCH   1  17
TORSDOF 9
ENDMDL
MODEL 2
REMARK VINA RESULT:    -7.336      3.019      8.514
REMARK INTER + INTRA:         -12.253
REMARK INTER:                 -10.813
REMARK INTRA:                  -1.440
REMARK UNBOUND:                -1.057
REMARK  Name = 
REMARK  10 active torsions:
REMARK  status: ('A' for Active; 'I' for Inactive)
REMARK    1  A    between atoms: C_1  and  C_2
REMARK    2  A    between atoms: C_2  and  C_3
REMARK    3  A    between atoms: C_3  and  N_4
REMARK    4  A    between atoms: C_3  and  C_20
REMARK    5  A    between atoms: N_4  and  C_5
REMARK    6  A    between atoms: C_5  and  C_6
REMARK    7  A    between atoms: C_9  and  C_10
REMARK    8  A    between atoms: C_10  and  O_11
REMARK    9  A    between atoms: O_11  and  C_12
REMARK   10  A    between atoms: C_12  and  C_13
REMARK                            x       y       z     vdW  Elec       q    Type
REMARK                         _______ _______ _______ _____ _____    ______ ____
ROOT
ATOM      1  N   UNL     1      47.161   6.877  11.485  0.00  0.00    +0.000 NA
ATOM      2  H   UNL     1      47.564   6.762  10.555  0.00  0.00    +0.000 HD
ENDROOT
BRANCH   1   3
ATOM      3  C   UNL     1      45.734   7.197  11.305  0.00  0.00    +0.000 C 
BRANCH   3   4
ATOM      4  C   UNL     1      44.975   5.890  11.562  0.00  0.00    +0.000 A 
ATOM      5  C   UNL     1      44.234   5.613  12.704  0.00  0.00    +0.000 A 
ATOM      6  S   UNL     1      43.490   4.076  12.679  0.00  0.00    +0.000 S 
ATOM      7  C   UNL     1      44.105   3.741  11.127  0.00  0.00    +0.000 A 
ATOM      8  N   UNL     1      43.822   2.573  10.497  0.00  0.00    +0.000 NA
ATOM      9  C   UNL     1      44.341   2.466   9.312  0.00  0.00    +0.000 A 
ATOM     10  N   UNL     1      45.115   3.423   8.711  0.00  0.00    +0.000 N 
ATOM     11  C   UNL     1      45.432   4.624   9.312  0.00  0.00    +0.000 A 
ATOM     12  O   UNL     1      46.120   5.464   8.745  0.00  0.00    +0.000 OA
ATOM     13  C   UNL     1      44.873   4.781  10.643  0.00  0.00    +0.000 A 
ATOM     14  H   UNL     1      45.484   3.280   7.785  0.00  0.00    +0.000 HD
ENDBRANCH   3   4
BRANCH   3  16
ATOM     15  C   UNL     1      44.616   9.571  11.556  0.00  0.00    +0.000 C 
ATOM     16  C   UNL     1      45.139   8.303  12.221  0.00  0.00    +0.000 C 
ENDBRANCH   3  16
ENDBRANCH   1   3
BRANCH   1  17
ATOM     17  C   UNL     1      47.916   7.904  12.184  0.00  0.00    +0.000 C 
BRANCH  17  18
ATOM     18  C   UNL     1      48.302   7.492  13.572  0.00  0.00    +0.000 A 
ATOM     19  C   UNL     1      48.892   8.376  14.471  0.00  0.00    +0.000 A 
ATOM     20  C   UNL     1      49.165   7.945  15.764  0.00  0.00    +0.000 A 
ATOM     21  C   UNL     1      48.832   6.641  16.127  0.00  0.00    +0.000 A 
ATOM     22  N   UNL     1      48.266   5.760  15.266  0.00  0.00    +0.000 NA
ATOM     23  C   UNL     1      48.018   6.203  14.019  0.00  0.00    +0.000 A 
BRANCH  21  24
ATOM     24  C   UNL     1      49.078   6.159  17.531  0.00  0.00    +0.000 C 
BRANCH  24  25
ATOM     25  O   UNL     1      48.016   5.286  17.917  0.00  0.00    +0.000 OA
BRANCH  25  26
ATOM     26  C   UNL     1      48.497   4.248  18.759  0.00  0.00    +0.000 C 
BRANCH  26  27
ATOM     27  C   UNL     1      49.087   3.231  17.868  0.00  0.00    +0.000 A 
ATOM     28  C   UNL     1      48.601   2.581  16.754  0.00  0.00    +0.000 A 
ATOM     29  N   UNL     1      49.529   1.704  16.254  0.00  0.00    +0.000 NA
ATOM     30  C   UNL     1      50.572   1.816  17.043  0.00  0.00    +0.000 A 
ATOM     31  N   UNL     1      50.351   2.723  18.037  0.00  0.00    +0.000 N 
ATOM     32  H   UNL     1      51.001   3.008  18.758  0.00  0.00    +0.000 HD
ENDBRANCH  26  27
ENDBRANCH  25  26
ENDBRANCH  24  25
ENDBRANCH  21  24
ENDBRANCH  17  18
ENDBRANCH   1  17
TORSDOF 9
ENDMDL
MODEL 3
REMARK VINA RESULT:    -7.085      1.800      2.184
REMARK INTER + INTRA:         -11.869
REMARK INTER:                 -10.754
REMARK INTRA:                  -1.115
REMARK UNBOUND:                -1.057
REMARK  Name = 
REMARK  10 active torsions:
REMARK  status: ('A' for Active; 'I' for Inactive)
REMARK    1  A    between atoms: C_1  and  C_2
REMARK    2  A    between atoms: C_2  and  C_3
REMARK    3  A    between atoms: C_3  and  N_4
REMARK    4  A    between atoms: C_3  and  C_20
REMARK    5  A    between atoms: N_4  and  C_5
REMARK    6  A    between atoms: C_5  and  C_6
REMARK    7  A    between atoms: C_9  and  C_10
REMARK    8  A    between atoms: C_10  and  O_11
REMARK    9  A    between atoms: O_11  and  C_12
REMARK   10  A    between atoms: C_12  and  C_13
REMARK                            x       y       z     vdW  Elec       q    Type
REMARK                         _______ _______ _______ _____ _____    ______ ____
ROOT
ATOM      1  N   UNL     1      48.220   6.034  14.518  0.00  0.00    +0.000 NA
ATOM      2  H   UNL     1      47.456   5.443  14.846  0.00  0.00    +0.000 HD
ENDROOT
BRANCH   1   3
ATOM      3  C   UNL     1      48.551   6.967  15.609  0.00  0.00    +0.000 C 
BRANCH   3   4
ATOM      4  C   UNL     1      49.983   6.626  16.033  0.00  0.00    +0.000 A 
ATOM      5  C   UNL     1      51.107   7.381  15.717  0.00  0.00    +0.000 A 
ATOM      6  S   UNL     1      52.557   6.747  16.355  0.00  0.00    +0.000 S 
ATOM      7  C   UNL     1      51.732   5.459  17.104  0.00  0.00    +0.000 A 
ATOM      8  N   UNL     1      52.396   4.537  17.846  0.00  0.00    +0.000 NA
ATOM      9  C   UNL     1      51.634   3.628  18.372  0.00  0.00    +0.000 A 
ATOM     10  N   UNL     1      50.275   3.564  18.218  0.00  0.00    +0.000 N 
ATOM     11  C   UNL     1      49.557   4.476  17.471  0.00  0.00    +0.000 A 
ATOM     12  O   UNL     1      48.340   4.398  17.358  0.00  0.00    +0.000 OA
ATOM     13  C   UNL     1      50.374   5.510  16.861  0.00  0.00    +0.000 A 
ATOM     14  H   UNL     1      49.740   2.834  18.658  0.00  0.00    +0.000 HD
ENDBRANCH   3   4
BRANCH   3  16
ATOM     15  C   UNL     1      48.200   9.445  16.435  0.00  0.00    +0.000 C 
ATOM     16  C   UNL     1      48.477   8.485  15.285  0.00  0.00    +0.000 C 
ENDBRANCH   3  16
ENDBRANCH   1   3
BRANCH   1  17
ATOM     17  C   UNL     1      47.796   6.684  13.288  0.00  0.00    +0.000 C 
BRANCH  17  18
ATOM     18  C   UNL     1      46.770   5.889  12.540  0.00  0.00    +0.000 A 
ATOM     19  C   UNL     1      46.301   6.277  11.287  0.00  0.00    +0.000 A 
ATOM     20  C   UNL     1      45.397   5.459  10.620  0.00  0.00    +0.000 A 
ATOM     21  C   UNL     1      44.991   4.268  11.222  0.00  0.00    +0.000 A 
ATOM     22  N   UNL     1      45.426   3.876  12.444  0.00  0.00    +0.000 NA
ATOM     23  C   UNL     1      46.296   4.691  13.069  0.00  0.00    +0.000 A 
BRANCH  21  24
ATOM     24  C   UNL     1      44.045   3.343  10.506  0.00  0.00    +0.000 C 
BRANCH  24  25
ATOM     25  O   UNL     1      44.538   3.099   9.189  0.00  0.00    +0.000 OA
BRANCH  25  26
ATOM     26  C   UNL     1      44.982   1.756   9.057  0.00  0.00    +0.000 C 
BRANCH  26  27
ATOM     27  C   UNL     1      46.136   1.789   8.138  0.00  0.00    +0.000 A 
ATOM     28  C   UNL     1      46.919   0.791   7.598  0.00  0.00    +0.000 A 
ATOM     29  N   UNL     1      47.890   1.316   6.785  0.00  0.00    +0.000 NA
ATOM     30  C   UNL     1      47.705   2.615   6.818  0.00  0.00    +0.000 A 
ATOM     31  N   UNL     1      46.659   2.950   7.627  0.00  0.00    +0.000 N 
ATOM     32  H   UNL     1      46.298   3.879   7.804  0.00  0.00    +0.000 HD
ENDBRANCH  26  27
ENDBRANCH  25  26
ENDBRANCH  24  25
ENDBRANCH  21  24
ENDBRANCH  17  18
ENDBRANCH   1  17
TORSDOF 9
ENDMDL
MODEL 4
REMARK VINA RESULT:    -6.754      3.110      4.137
REMARK INTER + INTRA:         -11.365
REMARK INTER:                 -10.325
REMARK INTRA:                  -1.041
REMARK UNBOUND:                -1.057
REMARK  Name = 
REMARK  10 active torsions:
REMARK  status: ('A' for Active; 'I' for Inactive)
REMARK    1  A    between atoms: C_1  and  C_2
REMARK    2  A    between atoms: C_2  and  C_3
REMARK    3  A    between atoms: C_3  and  N_4
REMARK    4  A    between atoms: C_3  and  C_20
REMARK    5  A    between atoms: N_4  and  C_5
REMARK    6  A    between atoms: C_5  and  C_6
REMARK    7  A    between atoms: C_9  and  C_10
REMARK    8  A    between atoms: C_10  and  O_11
REMARK    9  A    between atoms: O_11  and  C_12
REMARK   10  A    between atoms: C_12  and  C_13
REMARK                            x       y       z     vdW  Elec       q    Type
REMARK                         _______ _______ _______ _____ _____    ______ ____
ROOT
ATOM      1  N   UNL     1      48.662   6.408  13.967  0.00  0.00    +0.000 NA
ATOM      2  H   UNL     1      48.445   5.474  14.314  0.00  0.00    +0.000 HD
ENDROOT
BRANCH   1   3
ATOM      3  C   UNL     1      49.166   7.192  15.108  0.00  0.00    +0.000 C 
BRANCH   3   4
ATOM      4  C   UNL     1      48.663   6.474  16.365  0.00  0.00    +0.000 A 
ATOM      5  C   UNL     1      48.512   5.098  16.487  0.00  0.00    +0.000 A 
ATOM      6  S   UNL     1      47.951   4.606  18.022  0.00  0.00    +0.000 S 
ATOM      7  C   UNL     1      47.922   6.212  18.589  0.00  0.00    +0.000 A 
ATOM      8  N   UNL     1      47.547   6.501  19.861  0.00  0.00    +0.000 NA
ATOM      9  C   UNL     1      47.595   7.763  20.157  0.00  0.00    +0.000 A 
ATOM     10  N   UNL     1      47.982   8.753  19.294  0.00  0.00    +0.000 N 
ATOM     11  C   UNL     1      48.367   8.509  17.991  0.00  0.00    +0.000 A 
ATOM     12  O   UNL     1      48.716   9.415  17.244  0.00  0.00    +0.000 OA
ATOM     13  C   UNL     1      48.324   7.106  17.618  0.00  0.00    +0.000 A 
ATOM     14  H   UNL     1      48.002   9.715  19.588  0.00  0.00    +0.000 HD
ENDBRANCH   3   4
BRANCH   3  16
ATOM     15  C   UNL     1      51.365   8.438  14.360  0.00  0.00    +0.000 C 
ATOM     16  C   UNL     1      50.707   7.364  15.218  0.00  0.00    +0.000 C 
ENDBRANCH   3  16
ENDBRANCH   1   3
BRANCH   1  17
ATOM     17  C   UNL     1      47.462   6.955  13.354  0.00  0.00    +0.000 C 
BRANCH  17  18
ATOM     18  C   UNL     1      46.649   5.914  12.648  0.00  0.00    +0.000 A 
ATOM     19  C   UNL     1      46.377   4.673  13.217  0.00  0.00    +0.000 A 
ATOM     20  C   UNL     1      45.563   3.778  12.535  0.00  0.00    +0.000 A 
ATOM     21  C   UNL     1      45.032   4.153  11.300  0.00  0.00    +0.000 A 
ATOM     22  N   UNL     1      45.291   5.351  10.722  0.00  0.00    +0.000 NA
ATOM     23  C   UNL     1      46.088   6.195  11.404  0.00  0.00    +0.000 A 
BRANCH  21  24
ATOM     24  C   UNL     1      44.114   3.222  10.557  0.00  0.00    +0.000 C 
BRANCH  24  25
ATOM     25  O   UNL     1      44.576   3.086   9.213  0.00  0.00    +0.000 OA
BRANCH  25  26
ATOM     26  C   UNL     1      44.940   1.740   8.938  0.00  0.00    +0.000 C 
BRANCH  26  27
ATOM     27  C   UNL     1      46.134   1.802   8.073  0.00  0.00    +0.000 A 
ATOM     28  C   UNL     1      46.965   0.824   7.571  0.00  0.00    +0.000 A 
ATOM     29  N   UNL     1      47.960   1.373   6.803  0.00  0.00    +0.000 NA
ATOM     30  C   UNL     1      47.742   2.667   6.826  0.00  0.00    +0.000 A 
ATOM     31  N   UNL     1      46.651   2.976   7.585  0.00  0.00    +0.000 N 
ATOM     32  H   UNL     1      46.260   3.896   7.745  0.00  0.00    +0.000 HD
ENDBRANCH  26  27
ENDBRANCH  25  26
ENDBRANCH  24  25
ENDBRANCH  21  24
ENDBRANCH  17  18
ENDBRANCH   1  17
TORSDOF 9
ENDMDL
MODEL 5
REMARK VINA RESULT:    -6.703      3.650      8.490
REMARK INTER + INTRA:         -11.287
REMARK INTER:                 -10.271
REMARK INTRA:                  -1.016
REMARK UNBOUND:                -1.057
REMARK  Name = 
REMARK  10 active torsions:
REMARK  status: ('A' for Active; 'I' for Inactive)
REMARK    1  A    between atoms: C_1  and  C_2
REMARK    2  A    between atoms: C_2  and  C_3
REMARK    3  A    between atoms: C_3  and  N_4
REMARK    4  A    between atoms: C_3  and  C_20
REMARK    5  A    between atoms: N_4  and  C_5
REMARK    6  A    between atoms: C_5  and  C_6
REMARK    7  A    between atoms: C_9  and  C_10
REMARK    8  A    between atoms: C_10  and  O_11
REMARK    9  A    between atoms: O_11  and  C_12
REMARK   10  A    between atoms: C_12  and  C_13
REMARK                            x       y       z     vdW  Elec       q    Type
REMARK                         _______ _______ _______ _____ _____    ______ ____
ROOT
ATOM      1  N   UNL     1      47.169   6.458  12.290  0.00  0.00    +0.000 NA
ATOM      2  H   UNL     1      47.503   5.555  11.950  0.00  0.00    +0.000 HD
ENDROOT
BRANCH   1   3
ATOM      3  C   UNL     1      46.208   6.969  11.297  0.00  0.00    +0.000 C 
BRANCH   3   4
ATOM      4  C   UNL     1      45.601   5.732  10.625  0.00  0.00    +0.000 A 
ATOM      5  C   UNL     1      45.763   5.395   9.287  0.00  0.00    +0.000 A 
ATOM      6  S   UNL     1      44.977   3.944   8.848  0.00  0.00    +0.000 S 
ATOM      7  C   UNL     1      44.421   3.699  10.439  0.00  0.00    +0.000 A 
ATOM      8  N   UNL     1      43.686   2.604  10.765  0.00  0.00    +0.000 NA
ATOM      9  C   UNL     1      43.352   2.540  12.016  0.00  0.00    +0.000 A 
ATOM     10  N   UNL     1      43.688   3.472  12.962  0.00  0.00    +0.000 N 
ATOM     11  C   UNL     1      44.429   4.601  12.679  0.00  0.00    +0.000 A 
ATOM     12  O   UNL     1      44.721   5.413  13.549  0.00  0.00    +0.000 OA
ATOM     13  C   UNL     1      44.821   4.713  11.285  0.00  0.00    +0.000 A 
ATOM     14  H   UNL     1      43.400   3.361  13.921  0.00  0.00    +0.000 HD
ENDBRANCH   3   4
BRANCH   3  16
ATOM     15  C   UNL     1      45.420   9.210  12.438  0.00  0.00    +0.000 C 
ATOM     16  C   UNL     1      45.053   7.862  11.830  0.00  0.00    +0.000 C 
ENDBRANCH   3  16
ENDBRANCH   1   3
BRANCH   1  17
ATOM     17  C   UNL     1      48.322   7.318  12.499  0.00  0.00    +0.000 C 
BRANCH  17  18
ATOM     18  C   UNL     1      48.975   7.095  13.830  0.00  0.00    +0.000 A 
ATOM     19  C   UNL     1      50.240   7.593  14.128  0.00  0.00    +0.000 A 
ATOM     20  C   UNL     1      50.759   7.404  15.403  0.00  0.00    +0.000 A 
ATOM     21  C   UNL     1      49.993   6.727  16.351  0.00  0.00    +0.000 A 
ATOM     22  N   UNL     1      48.763   6.224  16.081  0.00  0.00    +0.000 NA
ATOM     23  C   UNL     1      48.289   6.418  14.836  0.00  0.00    +0.000 A 
BRANCH  21  24
ATOM     24  C   UNL     1      50.511   6.542  17.751  0.00  0.00    +0.000 C 
BRANCH  24  25
ATOM     25  O   UNL     1      49.699   5.581  18.426  0.00  0.00    +0.000 OA
BRANCH  25  26
ATOM     26  C   UNL     1      50.422   4.380  18.654  0.00  0.00    +0.000 C 
BRANCH  26  27
ATOM     27  C   UNL     1      49.897   3.390  17.694  0.00  0.00    +0.000 A 
ATOM     28  C   UNL     1      50.474   2.303  17.074  0.00  0.00    +0.000 A 
ATOM     29  N   UNL     1      49.577   1.675  16.250  0.00  0.00    +0.000 NA
ATOM     30  C   UNL     1      48.463   2.360  16.364  0.00  0.00    +0.000 A 
ATOM     31  N   UNL     1      48.608   3.410  17.222  0.00  0.00    +0.000 N 
ATOM     32  H   UNL     1      47.896   4.075  17.498  0.00  0.00    +0.000 HD
ENDBRANCH  26  27
ENDBRANCH  25  26
ENDBRANCH  24  25
ENDBRANCH  21  24
ENDBRANCH  17  18
ENDBRANCH   1  17
TORSDOF 9
ENDMDL
MODEL 6
REMARK VINA RESULT:    -6.535      2.619      3.464
REMARK INTER + INTRA:         -11.030
REMARK INTER:                 -10.186
REMARK INTRA:                  -0.844
REMARK UNBOUND:                -1.057
REMARK  Name = 
REMARK  10 active torsions:
REMARK  status: ('A' for Active; 'I' for Inactive)
REMARK    1  A    between atoms: C_1  and  C_2
REMARK    2  A    between atoms: C_2  and  C_3
REMARK    3  A    between atoms: C_3  and  N_4
REMARK    4  A    between atoms: C_3  and  C_20
REMARK    5  A    between atoms: N_4  and  C_5
REMARK    6  A    between atoms: C_5  and  C_6
REMARK    7  A    between atoms: C_9  and  C_10
REMARK    8  A    between atoms: C_10  and  O_11
REMARK    9  A    between atoms: O_11  and  C_12
REMARK   10  A    between atoms: C_12  and  C_13
REMARK                            x       y       z     vdW  Elec       q    Type
REMARK                         _______ _______ _______ _____ _____    ______ ____
ROOT
ATOM      1  N   UNL     1      47.794   7.079  14.670  0.00  0.00    +0.000 NA
ATOM      2  H   UNL     1      46.965   7.673  14.657  0.00  0.00    +0.000 HD
ENDROOT
BRANCH   1   3
ATOM      3  C   UNL     1      48.909   7.897  15.178  0.00  0.00    +0.000 C 
BRANCH   3   4
ATOM      4  C   UNL     1      48.702   7.995  16.693  0.00  0.00    +0.000 A 
ATOM      5  C   UNL     1      48.495   9.178  17.392  0.00  0.00    +0.000 A 
ATOM      6  S   UNL     1      48.276   8.951  19.070  0.00  0.00    +0.000 S 
ATOM      7  C   UNL     1      48.417   7.260  18.916  0.00  0.00    +0.000 A 
ATOM      8  N   UNL     1      48.303   6.445  19.996  0.00  0.00    +0.000 NA
ATOM      9  C   UNL     1      48.411   5.182  19.724  0.00  0.00    +0.000 A 
ATOM     10  N   UNL     1      48.622   4.669  18.472  0.00  0.00    +0.000 N 
ATOM     11  C   UNL     1      48.748   5.456  17.345  0.00  0.00    +0.000 A 
ATOM     12  O   UNL     1      48.929   4.968  16.237  0.00  0.00    +0.000 OA
ATOM     13  C   UNL     1      48.637   6.880  17.608  0.00  0.00    +0.000 A 
ATOM     14  H   UNL     1      48.692   3.675  18.327  0.00  0.00    +0.000 HD
ENDBRANCH   3   4
BRANCH   3  16
ATOM     15  C   UNL     1      51.511   8.150  15.510  0.00  0.00    +0.000 C 
ATOM     16  C   UNL     1      50.347   7.374  14.907  0.00  0.00    +0.000 C 
ENDBRANCH   3  16
ENDBRANCH   1   3
BRANCH   1  17
ATOM     17  C   UNL     1      48.002   6.559  13.328  0.00  0.00    +0.000 C 
BRANCH  17  18
ATOM     18  C   UNL     1      46.831   5.769  12.828  0.00  0.00    +0.000 A 
ATOM     19  C   UNL     1      46.069   6.181  11.739  0.00  0.00    +0.000 A 
ATOM     20  C   UNL     1      45.037   5.368  11.288  0.00  0.00    +0.000 A 
ATOM     21  C   UNL     1      44.799   4.155  11.935  0.00  0.00    +0.000 A 
ATOM     22  N   UNL     1      45.521   3.738  13.003  0.00  0.00    +0.000 NA
ATOM     23  C   UNL     1      46.511   4.549  13.422  0.00  0.00    +0.000 A 
BRANCH  21  24
ATOM     24  C   UNL     1      43.715   3.235  11.444  0.00  0.00    +0.000 C 
BRANCH  24  25
ATOM     25  O   UNL     1      43.770   3.168  10.019  0.00  0.00    +0.000 OA
BRANCH  25  26
ATOM     26  C   UNL     1      44.613   2.106   9.595  0.00  0.00    +0.000 C 
BRANCH  26  27
ATOM     27  C   UNL     1      45.492   2.666   8.550  0.00  0.00    +0.000 A 
ATOM     28  C   UNL     1      45.606   3.931   8.016  0.00  0.00    +0.000 A 
ATOM     29  N   UNL     1      46.579   3.969   7.050  0.00  0.00    +0.000 NA
ATOM     30  C   UNL     1      47.061   2.750   6.995  0.00  0.00    +0.000 A 
ATOM     31  N   UNL     1      46.432   1.924   7.879  0.00  0.00    +0.000 N 
ATOM     32  H   UNL     1      46.630   0.946   8.048  0.00  0.00    +0.000 HD
ENDBRANCH  26  27
ENDBRANCH  25  26
ENDBRANCH  24  25
ENDBRANCH  21  24
ENDBRANCH  17  18
ENDBRANCH   1  17
TORSDOF 9
ENDMDL
MODEL 7
REMARK VINA RESULT:    -6.464      3.153      3.931
REMARK INTER + INTRA:         -10.922
REMARK INTER:                  -9.870
REMARK INTRA:                  -1.052
REMARK UNBOUND:                -1.057
REMARK  Name = 
REMARK  10 active torsions:
REMARK  status: ('A' for Active; 'I' for Inactive)
REMARK    1  A    between atoms: C_1  and  C_2
REMARK    2  A    between atoms: C_2  and  C_3
REMARK    3  A    between atoms: C_3  and  N_4
REMARK    4  A    between atoms: C_3  and  C_20
REMARK    5  A    between atoms: N_4  and  C_5
REMARK    6  A    between atoms: C_5  and  C_6
REMARK    7  A    between atoms: C_9  and  C_10
REMARK    8  A    between atoms: C_10  and  O_11
REMARK    9  A    between atoms: O_11  and  C_12
REMARK   10  A    between atoms: C_12  and  C_13
REMARK                            x       y       z     vdW  Elec       q    Type
REMARK                         _______ _______ _______ _____ _____    ______ ____
ROOT
ATOM      1  N   UNL     1      48.844   6.588  13.300  0.00  0.00    +0.000 NA
ATOM      2  H   UNL     1      49.666   6.036  13.543  0.00  0.00    +0.000 HD
ENDROOT
BRANCH   1   3
ATOM      3  C   UNL     1      49.144   7.990  13.638  0.00  0.00    +0.000 C 
BRANCH   3   4
ATOM      4  C   UNL     1      50.644   8.036  13.949  0.00  0.00    +0.000 A 
ATOM      5  C   UNL     1      51.617   8.544  13.097  0.00  0.00    +0.000 A 
ATOM      6  S   UNL     1      53.196   8.471  13.742  0.00  0.00    +0.000 S 
ATOM      7  C   UNL     1      52.630   7.787  15.196  0.00  0.00    +0.000 A 
ATOM      8  N   UNL     1      53.483   7.490  16.210  0.00  0.00    +0.000 NA
ATOM      9  C   UNL     1      52.907   6.996  17.262  0.00  0.00    +0.000 A 
ATOM     10  N   UNL     1      51.561   6.775  17.384  0.00  0.00    +0.000 N 
ATOM     11  C   UNL     1      50.657   7.058  16.382  0.00  0.00    +0.000 A 
ATOM     12  O   UNL     1      49.457   6.857  16.523  0.00  0.00    +0.000 OA
ATOM     13  C   UNL     1      51.262   7.610  15.182  0.00  0.00    +0.000 A 
ATOM     14  H   UNL     1      51.176   6.392  18.232  0.00  0.00    +0.000 HD
ENDBRANCH   3   4
BRANCH   3  16
ATOM     15  C   UNL     1      47.370   9.431  12.325  0.00  0.00    +0.000 C 
ATOM     16  C   UNL     1      48.829   9.059  12.554  0.00  0.00    +0.000 C 
ENDBRANCH   3  16
ENDBRANCH   1   3
BRANCH   1  17
ATOM     17  C   UNL     1      47.701   6.037  14.009  0.00  0.00    +0.000 C 
BRANCH  17  18
ATOM     18  C   UNL     1      46.715   5.379  13.091  0.00  0.00    +0.000 A 
ATOM     19  C   UNL     1      46.257   5.996  11.930  0.00  0.00    +0.000 A 
ATOM     20  C   UNL     1      45.393   5.303  11.092  0.00  0.00    +0.000 A 
ATOM     21  C   UNL     1      45.016   4.004  11.433  0.00  0.00    +0.000 A 
ATOM     22  N   UNL     1      45.441   3.388  12.562  0.00  0.00    +0.000 NA
ATOM     23  C   UNL     1      46.273   4.085  13.358  0.00  0.00    +0.000 A 
BRANCH  21  24
ATOM     24  C   UNL     1      44.114   3.214  10.524  0.00  0.00    +0.000 C 
BRANCH  24  25
ATOM     25  O   UNL     1      44.915   2.446   9.625  0.00  0.00    +0.000 OA
BRANCH  25  26
ATOM     26  C   UNL     1      44.994   3.076   8.355  0.00  0.00    +0.000 C 
BRANCH  26  27
ATOM     27  C   UNL     1      46.225   2.571   7.717  0.00  0.00    +0.000 A 
ATOM     28  C   UNL     1      46.786   1.314   7.652  0.00  0.00    +0.000 A 
ATOM     29  N   UNL     1      47.957   1.336   6.938  0.00  0.00    +0.000 NA
ATOM     30  C   UNL     1      48.112   2.585   6.564  0.00  0.00    +0.000 A 
ATOM     31  N   UNL     1      47.092   3.371   7.015  0.00  0.00    +0.000 N 
ATOM     32  H   UNL     1      46.965   4.361   6.846  0.00  0.00    +0.000 HD
ENDBRANCH  26  27
ENDBRANCH  25  26
ENDBRANCH  24  25
ENDBRANCH  21  24
ENDBRANCH  17  18
ENDBRANCH   1  17
TORSDOF 9
ENDMDL
MODEL 8
REMARK VINA RESULT:    -6.309      3.996      8.068
REMARK INTER + INTRA:         -10.685
REMARK INTER:                  -8.377
REMARK INTRA:                  -2.308
REMARK UNBOUND:                -1.057
REMARK  Name = 
REMARK  10 active torsions:
REMARK  status: ('A' for Active; 'I' for Inactive)
REMARK    1  A    between atoms: C_1  and  C_2
REMARK    2  A    between atoms: C_2  and  C_3
REMARK    3  A    between atoms: C_3  and  N_4
REMARK    4  A    between atoms: C_3  and  C_20
REMARK    5  A    between atoms: N_4  and  C_5
REMARK    6  A    between atoms: C_5  and  C_6
REMARK    7  A    between atoms: C_9  and  C_10
REMARK    8  A    between atoms: C_10  and  O_11
REMARK    9  A    between atoms: O_11  and  C_12
REMARK   10  A    between atoms: C_12  and  C_13
REMARK                            x       y       z     vdW  Elec       q    Type
REMARK                         _______ _______ _______ _____ _____    ______ ____
ROOT
ATOM      1  N   UNL     1      47.213   8.723  14.622  0.00  0.00    +0.000 NA
ATOM      2  H   UNL     1      46.904   7.859  15.068  0.00  0.00    +0.000 HD
ENDROOT
BRANCH   1   3
ATOM      3  C   UNL     1      47.575   8.392  13.233  0.00  0.00    +0.000 C 
BRANCH   3   4
ATOM      4  C   UNL     1      46.434   7.519  12.699  0.00  0.00    +0.000 A 
ATOM      5  C   UNL     1      45.406   7.968  11.879  0.00  0.00    +0.000 A 
ATOM      6  S   UNL     1      44.300   6.745  11.438  0.00  0.00    +0.000 S 
ATOM      7  C   UNL     1      45.174   5.565  12.300  0.00  0.00    +0.000 A 
ATOM      8  N   UNL     1      44.773   4.268  12.320  0.00  0.00    +0.000 NA
ATOM      9  C   UNL     1      45.548   3.480  12.999  0.00  0.00    +0.000 A 
ATOM     10  N   UNL     1      46.682   3.878  13.656  0.00  0.00    +0.000 N 
ATOM     11  C   UNL     1      47.128   5.184  13.668  0.00  0.00    +0.000 A 
ATOM     12  O   UNL     1      48.151   5.508  14.259  0.00  0.00    +0.000 OA
ATOM     13  C   UNL     1      46.285   6.100  12.921  0.00  0.00    +0.000 A 
ATOM     14  H   UNL     1      47.244   3.214  14.163  0.00  0.00    +0.000 HD
ENDBRANCH   3   4
BRANCH   3  16
ATOM     15  C   UNL     1      49.104   9.656  11.498  0.00  0.00    +0.000 C 
ATOM     16  C   UNL     1      47.785   9.584  12.258  0.00  0.00    +0.000 C 
ENDBRANCH   3  16
ENDBRANCH   1   3
BRANCH   1  17
ATOM     17  C   UNL     1      48.307   9.273  15.406  0.00  0.00    +0.000 C 
BRANCH  17  18
ATOM     18  C   UNL     1      49.253   8.219  15.895  0.00  0.00    +0.000 A 
ATOM     19  C   UNL     1      50.474   7.972  15.273  0.00  0.00    +0.000 A 
ATOM     20  C   UNL     1      51.331   7.024  15.816  0.00  0.00    +0.000 A 
ATOM     21  C   UNL     1      50.949   6.352  16.977  0.00  0.00    +0.000 A 
ATOM     22  N   UNL     1      49.762   6.568  17.594  0.00  0.00    +0.000 NA
ATOM     23  C   UNL     1      48.949   7.488  17.042  0.00  0.00    +0.000 A 
BRANCH  21  24
ATOM     24  C   UNL     1      51.874   5.350  17.612  0.00  0.00    +0.000 C 
BRANCH  24  25
ATOM     25  O   UNL     1      51.114   4.483  18.455  0.00  0.00    +0.000 OA
BRANCH  25  26
ATOM     26  C   UNL     1      50.877   3.237  17.816  0.00  0.00    +0.000 C 
BRANCH  26  27
ATOM     27  C   UNL     1      49.447   3.222  17.453  0.00  0.00    +0.000 A 
ATOM     28  C   UNL     1      48.749   2.562  16.464  0.00  0.00    +0.000 A 
ATOM     29  N   UNL     1      47.414   2.869  16.520  0.00  0.00    +0.000 NA
ATOM     30  C   UNL     1      47.290   3.699  17.529  0.00  0.00    +0.000 A 
ATOM     31  N   UNL     1      48.493   3.947  18.122  0.00  0.00    +0.000 N 
ATOM     32  H   UNL     1      48.666   4.532  18.930  0.00  0.00    +0.000 HD
ENDBRANCH  26  27
ENDBRANCH  25  26
ENDBRANCH  24  25
ENDBRANCH  21  24
ENDBRANCH  17  18
ENDBRANCH   1  17
TORSDOF 9
ENDMDL
MODEL 9
REMARK VINA RESULT:    -6.217      1.795      2.298
REMARK INTER + INTRA:         -10.546
REMARK INTER:                 -10.281
REMARK INTRA:                  -0.264
REMARK UNBOUND:                -1.057
REMARK  Name = 
REMARK  10 active torsions:
REMARK  status: ('A' for Active; 'I' for Inactive)
REMARK    1  A    between atoms: C_1  and  C_2
REMARK    2  A    between atoms: C_2  and  C_3
REMARK    3  A    between atoms: C_3  and  N_4
REMARK    4  A    between atoms: C_3  and  C_20
REMARK    5  A    between atoms: N_4  and  C_5
REMARK    6  A    between atoms: C_5  and  C_6
REMARK    7  A    between atoms: C_9  and  C_10
REMARK    8  A    between atoms: C_10  and  O_11
REMARK    9  A    between atoms: O_11  and  C_12
REMARK   10  A    between atoms: C_12  and  C_13
REMARK                            x       y       z     vdW  Elec       q    Type
REMARK                         _______ _______ _______ _____ _____    ______ ____
ROOT
ATOM      1  N   UNL     1      48.221   6.945  16.744  0.00  0.00    +0.000 NA
ATOM      2  H   UNL     1      48.730   7.731  17.149  0.00  0.00    +0.000 HD
ENDROOT
BRANCH   1   3
ATOM      3  C   UNL     1      48.081   5.926  17.799  0.00  0.00    +0.000 C 
BRANCH   3   4
ATOM      4  C   UNL     1      49.482   5.338  18.003  0.00  0.00    +0.000 A 
ATOM      5  C   UNL     1      50.544   6.003  18.604  0.00  0.00    +0.000 A 
ATOM      6  S   UNL     1      51.969   5.069  18.700  0.00  0.00    +0.000 S 
ATOM      7  C   UNL     1      51.208   3.731  17.972  0.00  0.00    +0.000 A 
ATOM      8  N   UNL     1      51.877   2.566  17.771  0.00  0.00    +0.000 NA
ATOM      9  C   UNL     1      51.164   1.629  17.227  0.00  0.00    +0.000 A 
ATOM     10  N   UNL     1      49.849   1.758  16.868  0.00  0.00    +0.000 N 
ATOM     11  C   UNL     1      49.128   2.921  17.048  0.00  0.00    +0.000 A 
ATOM     12  O   UNL     1      47.950   3.004  16.725  0.00  0.00    +0.000 OA
ATOM     13  C   UNL     1      49.892   3.999  17.653  0.00  0.00    +0.000 A 
ATOM     14  H   UNL     1      49.350   0.989  16.453  0.00  0.00    +0.000 HD
ENDBRANCH   3   4
BRANCH   3  16
ATOM     15  C   UNL     1      47.466   7.907  19.425  0.00  0.00    +0.000 C 
ATOM     16  C   UNL     1      47.540   6.406  19.175  0.00  0.00    +0.000 C 
ENDBRANCH   3  16
ENDBRANCH   1   3
BRANCH   1  17
ATOM     17  C   UNL     1      48.948   6.489  15.571  0.00  0.00    +0.000 C 
BRANCH  17  18
ATOM     18  C   UNL     1      48.081   6.408  14.351  0.00  0.00    +0.000 A 
ATOM     19  C   UNL     1      48.106   7.382  13.357  0.00  0.00    +0.000 A 
ATOM     20  C   UNL     1      47.323   7.212  12.222  0.00  0.00    +0.000 A 
ATOM     21  C   UNL     1      46.540   6.064  12.106  0.00  0.00    +0.000 A 
ATOM     22  N   UNL     1      46.493   5.107  13.065  0.00  0.00    +0.000 NA
ATOM     23  C   UNL     1      47.257   5.301  14.156  0.00  0.00    +0.000 A 
BRANCH  21  24
ATOM     24  C   UNL     1      45.714   5.832  10.871  0.00  0.00    +0.000 C 
BRANCH  24  25
ATOM     25  O   UNL     1      44.350   6.142  11.157  0.00  0.00    +0.000 OA
BRANCH  25  26
ATOM     26  C   UNL     1      43.546   4.971  11.113  0.00  0.00    +0.000 C 
BRANCH  26  27
ATOM     27  C   UNL     1      44.135   4.103  10.076  0.00  0.00    +0.000 A 
ATOM     28  C   UNL     1      44.780   2.886  10.143  0.00  0.00    +0.000 A 
ATOM     29  N   UNL     1      45.158   2.463   8.894  0.00  0.00    +0.000 NA
ATOM     30  C   UNL     1      44.748   3.399   8.071  0.00  0.00    +0.000 A 
ATOM     31  N   UNL     1      44.128   4.414   8.739  0.00  0.00    +0.000 N 
ATOM     32  H   UNL     1      43.704   5.240   8.336  0.00  0.00    +0.000 HD
ENDBRANCH  26  27
ENDBRANCH  25  26
ENDBRANCH  24  25
ENDBRANCH  21  24
ENDBRANCH  17  18
ENDBRANCH   1  17
TORSDOF 9
ENDMDL
