MODEL 1
REMARK VINA RESULT:    -7.086      0.000      0.000
REMARK INTER + INTRA:          -9.220
REMARK INTER:                  -8.743
REMARK INTRA:                  -0.477
REMARK UNBOUND:                -0.477
REMARK  Name = 
REMARK  5 active torsions:
REMARK  status: ('A' for Active; 'I' for Inactive)
REMARK    1  A    between atoms: C_1  and  C_2
REMARK    2  A    between atoms: C_2  and  C_3
REMARK    3  A    between atoms: C_2  and  C_15
REMARK    4  A    between atoms: C_3  and  N_4
REMARK    5  A    between atoms: C_8  and  C_9
REMARK                            x       y       z     vdW  Elec       q    Type
REMARK                         _______ _______ _______ _____ _____    ______ ____
ROOT
ATOM      1  N   UNL     1      44.949   5.843  10.251  0.00  0.00    +0.000 N 
ATOM      2  C   UNL     1      45.682   6.589  11.179  0.00  0.00    +0.000 A 
ATOM      3  C   UNL     1      45.004   7.223  12.216  0.00  0.00    +0.000 A 
ATOM      4  C   UNL     1      45.723   7.974  13.147  0.00  0.00    +0.000 A 
ATOM      5  C   UNL     1      47.111   8.073  13.035  0.00  0.00    +0.000 A 
ATOM      6  C   UNL     1      47.695   7.439  11.952  0.00  0.00    +0.000 A 
ATOM      7 CL   UNL     1      49.376   7.482  11.568  0.00  0.00    +0.000 Cl
ATOM      8  N   UNL     1      47.014   6.710  11.039  0.00  0.00    +0.000 NA
ATOM      9  H   UNL     1      44.394   5.147  10.743  0.00  0.00    +0.000 HD
ENDROOT
BRANCH   5  10
ATOM     10  C   UNL     1      47.837   8.851  14.060  0.00  0.00    +0.000 C 
ATOM     11  N   UNL     1      47.907   8.354  15.329  0.00  0.00    +0.000 N 
ATOM     12  O   UNL     1      48.324   9.943  13.790  0.00  0.00    +0.000 OA
ATOM     13  H   UNL     1      47.566   7.439  15.596  0.00  0.00    +0.000 HD
ATOM     14  H   UNL     1      48.438   8.878  16.012  0.00  0.00    +0.000 HD
ENDBRANCH   5  10
BRANCH   1  15
ATOM     15  C   UNL     1      45.771   5.224   9.216  0.00  0.00    +0.000 C 
BRANCH  15  17
ATOM     16  C   UNL     1      44.183   3.328   9.908  0.00  0.00    +0.000 C 
ATOM     17  C   UNL     1      45.179   3.876   8.934  0.00  0.00    +0.000 C 
BRANCH  17  18
ATOM     18  C   UNL     1      45.902   2.968   8.033  0.00  0.00    +0.000 A 
ATOM     19  C   UNL     1      46.472   3.432   6.842  0.00  0.00    +0.000 A 
ATOM     20  C   UNL     1      47.196   2.564   6.020  0.00  0.00    +0.000 A 
ATOM     21  C   UNL     1      47.360   1.228   6.387  0.00  0.00    +0.000 A 
ATOM     22  C   UNL     1      46.794   0.758   7.568  0.00  0.00    +0.000 A 
ATOM     23  C   UNL     1      46.063   1.622   8.382  0.00  0.00    +0.000 A 
ENDBRANCH  17  18
ENDBRANCH  15  17
ENDBRANCH   1  15
TORSDOF 4
ENDMDL
MODEL 2
REMARK VINA RESULT:    -7.073      1.777      2.079
REMARK INTER + INTRA:          -9.204
REMARK INTER:                  -8.690
REMARK INTRA:                  -0.514
REMARK UNBOUND:                -0.477
REMARK  Name = 
REMARK  5 active torsions:
REMARK  status: ('A' for Active; 'I' for Inactive)
REMARK    1  A    between atoms: C_1  and  C_2
REMARK    2  A    between atoms: C_2  and  C_3
REMARK    3  A    between atoms: C_2  and  C_15
REMARK    4  A    between atoms: C_3  and  N_4
REMARK    5  A    between atoms: C_8  and  C_9
REMARK                            x       y       z     vdW  Elec       q    Type
REMARK                         _______ _______ _______ _____ _____    ______ ____
ROOT
ATOM      1  N   UNL     1      44.782   3.952  11.345  0.00  0.00    +0.000 N 
ATOM      2  C   UNL     1      45.661   4.702  12.132  0.00  0.00    +0.000 A 
ATOM      3  C   UNL     1      45.701   4.467  13.503  0.00  0.00    +0.000 A 
ATOM      4  C   UNL     1      46.571   5.212  14.302  0.00  0.00    +0.000 A 
ATOM      5  C   UNL     1      47.396   6.174  13.717  0.00  0.00    +0.000 A 
ATOM      6  C   UNL     1      47.262   6.365  12.353  0.00  0.00    +0.000 A 
ATOM      7 CL   UNL     1      48.118   7.541  11.428  0.00  0.00    +0.000 Cl
ATOM      8  N   UNL     1      46.422   5.655  11.565  0.00  0.00    +0.000 NA
ATOM      9  H   UNL     1      44.960   2.961  11.494  0.00  0.00    +0.000 HD
ENDROOT
BRANCH   5  10
ATOM     10  C   UNL     1      48.325   6.917  14.593  0.00  0.00    +0.000 C 
ATOM     11  N   UNL     1      47.945   8.142  15.060  0.00  0.00    +0.000 N 
ATOM     12  O   UNL     1      49.434   6.467  14.856  0.00  0.00    +0.000 OA
ATOM     13  H   UNL     1      47.025   8.540  14.914  0.00  0.00    +0.000 HD
ATOM     14  H   UNL     1      48.575   8.624  15.687  0.00  0.00    +0.000 HD
ENDBRANCH   5  10
BRANCH   1  15
ATOM     15  C   UNL     1      44.835   4.287   9.926  0.00  0.00    +0.000 C 
BRANCH  15  17
ATOM     16  C   UNL     1      44.018   1.857   9.782  0.00  0.00    +0.000 C 
ATOM     17  C   UNL     1      44.771   2.995   9.168  0.00  0.00    +0.000 C 
BRANCH  17  18
ATOM     18  C   UNL     1      45.788   2.733   8.142  0.00  0.00    +0.000 A 
ATOM     19  C   UNL     1      46.416   1.484   8.046  0.00  0.00    +0.000 A 
ATOM     20  C   UNL     1      47.348   1.239   7.035  0.00  0.00    +0.000 A 
ATOM     21  C   UNL     1      47.654   2.235   6.108  0.00  0.00    +0.000 A 
ATOM     22  C   UNL     1      47.037   3.479   6.197  0.00  0.00    +0.000 A 
ATOM     23  C   UNL     1      46.116   3.728   7.213  0.00  0.00    +0.000 A 
ENDBRANCH  17  18
ENDBRANCH  15  17
ENDBRANCH   1  15
TORSDOF 4
ENDMDL
MODEL 3
REMARK VINA RESULT:    -6.718      5.413      7.987
REMARK INTER + INTRA:          -8.765
REMARK INTER:                  -8.346
REMARK INTRA:                  -0.420
REMARK UNBOUND:                -0.477
REMARK  Name = 
REMARK  5 active torsions:
REMARK  status: ('A' for Active; 'I' for Inactive)
REMARK    1  A    between atoms: C_1  and  C_2
REMARK    2  A    between atoms: C_2  and  C_3
REMARK    3  A    between atoms: C_2  and  C_15
REMARK    4  A    between atoms: C_3  and  N_4
REMARK    5  A    between atoms: C_8  and  C_9
REMARK                            x       y       z     vdW  Elec       q    Type
REMARK                         _______ _______ _______ _____ _____    ______ ____
ROOT
ATOM      1  N   UNL     1      47.431   5.091  15.186  0.00  0.00    +0.000 N 
ATOM      2  C   UNL     1      46.692   5.065  13.999  0.00  0.00    +0.000 A 
ATOM      3  C   UNL     1      46.938   6.037  13.034  0.00  0.00    +0.000 A 
ATOM      4  C   UNL     1      46.204   6.024  11.846  0.00  0.00    +0.000 A 
ATOM      5  C   UNL     1      45.242   5.035  11.636  0.00  0.00    +0.000 A 
ATOM      6  C   UNL     1      45.041   4.132  12.665  0.00  0.00    +0.000 A 
ATOM      7 CL   UNL     1      43.863   2.873  12.663  0.00  0.00    +0.000 Cl
ATOM      8  N   UNL     1      45.740   4.132  13.823  0.00  0.00    +0.000 NA
ATOM      9  H   UNL     1      48.423   5.078  14.964  0.00  0.00    +0.000 HD
ENDROOT
BRANCH   5  10
ATOM     10  C   UNL     1      44.511   5.039  10.352  0.00  0.00    +0.000 C 
ATOM     11  N   UNL     1      45.228   4.995   9.191  0.00  0.00    +0.000 N 
ATOM     12  O   UNL     1      43.289   5.129  10.326  0.00  0.00    +0.000 OA
ATOM     13  H   UNL     1      46.233   4.872   9.154  0.00  0.00    +0.000 HD
ATOM     14  H   UNL     1      44.715   4.961   8.321  0.00  0.00    +0.000 HD
ENDBRANCH   5  10
BRANCH   1  15
ATOM     15  C   UNL     1      47.085   4.021  16.115  0.00  0.00    +0.000 C 
BRANCH  15  17
ATOM     16  C   UNL     1      47.509   5.405  18.236  0.00  0.00    +0.000 C 
ATOM     17  C   UNL     1      47.885   4.249  17.363  0.00  0.00    +0.000 C 
BRANCH  17  18
ATOM     18  C   UNL     1      49.234   3.674  17.446  0.00  0.00    +0.000 A 
ATOM     19  C   UNL     1      50.313   4.424  17.931  0.00  0.00    +0.000 A 
ATOM     20  C   UNL     1      51.580   3.846  18.045  0.00  0.00    +0.000 A 
ATOM     21  C   UNL     1      51.776   2.513  17.685  0.00  0.00    +0.000 A 
ATOM     22  C   UNL     1      50.710   1.762  17.200  0.00  0.00    +0.000 A 
ATOM     23  C   UNL     1      49.448   2.342  17.074  0.00  0.00    +0.000 A 
ENDBRANCH  17  18
ENDBRANCH  15  17
ENDBRANCH   1  15
TORSDOF 4
ENDMDL
MODEL 4
REMARK VINA RESULT:    -6.578      3.464      4.098
REMARK INTER + INTRA:          -8.593
REMARK INTER:                  -8.141
REMARK INTRA:                  -0.452
REMARK UNBOUND:                -0.477
REMARK  Name = 
REMARK  5 active torsions:
REMARK  status: ('A' for Active; 'I' for Inactive)
REMARK    1  A    between atoms: C_1  and  C_2
REMARK    2  A    between atoms: C_2  and  C_3
REMARK    3  A    between atoms: C_2  and  C_15
REMARK    4  A    between atoms: C_3  and  N_4
REMARK    5  A    between atoms: C_8  and  C_9
REMARK                            x       y       z     vdW  Elec       q    Type
REMARK                         _______ _______ _______ _____ _____    ______ ____
ROOT
ATOM      1  N   UNL     1      46.168   5.412  12.757  0.00  0.00    +0.000 N 
ATOM      2  C   UNL     1      46.932   5.431  13.929  0.00  0.00    +0.000 A 
ATOM      3  C   UNL     1      47.902   6.417  14.081  0.00  0.00    +0.000 A 
ATOM      4  C   UNL     1      48.675   6.445  15.244  0.00  0.00    +0.000 A 
ATOM      5  C   UNL     1      48.459   5.494  16.242  0.00  0.00    +0.000 A 
ATOM      6  C   UNL     1      47.497   4.531  15.989  0.00  0.00    +0.000 A 
ATOM      7 CL   UNL     1      47.108   3.219  17.038  0.00  0.00    +0.000 Cl
ATOM      8  N   UNL     1      46.743   4.487  14.867  0.00  0.00    +0.000 NA
ATOM      9  H   UNL     1      45.726   6.319  12.630  0.00  0.00    +0.000 HD
ENDROOT
BRANCH   5  10
ATOM     10  C   UNL     1      49.275   5.579  17.471  0.00  0.00    +0.000 C 
ATOM     11  N   UNL     1      50.530   5.044  17.461  0.00  0.00    +0.000 N 
ATOM     12  O   UNL     1      48.818   6.076  18.494  0.00  0.00    +0.000 OA
ATOM     13  H   UNL     1      50.975   4.666  16.633  0.00  0.00    +0.000 HD
ATOM     14  H   UNL     1      51.091   5.142  18.296  0.00  0.00    +0.000 HD
ENDBRANCH   5  10
BRANCH   1  15
ATOM     15  C   UNL     1      45.183   4.336  12.718  0.00  0.00    +0.000 C 
BRANCH  15  17
ATOM     16  C   UNL     1      42.938   4.805  11.562  0.00  0.00    +0.000 C 
ATOM     17  C   UNL     1      44.400   4.506  11.450  0.00  0.00    +0.000 C 
BRANCH  17  18
ATOM     18  C   UNL     1      44.939   3.928  10.212  0.00  0.00    +0.000 A 
ATOM     19  C   UNL     1      44.910   2.546   9.984  0.00  0.00    +0.000 A 
ATOM     20  C   UNL     1      45.385   2.018   8.781  0.00  0.00    +0.000 A 
ATOM     21  C   UNL     1      45.885   2.867   7.794  0.00  0.00    +0.000 A 
ATOM     22  C   UNL     1      45.920   4.241   8.013  0.00  0.00    +0.000 A 
ATOM     23  C   UNL     1      45.457   4.767   9.218  0.00  0.00    +0.000 A 
ENDBRANCH  17  18
ENDBRANCH  15  17
ENDBRANCH   1  15
TORSDOF 4
ENDMDL
MODEL 5
REMARK VINA RESULT:    -6.279      5.292      8.820
REMARK INTER + INTRA:          -8.224
REMARK INTER:                  -7.929
REMARK INTRA:                  -0.295
REMARK UNBOUND:                -0.477
REMARK  Name = 
REMARK  5 active torsions:
REMARK  status: ('A' for Active; 'I' for Inactive)
REMARK    1  A    between atoms: C_1  and  C_2
REMARK    2  A    between atoms: C_2  and  C_3
REMARK    3  A    between atoms: C_2  and  C_15
REMARK    4  A    between atoms: C_3  and  N_4
REMARK    5  A    between atoms: C_8  and  C_9
REMARK                            x       y       z     vdW  Elec       q    Type
REMARK                         _______ _______ _______ _____ _____    ______ ____
ROOT
ATOM      1  N   UNL     1      47.442   5.099  15.189  0.00  0.00    +0.000 N 
ATOM      2  C   UNL     1      46.706   5.071  13.999  0.00  0.00    +0.000 A 
ATOM      3  C   UNL     1      47.006   5.996  13.004  0.00  0.00    +0.000 A 
ATOM      4  C   UNL     1      46.277   5.982  11.813  0.00  0.00    +0.000 A 
ATOM      5  C   UNL     1      45.266   5.037  11.631  0.00  0.00    +0.000 A 
ATOM      6  C   UNL     1      45.015   4.181  12.688  0.00  0.00    +0.000 A 
ATOM      7 CL   UNL     1      43.773   2.985  12.721  0.00  0.00    +0.000 Cl
ATOM      8  N   UNL     1      45.708   4.183  13.849  0.00  0.00    +0.000 NA
ATOM      9  H   UNL     1      48.433   5.027  14.972  0.00  0.00    +0.000 HD
ENDROOT
BRANCH   5  10
ATOM     10  C   UNL     1      44.541   5.036  10.343  0.00  0.00    +0.000 C 
ATOM     11  N   UNL     1      45.264   5.066   9.186  0.00  0.00    +0.000 N 
ATOM     12  O   UNL     1      43.316   5.057  10.313  0.00  0.00    +0.000 OA
ATOM     13  H   UNL     1      46.274   5.001   9.151  0.00  0.00    +0.000 HD
ATOM     14  H   UNL     1      44.757   5.027   8.312  0.00  0.00    +0.000 HD
ENDBRANCH   5  10
BRANCH   1  15
ATOM     15  C   UNL     1      47.038   4.080  16.151  0.00  0.00    +0.000 C 
BRANCH  15  17
ATOM     16  C   UNL     1      49.100   2.740  16.890  0.00  0.00    +0.000 C 
ATOM     17  C   UNL     1      48.181   3.901  17.105  0.00  0.00    +0.000 C 
BRANCH  17  18
ATOM     18  C   UNL     1      48.095   4.535  18.427  0.00  0.00    +0.000 A 
ATOM     19  C   UNL     1      48.772   4.002  19.532  0.00  0.00    +0.000 A 
ATOM     20  C   UNL     1      48.717   4.644  20.771  0.00  0.00    +0.000 A 
ATOM     21  C   UNL     1      47.993   5.827  20.914  0.00  0.00    +0.000 A 
ATOM     22  C   UNL     1      47.315   6.362  19.823  0.00  0.00    +0.000 A 
ATOM     23  C   UNL     1      47.360   5.715  18.589  0.00  0.00    +0.000 A 
ENDBRANCH  17  18
ENDBRANCH  15  17
ENDBRANCH   1  15
TORSDOF 4
ENDMDL
MODEL 6
REMARK VINA RESULT:    -6.265      2.122      2.744
REMARK INTER + INTRA:          -8.207
REMARK INTER:                  -7.899
REMARK INTRA:                  -0.308
REMARK UNBOUND:                -0.477
REMARK  Name = 
REMARK  5 active torsions:
REMARK  status: ('A' for Active; 'I' for Inactive)
REMARK    1  A    between atoms: C_1  and  C_2
REMARK    2  A    between atoms: C_2  and  C_3
REMARK    3  A    between atoms: C_2  and  C_15
REMARK    4  A    between atoms: C_3  and  N_4
REMARK    5  A    between atoms: C_8  and  C_9
REMARK                            x       y       z     vdW  Elec       q    Type
REMARK                         _______ _______ _______ _____ _____    ______ ____
ROOT
ATOM      1  N   UNL     1      46.383   6.335  11.334  0.00  0.00    +0.000 N 
ATOM      2  C   UNL     1      47.382   6.736  12.228  0.00  0.00    +0.000 A 
ATOM      3  C   UNL     1      48.310   7.687  11.814  0.00  0.00    +0.000 A 
ATOM      4  C   UNL     1      49.315   8.092  12.694  0.00  0.00    +0.000 A 
ATOM      5  C   UNL     1      49.371   7.550  13.979  0.00  0.00    +0.000 A 
ATOM      6  C   UNL     1      48.428   6.586  14.290  0.00  0.00    +0.000 A 
ATOM      7 CL   UNL     1      48.345   5.727  15.783  0.00  0.00    +0.000 Cl
ATOM      8  N   UNL     1      47.451   6.178  13.448  0.00  0.00    +0.000 NA
ATOM      9  H   UNL     1      45.878   7.155  11.006  0.00  0.00    +0.000 HD
ENDROOT
BRANCH   5  10
ATOM     10  C   UNL     1      50.429   8.031  14.890  0.00  0.00    +0.000 C 
ATOM     11  N   UNL     1      51.689   7.523  14.755  0.00  0.00    +0.000 N 
ATOM     12  O   UNL     1      50.173   8.832  15.782  0.00  0.00    +0.000 OA
ATOM     13  H   UNL     1      51.967   6.898  14.008  0.00  0.00    +0.000 HD
ATOM     14  H   UNL     1      52.412   7.888  15.361  0.00  0.00    +0.000 HD
ENDBRANCH   5  10
BRANCH   1  15
ATOM     15  C   UNL     1      45.470   5.340  11.884  0.00  0.00    +0.000 C 
BRANCH  15  17
ATOM     16  C   UNL     1      43.073   4.973  11.037  0.00  0.00    +0.000 C 
ATOM     17  C   UNL     1      44.546   4.932  10.775  0.00  0.00    +0.000 C 
BRANCH  17  18
ATOM     18  C   UNL     1      45.077   4.090   9.695  0.00  0.00    +0.000 A 
ATOM     19  C   UNL     1      45.750   4.651   8.603  0.00  0.00    +0.000 A 
ATOM     20  C   UNL     1      46.289   3.832   7.608  0.00  0.00    +0.000 A 
ATOM     21  C   UNL     1      46.166   2.446   7.702  0.00  0.00    +0.000 A 
ATOM     22  C   UNL     1      45.496   1.880   8.782  0.00  0.00    +0.000 A 
ATOM     23  C   UNL     1      44.949   2.698   9.769  0.00  0.00    +0.000 A 
ENDBRANCH  17  18
ENDBRANCH  15  17
ENDBRANCH   1  15
TORSDOF 4
ENDMDL
MODEL 7
REMARK VINA RESULT:    -6.152      3.669      4.310
REMARK INTER + INTRA:          -8.067
REMARK INTER:                  -7.623
REMARK INTRA:                  -0.444
REMARK UNBOUND:                -0.477
REMARK  Name = 
REMARK  5 active torsions:
REMARK  status: ('A' for Active; 'I' for Inactive)
REMARK    1  A    between atoms: C_1  and  C_2
REMARK    2  A    between atoms: C_2  and  C_3
REMARK    3  A    between atoms: C_2  and  C_15
REMARK    4  A    between atoms: C_3  and  N_4
REMARK    5  A    between atoms: C_8  and  C_9
REMARK                            x       y       z     vdW  Elec       q    Type
REMARK                         _______ _______ _______ _____ _____    ______ ____
ROOT
ATOM      1  N   UNL     1      46.075   4.156  13.937  0.00  0.00    +0.000 N 
ATOM      2  C   UNL     1      47.013   4.521  14.908  0.00  0.00    +0.000 A 
ATOM      3  C   UNL     1      47.149   3.725  16.042  0.00  0.00    +0.000 A 
ATOM      4  C   UNL     1      48.079   4.080  17.021  0.00  0.00    +0.000 A 
ATOM      5  C   UNL     1      48.866   5.219  16.849  0.00  0.00    +0.000 A 
ATOM      6  C   UNL     1      48.637   5.968  15.708  0.00  0.00    +0.000 A 
ATOM      7 CL   UNL     1      49.434   7.446  15.318  0.00  0.00    +0.000 Cl
ATOM      8  N   UNL     1      47.739   5.641  14.752  0.00  0.00    +0.000 NA
ATOM      9  H   UNL     1      46.256   3.201  13.638  0.00  0.00    +0.000 HD
ENDROOT
BRANCH   5  10
ATOM     10  C   UNL     1      49.861   5.540  17.893  0.00  0.00    +0.000 C 
ATOM     11  N   UNL     1      50.938   4.716  18.046  0.00  0.00    +0.000 N 
ATOM     12  O   UNL     1      49.698   6.498  18.641  0.00  0.00    +0.000 OA
ATOM     13  H   UNL     1      51.147   3.941  17.428  0.00  0.00    +0.000 HD
ATOM     14  H   UNL     1      51.629   4.967  18.740  0.00  0.00    +0.000 HD
ENDBRANCH   5  10
BRANCH   1  15
ATOM     15  C   UNL     1      46.030   5.065  12.796  0.00  0.00    +0.000 C 
BRANCH  15  17
ATOM     16  C   UNL     1      43.513   4.557  12.843  0.00  0.00    +0.000 C 
ATOM     17  C   UNL     1      44.764   4.767  12.049  0.00  0.00    +0.000 C 
BRANCH  17  18
ATOM     18  C   UNL     1      44.865   4.237  10.683  0.00  0.00    +0.000 A 
ATOM     19  C   UNL     1      45.474   4.977   9.662  0.00  0.00    +0.000 A 
ATOM     20  C   UNL     1      45.602   4.438   8.379  0.00  0.00    +0.000 A 
ATOM     21  C   UNL     1      45.131   3.154   8.110  0.00  0.00    +0.000 A 
ATOM     22  C   UNL     1      44.522   2.412   9.118  0.00  0.00    +0.000 A 
ATOM     23  C   UNL     1      44.384   2.955  10.395  0.00  0.00    +0.000 A 
ENDBRANCH  17  18
ENDBRANCH  15  17
ENDBRANCH   1  15
TORSDOF 4
ENDMDL
MODEL 8
REMARK VINA RESULT:    -6.085      1.464      2.046
REMARK INTER + INTRA:          -7.985
REMARK INTER:                  -7.483
REMARK INTRA:                  -0.502
REMARK UNBOUND:                -0.477
REMARK  Name = 
REMARK  5 active torsions:
REMARK  status: ('A' for Active; 'I' for Inactive)
REMARK    1  A    between atoms: C_1  and  C_2
REMARK    2  A    between atoms: C_2  and  C_3
REMARK    3  A    between atoms: C_2  and  C_15
REMARK    4  A    between atoms: C_3  and  N_4
REMARK    5  A    between atoms: C_8  and  C_9
REMARK                            x       y       z     vdW  Elec       q    Type
REMARK                         _______ _______ _______ _____ _____    ______ ____
ROOT
ATOM      1  N   UNL     1      44.864   5.796  12.196  0.00  0.00    +0.000 N 
ATOM      2  C   UNL     1      45.705   6.913  12.241  0.00  0.00    +0.000 A 
ATOM      3  C   UNL     1      45.168   8.143  12.610  0.00  0.00    +0.000 A 
ATOM      4  C   UNL     1      45.996   9.266  12.655  0.00  0.00    +0.000 A 
ATOM      5  C   UNL     1      47.350   9.142  12.341  0.00  0.00    +0.000 A 
ATOM      6  C   UNL     1      47.788   7.888  11.952  0.00  0.00    +0.000 A 
ATOM      7 CL   UNL     1      49.394   7.511  11.451  0.00  0.00    +0.000 Cl
ATOM      8  N   UNL     1      46.999   6.791  11.899  0.00  0.00    +0.000 NA
ATOM      9  H   UNL     1      44.402   5.687  13.096  0.00  0.00    +0.000 HD
ENDROOT
BRANCH   5  10
ATOM     10  C   UNL     1      48.197  10.349  12.433  0.00  0.00    +0.000 C 
ATOM     11  N   UNL     1      48.393  10.919  13.658  0.00  0.00    +0.000 N 
ATOM     12  O   UNL     1      48.676  10.858  11.426  0.00  0.00    +0.000 OA
ATOM     13  H   UNL     1      48.063  10.515  14.526  0.00  0.00    +0.000 HD
ATOM     14  H   UNL     1      49.004  11.722  13.712  0.00  0.00    +0.000 HD
ENDBRANCH   5  10
BRANCH   1  15
ATOM     15  C   UNL     1      45.543   4.567  11.801  0.00  0.00    +0.000 C 
BRANCH  15  17
ATOM     16  C   UNL     1      43.383   3.330  11.169  0.00  0.00    +0.000 C 
ATOM     17  C   UNL     1      44.695   3.916  10.750  0.00  0.00    +0.000 C 
BRANCH  17  18
ATOM     18  C   UNL     1      45.341   3.459   9.512  0.00  0.00    +0.000 A 
ATOM     19  C   UNL     1      45.486   2.095   9.231  0.00  0.00    +0.000 A 
ATOM     20  C   UNL     1      46.062   1.679   8.028  0.00  0.00    +0.000 A 
ATOM     21  C   UNL     1      46.489   2.622   7.094  0.00  0.00    +0.000 A 
ATOM     22  C   UNL     1      46.352   3.980   7.367  0.00  0.00    +0.000 A 
ATOM     23  C   UNL     1      45.788   4.395   8.572  0.00  0.00    +0.000 A 
ENDBRANCH  17  18
ENDBRANCH  15  17
ENDBRANCH   1  15
TORSDOF 4
ENDMDL
MODEL 9
REMARK VINA RESULT:    -5.693      3.974      5.831
REMARK INTER + INTRA:          -7.501
REMARK INTER:                  -6.964
REMARK INTRA:                  -0.537
REMARK UNBOUND:                -0.477
REMARK  Name = 
REMARK  5 active torsions:
REMARK  status: ('A' for Active; 'I' for Inactive)
REMARK    1  A    between atoms: C_1  and  C_2
REMARK    2  A    between atoms: C_2  and  C_3
REMARK    3  A    between atoms: C_2  and  C_15
REMARK    4  A    between atoms: C_3  and  N_4
REMARK    5  A    between atoms: C_8  and  C_9
REMARK                            x       y       z     vdW  Elec       q    Type
REMARK                         _______ _______ _______ _____ _____    ______ ____
ROOT
ATOM      1  N   UNL     1      48.179   6.965  13.831  0.00  0.00    +0.000 N 
ATOM      2  C   UNL     1      48.376   6.434  15.110  0.00  0.00    +0.000 A 
ATOM      3  C   UNL     1      48.967   7.232  16.084  0.00  0.00    +0.000 A 
ATOM      4  C   UNL     1      49.174   6.713  17.364  0.00  0.00    +0.000 A 
ATOM      5  C   UNL     1      48.777   5.407  17.654  0.00  0.00    +0.000 A 
ATOM      6  C   UNL     1      48.231   4.675  16.614  0.00  0.00    +0.000 A 
ATOM      7 CL   UNL     1      47.736   3.027  16.714  0.00  0.00    +0.000 Cl
ATOM      8  N   UNL     1      48.027   5.161  15.368  0.00  0.00    +0.000 NA
ATOM      9  H   UNL     1      47.646   7.828  13.905  0.00  0.00    +0.000 HD
ENDROOT
BRANCH   5  10
ATOM     10  C   UNL     1      48.984   4.907  19.029  0.00  0.00    +0.000 C 
ATOM     11  N   UNL     1      47.901   4.786  19.850  0.00  0.00    +0.000 N 
ATOM     12  O   UNL     1      50.110   4.653  19.442  0.00  0.00    +0.000 OA
ATOM     13  H   UNL     1      46.946   4.935  19.549  0.00  0.00    +0.000 HD
ATOM     14  H   UNL     1      48.051   4.409  20.776  0.00  0.00    +0.000 HD
ENDBRANCH   5  10
BRANCH   1  15
ATOM     15  C   UNL     1      47.548   6.035  12.901  0.00  0.00    +0.000 C 
BRANCH  15  17
ATOM     16  C   UNL     1      46.013   8.092  12.838  0.00  0.00    +0.000 C 
ATOM     17  C   UNL     1      46.269   6.671  12.446  0.00  0.00    +0.000 C 
BRANCH  17  18
ATOM     18  C   UNL     1      45.147   5.799  12.071  0.00  0.00    +0.000 A 
ATOM     19  C   UNL     1      45.163   5.075  10.871  0.00  0.00    +0.000 A 
ATOM     20  C   UNL     1      44.108   4.216  10.552  0.00  0.00    +0.000 A 
ATOM     21  C   UNL     1      43.037   4.067  11.432  0.00  0.00    +0.000 A 
ATOM     22  C   UNL     1      43.012   4.784  12.624  0.00  0.00    +0.000 A 
ATOM     23  C   UNL     1      44.058   5.651  12.937  0.00  0.00    +0.000 A 
ENDBRANCH  17  18
ENDBRANCH  15  17
ENDBRANCH   1  15
TORSDOF 4
ENDMDL
