MODEL 1
REMARK VINA RESULT:    -8.686      0.000      0.000
REMARK INTER + INTRA:         -11.861
REMARK INTER:                 -11.225
REMARK INTRA:                  -0.636
REMARK UNBOUND:                -0.636
REMARK  Name = 
REMARK  5 active torsions:
REMARK  status: ('A' for Active; 'I' for Inactive)
REMARK    1  A    between atoms: C_2  and  C_4
REMARK    2  A    between atoms: C_7  and  N_8
REMARK    3  A    between atoms: N_8  and  C_9
REMARK    4  A    between atoms: C_9  and  C_10
REMARK    5  A    between atoms: C_14  and  C_15
REMARK                            x       y       z     vdW  Elec       q    Type
REMARK                         _______ _______ _______ _____ _____    ______ ____
ROOT
ATOM      1  C   UNL     1      43.916   4.617  11.360  0.00  0.00    +0.000 C 
ENDROOT
BRANCH   1   2
ATOM      2  C   UNL     1      45.083   5.413  11.915  0.00  0.00    +0.000 A 
ATOM      3  C   UNL     1      45.446   6.638  11.349  0.00  0.00    +0.000 A 
ATOM      4  C   UNL     1      46.495   7.380  11.896  0.00  0.00    +0.000 A 
ATOM      5  C   UNL     1      47.173   6.912  13.022  0.00  0.00    +0.000 A 
ATOM      6  C   UNL     1      46.831   5.692  13.631  0.00  0.00    +0.000 A 
ATOM      7  C   UNL     1      45.799   4.942  13.034  0.00  0.00    +0.000 A 
BRANCH   6   8
ATOM      8  C   UNL     1      47.492   5.238  14.871  0.00  0.00    +0.000 A 
ATOM      9  C   UNL     1      48.525   5.974  15.469  0.00  0.00    +0.000 A 
ATOM     10  N   UNL     1      49.168   5.640  16.618  0.00  0.00    +0.000 NA
ATOM     11  C   UNL     1      48.756   4.504  17.221  0.00  0.00    +0.000 A 
ATOM     12  C   UNL     1      47.745   3.705  16.725  0.00  0.00    +0.000 A 
ATOM     13  F   UNL     1      47.375   2.593  17.373  0.00  0.00    +0.000 F 
ATOM     14  C   UNL     1      47.110   4.068  15.543  0.00  0.00    +0.000 A 
ENDBRANCH   6   8
ENDBRANCH   1   2
BRANCH   1  15
ATOM     15  N   UNL     1      43.867   4.814   9.914  0.00  0.00    +0.000 N 
ATOM     16  H   UNL     1      43.997   5.794   9.673  0.00  0.00    +0.000 HD
BRANCH  15  20
ATOM     17  C   UNL     1      46.390   2.328   7.825  0.00  0.00    +0.000 A 
ATOM     18  C   UNL     1      46.394   3.696   7.594  0.00  0.00    +0.000 A 
ATOM     19  N   UNL     1      45.572   4.558   8.254  0.00  0.00    +0.000 NA
ATOM     20  C   UNL     1      44.731   4.014   9.158  0.00  0.00    +0.000 A 
ATOM     21  C   UNL     1      44.750   2.628   9.383  0.00  0.00    +0.000 A 
ATOM     22  N   UNL     1      45.556   1.749   8.730  0.00  0.00    +0.000 NA
BRANCH  17  24
ATOM     23  N   UNL     1      48.403   2.056   6.501  0.00  0.00    +0.000 N 
ATOM     24  C   UNL     1      47.319   1.443   7.072  0.00  0.00    +0.000 C 
ATOM     25  O   UNL     1      47.137   0.236   6.974  0.00  0.00    +0.000 OA
ATOM     26  H   UNL     1      49.082   1.496   6.004  0.00  0.00    +0.000 HD
ATOM     27  H   UNL     1      48.563   3.047   6.642  0.00  0.00    +0.000 HD
ENDBRANCH  17  24
ENDBRANCH  15  20
ENDBRANCH   1  15
TORSDOF 5
ENDMDL
MODEL 2
REMARK VINA RESULT:    -8.623      2.810      3.905
REMARK INTER + INTRA:         -11.779
REMARK INTER:                 -11.122
REMARK INTRA:                  -0.657
REMARK UNBOUND:                -0.636
REMARK  Name = 
REMARK  5 active torsions:
REMARK  status: ('A' for Active; 'I' for Inactive)
REMARK    1  A    between atoms: C_2  and  C_4
REMARK    2  A    between atoms: C_7  and  N_8
REMARK    3  A    between atoms: N_8  and  C_9
REMARK    4  A    between atoms: C_9  and  C_10
REMARK    5  A    between atoms: C_14  and  C_15
REMARK                            x       y       z     vdW  Elec       q    Type
REMARK                         _______ _______ _______ _____ _____    ______ ____
ROOT
ATOM      1  C   UNL     1      43.586   4.382  11.218  0.00  0.00    +0.000 C 
ENDROOT
BRANCH   1   2
ATOM      2  C   UNL     1      44.823   4.821  11.980  0.00  0.00    +0.000 A 
ATOM      3  C   UNL     1      45.478   3.942  12.847  0.00  0.00    +0.000 A 
ATOM      4  C   UNL     1      46.639   4.345  13.509  0.00  0.00    +0.000 A 
ATOM      5  C   UNL     1      47.163   5.620  13.293  0.00  0.00    +0.000 A 
ATOM      6  C   UNL     1      46.544   6.531  12.420  0.00  0.00    +0.000 A 
ATOM      7  C   UNL     1      45.350   6.115  11.798  0.00  0.00    +0.000 A 
BRANCH   6   8
ATOM      8  C   UNL     1      47.144   7.848  12.127  0.00  0.00    +0.000 A 
ATOM      9  C   UNL     1      46.403   9.034  12.221  0.00  0.00    +0.000 A 
ATOM     10  N   UNL     1      46.883  10.284  11.991  0.00  0.00    +0.000 NA
ATOM     11  C   UNL     1      48.189  10.367  11.655  0.00  0.00    +0.000 A 
ATOM     12  C   UNL     1      49.013   9.266  11.540  0.00  0.00    +0.000 A 
ATOM     13  F   UNL     1      50.304   9.412  11.210  0.00  0.00    +0.000 F 
ATOM     14  C   UNL     1      48.493   7.999  11.773  0.00  0.00    +0.000 A 
ENDBRANCH   6   8
ENDBRANCH   1   2
BRANCH   1  15
ATOM     15  N   UNL     1      43.754   4.747   9.813  0.00  0.00    +0.000 N 
ATOM     16  H   UNL     1      43.995   5.730   9.717  0.00  0.00    +0.000 HD
BRANCH  15  20
ATOM     17  C   UNL     1      46.359   2.294   7.788  0.00  0.00    +0.000 A 
ATOM     18  C   UNL     1      46.345   3.660   7.549  0.00  0.00    +0.000 A 
ATOM     19  N   UNL     1      45.495   4.512   8.189  0.00  0.00    +0.000 NA
ATOM     20  C   UNL     1      44.646   3.958   9.078  0.00  0.00    +0.000 A 
ATOM     21  C   UNL     1      44.684   2.574   9.312  0.00  0.00    +0.000 A 
ATOM     22  N   UNL     1      45.518   1.705   8.679  0.00  0.00    +0.000 NA
BRANCH  17  24
ATOM     23  N   UNL     1      48.447   2.033   6.582  0.00  0.00    +0.000 N 
ATOM     24  C   UNL     1      47.318   1.420   7.058  0.00  0.00    +0.000 C 
ATOM     25  O   UNL     1      47.120   0.223   6.897  0.00  0.00    +0.000 OA
ATOM     26  H   UNL     1      49.146   1.481   6.106  0.00  0.00    +0.000 HD
ATOM     27  H   UNL     1      48.615   3.015   6.774  0.00  0.00    +0.000 HD
ENDBRANCH  17  24
ENDBRANCH  15  20
ENDBRANCH   1  15
TORSDOF 5
ENDMDL
MODEL 3
REMARK VINA RESULT:    -8.283      2.886      4.064
REMARK INTER + INTRA:         -11.340
REMARK INTER:                 -10.607
REMARK INTRA:                  -0.734
REMARK UNBOUND:                -0.636
REMARK  Name = 
REMARK  5 active torsions:
REMARK  status: ('A' for Active; 'I' for Inactive)
REMARK    1  A    between atoms: C_2  and  C_4
REMARK    2  A    between atoms: C_7  and  N_8
REMARK    3  A    between atoms: N_8  and  C_9
REMARK    4  A    between atoms: C_9  and  C_10
REMARK    5  A    between atoms: C_14  and  C_15
REMARK                            x       y       z     vdW  Elec       q    Type
REMARK                         _______ _______ _______ _____ _____    ______ ____
ROOT
ATOM      1  C   UNL     1      43.585   4.440  11.275  0.00  0.00    +0.000 C 
ENDROOT
BRANCH   1   2
ATOM      2  C   UNL     1      44.830   4.863  12.032  0.00  0.00    +0.000 A 
ATOM      3  C   UNL     1      45.496   3.966  12.872  0.00  0.00    +0.000 A 
ATOM      4  C   UNL     1      46.664   4.356  13.529  0.00  0.00    +0.000 A 
ATOM      5  C   UNL     1      47.184   5.636  13.336  0.00  0.00    +0.000 A 
ATOM      6  C   UNL     1      46.554   6.565  12.490  0.00  0.00    +0.000 A 
ATOM      7  C   UNL     1      45.354   6.162  11.873  0.00  0.00    +0.000 A 
BRANCH   6   8
ATOM      8  C   UNL     1      47.149   7.889  12.221  0.00  0.00    +0.000 A 
ATOM      9  C   UNL     1      48.471   8.027  11.774  0.00  0.00    +0.000 A 
ATOM     10  N   UNL     1      49.086   9.203  11.483  0.00  0.00    +0.000 NA
ATOM     11  C   UNL     1      48.340  10.318  11.635  0.00  0.00    +0.000 A 
ATOM     12  C   UNL     1      47.028  10.300  12.063  0.00  0.00    +0.000 A 
ATOM     13  F   UNL     1      46.335  11.440  12.188  0.00  0.00    +0.000 F 
ATOM     14  C   UNL     1      46.426   9.083  12.361  0.00  0.00    +0.000 A 
ENDBRANCH   6   8
ENDBRANCH   1   2
BRANCH   1  15
ATOM     15  N   UNL     1      43.768   4.768   9.863  0.00  0.00    +0.000 N 
ATOM     16  H   UNL     1      43.992   5.752   9.741  0.00  0.00    +0.000 HD
BRANCH  15  20
ATOM     17  C   UNL     1      46.486   2.580   7.686  0.00  0.00    +0.000 A 
ATOM     18  C   UNL     1      45.614   1.952   8.563  0.00  0.00    +0.000 A 
ATOM     19  N   UNL     1      44.702   2.634   9.311  0.00  0.00    +0.000 NA
ATOM     20  C   UNL     1      44.687   3.975   9.165  0.00  0.00    +0.000 A 
ATOM     21  C   UNL     1      45.572   4.589   8.265  0.00  0.00    +0.000 A 
ATOM     22  N   UNL     1      46.495   3.929   7.515  0.00  0.00    +0.000 NA
BRANCH  17  24
ATOM     23  N   UNL     1      48.543   2.448   6.409  0.00  0.00    +0.000 N 
ATOM     24  C   UNL     1      47.454   1.773   6.894  0.00  0.00    +0.000 C 
ATOM     25  O   UNL     1      47.298   0.576   6.694  0.00  0.00    +0.000 OA
ATOM     26  H   UNL     1      49.248   1.942   5.891  0.00  0.00    +0.000 HD
ATOM     27  H   UNL     1      48.680   3.428   6.634  0.00  0.00    +0.000 HD
ENDBRANCH  17  24
ENDBRANCH  15  20
ENDBRANCH   1  15
TORSDOF 5
ENDMDL
MODEL 4
REMARK VINA RESULT:    -7.704      3.846      7.770
REMARK INTER + INTRA:         -10.591
REMARK INTER:                 -10.174
REMARK INTRA:                  -0.417
REMARK UNBOUND:                -0.636
REMARK  Name = 
REMARK  5 active torsions:
REMARK  status: ('A' for Active; 'I' for Inactive)
REMARK    1  A    between atoms: C_2  and  C_4
REMARK    2  A    between atoms: C_7  and  N_8
REMARK    3  A    between atoms: N_8  and  C_9
REMARK    4  A    between atoms: C_9  and  C_10
REMARK    5  A    between atoms: C_14  and  C_15
REMARK                            x       y       z     vdW  Elec       q    Type
REMARK                         _______ _______ _______ _____ _____    ______ ____
ROOT
ATOM      1  C   UNL     1      46.156   7.107  12.436  0.00  0.00    +0.000 C 
ENDROOT
BRANCH   1   2
ATOM      2  C   UNL     1      45.233   6.171  11.677  0.00  0.00    +0.000 A 
ATOM      3  C   UNL     1      43.846   6.251  11.834  0.00  0.00    +0.000 A 
ATOM      4  C   UNL     1      43.008   5.412  11.098  0.00  0.00    +0.000 A 
ATOM      5  C   UNL     1      43.548   4.503  10.187  0.00  0.00    +0.000 A 
ATOM      6  C   UNL     1      44.936   4.399   9.989  0.00  0.00    +0.000 A 
ATOM      7  C   UNL     1      45.761   5.225  10.775  0.00  0.00    +0.000 A 
BRANCH   6   8
ATOM      8  C   UNL     1      45.502   3.497   8.966  0.00  0.00    +0.000 A 
ATOM      9  C   UNL     1      45.569   2.110   9.160  0.00  0.00    +0.000 A 
ATOM     10  N   UNL     1      46.052   1.211   8.263  0.00  0.00    +0.000 NA
ATOM     11  C   UNL     1      46.492   1.718   7.091  0.00  0.00    +0.000 A 
ATOM     12  C   UNL     1      46.468   3.065   6.791  0.00  0.00    +0.000 A 
ATOM     13  F   UNL     1      46.912   3.507   5.607  0.00  0.00    +0.000 F 
ATOM     14  C   UNL     1      45.975   3.962   7.730  0.00  0.00    +0.000 A 
ENDBRANCH   6   8
ENDBRANCH   1   2
BRANCH   1  15
ATOM     15  N   UNL     1      47.423   6.419  12.669  0.00  0.00    +0.000 N 
ATOM     16  H   UNL     1      48.212   7.041  12.512  0.00  0.00    +0.000 HD
BRANCH  15  20
ATOM     17  C   UNL     1      47.636   4.455  16.276  0.00  0.00    +0.000 A 
ATOM     18  C   UNL     1      48.394   5.594  16.046  0.00  0.00    +0.000 A 
ATOM     19  N   UNL     1      48.363   6.274  14.865  0.00  0.00    +0.000 NA
ATOM     20  C   UNL     1      47.553   5.779  13.907  0.00  0.00    +0.000 A 
ATOM     21  C   UNL     1      46.788   4.630  14.165  0.00  0.00    +0.000 A 
ATOM     22  N   UNL     1      46.809   3.932  15.332  0.00  0.00    +0.000 NA
BRANCH  17  24
ATOM     23  N   UNL     1      46.884   2.685  17.753  0.00  0.00    +0.000 N 
ATOM     24  C   UNL     1      47.713   3.763  17.591  0.00  0.00    +0.000 C 
ATOM     25  O   UNL     1      48.477   4.125  18.477  0.00  0.00    +0.000 OA
ATOM     26  H   UNL     1      46.918   2.160  18.615  0.00  0.00    +0.000 HD
ATOM     27  H   UNL     1      46.299   2.370  16.986  0.00  0.00    +0.000 HD
ENDBRANCH  17  24
ENDBRANCH  15  20
ENDBRANCH   1  15
TORSDOF 5
ENDMDL
MODEL 5
REMARK VINA RESULT:    -7.627      3.128      3.591
REMARK INTER + INTRA:         -10.492
REMARK INTER:                  -9.860
REMARK INTRA:                  -0.632
REMARK UNBOUND:                -0.636
REMARK  Name = 
REMARK  5 active torsions:
REMARK  status: ('A' for Active; 'I' for Inactive)
REMARK    1  A    between atoms: C_2  and  C_4
REMARK    2  A    between atoms: C_7  and  N_8
REMARK    3  A    between atoms: N_8  and  C_9
REMARK    4  A    between atoms: C_9  and  C_10
REMARK    5  A    between atoms: C_14  and  C_15
REMARK                            x       y       z     vdW  Elec       q    Type
REMARK                         _______ _______ _______ _____ _____    ______ ____
ROOT
ATOM      1  C   UNL     1      44.884   5.070  11.470  0.00  0.00    +0.000 C 
ENDROOT
BRANCH   1   2
ATOM      2  C   UNL     1      45.458   6.468  11.609  0.00  0.00    +0.000 A 
ATOM      3  C   UNL     1      44.620   7.587  11.627  0.00  0.00    +0.000 A 
ATOM      4  C   UNL     1      45.158   8.863  11.798  0.00  0.00    +0.000 A 
ATOM      5  C   UNL     1      46.533   9.028  11.972  0.00  0.00    +0.000 A 
ATOM      6  C   UNL     1      47.410   7.930  11.973  0.00  0.00    +0.000 A 
ATOM      7  C   UNL     1      46.847   6.657  11.755  0.00  0.00    +0.000 A 
BRANCH   6   8
ATOM      8  C   UNL     1      48.852   8.096  12.241  0.00  0.00    +0.000 A 
ATOM      9  C   UNL     1      49.332   8.458  13.508  0.00  0.00    +0.000 A 
ATOM     10  N   UNL     1      50.639   8.610  13.843  0.00  0.00    +0.000 NA
ATOM     11  C   UNL     1      51.535   8.380  12.859  0.00  0.00    +0.000 A 
ATOM     12  C   UNL     1      51.177   8.013  11.577  0.00  0.00    +0.000 A 
ATOM     13  F   UNL     1      52.113   7.791  10.644  0.00  0.00    +0.000 F 
ATOM     14  C   UNL     1      49.831   7.873  11.261  0.00  0.00    +0.000 A 
ENDBRANCH   6   8
ENDBRANCH   1   2
BRANCH   1  15
ATOM     15  N   UNL     1      44.332   4.928  10.126  0.00  0.00    +0.000 N 
ATOM     16  H   UNL     1      44.120   5.835   9.719  0.00  0.00    +0.000 HD
BRANCH  15  20
ATOM     17  C   UNL     1      46.548   2.538   7.618  0.00  0.00    +0.000 A 
ATOM     18  C   UNL     1      46.603   3.919   7.508  0.00  0.00    +0.000 A 
ATOM     19  N   UNL     1      45.882   4.752   8.310  0.00  0.00    +0.000 NA
ATOM     20  C   UNL     1      45.091   4.164   9.230  0.00  0.00    +0.000 A 
ATOM     21  C   UNL     1      45.058   2.764   9.331  0.00  0.00    +0.000 A 
ATOM     22  N   UNL     1      45.763   1.914   8.536  0.00  0.00    +0.000 NA
BRANCH  17  24
ATOM     23  N   UNL     1      48.408   2.312   6.077  0.00  0.00    +0.000 N 
ATOM     24  C   UNL     1      47.367   1.686   6.713  0.00  0.00    +0.000 C 
ATOM     25  O   UNL     1      47.137   0.495   6.550  0.00  0.00    +0.000 OA
ATOM     26  H   UNL     1      49.015   1.773   5.475  0.00  0.00    +0.000 HD
ATOM     27  H   UNL     1      48.613   3.286   6.270  0.00  0.00    +0.000 HD
ENDBRANCH  17  24
ENDBRANCH  15  20
ENDBRANCH   1  15
TORSDOF 5
ENDMDL
MODEL 6
REMARK VINA RESULT:    -7.280      4.021      8.351
REMARK INTER + INTRA:         -10.044
REMARK INTER:                  -9.550
REMARK INTRA:                  -0.494
REMARK UNBOUND:                -0.636
REMARK  Name = 
REMARK  5 active torsions:
REMARK  status: ('A' for Active; 'I' for Inactive)
REMARK    1  A    between atoms: C_2  and  C_4
REMARK    2  A    between atoms: C_7  and  N_8
REMARK    3  A    between atoms: N_8  and  C_9
REMARK    4  A    between atoms: C_9  and  C_10
REMARK    5  A    between atoms: C_14  and  C_15
REMARK                            x       y       z     vdW  Elec       q    Type
REMARK                         _______ _______ _______ _____ _____    ______ ____
ROOT
ATOM      1  C   UNL     1      45.822   5.173  13.660  0.00  0.00    +0.000 C 
ENDROOT
BRANCH   1   2
ATOM      2  C   UNL     1      45.023   4.936  12.391  0.00  0.00    +0.000 A 
ATOM      3  C   UNL     1      43.770   5.530  12.214  0.00  0.00    +0.000 A 
ATOM      4  C   UNL     1      43.065   5.337  11.024  0.00  0.00    +0.000 A 
ATOM      5  C   UNL     1      43.616   4.567   9.999  0.00  0.00    +0.000 A 
ATOM      6  C   UNL     1      44.879   3.964  10.131  0.00  0.00    +0.000 A 
ATOM      7  C   UNL     1      45.549   4.137  11.357  0.00  0.00    +0.000 A 
BRANCH   6   8
ATOM      8  C   UNL     1      45.497   3.220   9.015  0.00  0.00    +0.000 A 
ATOM      9  C   UNL     1      45.688   1.832   9.068  0.00  0.00    +0.000 A 
ATOM     10  N   UNL     1      46.227   1.072   8.080  0.00  0.00    +0.000 NA
ATOM     11  C   UNL     1      46.594   1.728   6.958  0.00  0.00    +0.000 A 
ATOM     12  C   UNL     1      46.448   3.091   6.794  0.00  0.00    +0.000 A 
ATOM     13  F   UNL     1      46.824   3.685   5.654  0.00  0.00    +0.000 F 
ATOM     14  C   UNL     1      45.900   3.845   7.825  0.00  0.00    +0.000 A 
ENDBRANCH   6   8
ENDBRANCH   1   2
BRANCH   1  15
ATOM     15  N   UNL     1      46.752   4.061  13.836  0.00  0.00    +0.000 N 
ATOM     16  H   UNL     1      47.454   4.051  13.100  0.00  0.00    +0.000 HD
BRANCH  15  20
ATOM     17  C   UNL     1      48.600   3.983  17.509  0.00  0.00    +0.000 A 
ATOM     18  C   UNL     1      48.436   2.817  16.775  0.00  0.00    +0.000 A 
ATOM     19  N   UNL     1      47.824   2.791  15.558  0.00  0.00    +0.000 NA
ATOM     20  C   UNL     1      47.368   3.971  15.090  0.00  0.00    +0.000 A 
ATOM     21  C   UNL     1      47.553   5.141  15.844  0.00  0.00    +0.000 A 
ATOM     22  N   UNL     1      48.154   5.187  17.064  0.00  0.00    +0.000 NA
BRANCH  17  24
ATOM     23  N   UNL     1      48.586   3.348  19.849  0.00  0.00    +0.000 N 
ATOM     24  C   UNL     1      49.284   3.941  18.830  0.00  0.00    +0.000 C 
ATOM     25  O   UNL     1      50.406   4.398  19.000  0.00  0.00    +0.000 OA
ATOM     26  H   UNL     1      49.016   3.265  20.760  0.00  0.00    +0.000 HD
ATOM     27  H   UNL     1      47.680   2.928  19.672  0.00  0.00    +0.000 HD
ENDBRANCH  17  24
ENDBRANCH  15  20
ENDBRANCH   1  15
TORSDOF 5
ENDMDL
MODEL 7
REMARK VINA RESULT:    -6.964      4.255      7.859
REMARK INTER + INTRA:          -9.636
REMARK INTER:                  -8.986
REMARK INTRA:                  -0.650
REMARK UNBOUND:                -0.636
REMARK  Name = 
REMARK  5 active torsions:
REMARK  status: ('A' for Active; 'I' for Inactive)
REMARK    1  A    between atoms: C_2  and  C_4
REMARK    2  A    between atoms: C_7  and  N_8
REMARK    3  A    between atoms: N_8  and  C_9
REMARK    4  A    between atoms: C_9  and  C_10
REMARK    5  A    between atoms: C_14  and  C_15
REMARK                            x       y       z     vdW  Elec       q    Type
REMARK                         _______ _______ _______ _____ _____    ______ ____
ROOT
ATOM      1  C   UNL     1      48.724   6.569  15.966  0.00  0.00    +0.000 C 
ENDROOT
BRANCH   1   2
ATOM      2  C   UNL     1      48.286   6.678  14.517  0.00  0.00    +0.000 A 
ATOM      3  C   UNL     1      49.006   7.459  13.609  0.00  0.00    +0.000 A 
ATOM      4  C   UNL     1      48.617   7.516  12.270  0.00  0.00    +0.000 A 
ATOM      5  C   UNL     1      47.519   6.777  11.826  0.00  0.00    +0.000 A 
ATOM      6  C   UNL     1      46.776   5.968  12.703  0.00  0.00    +0.000 A 
ATOM      7  C   UNL     1      47.163   5.963  14.057  0.00  0.00    +0.000 A 
BRANCH   6   8
ATOM      8  C   UNL     1      45.668   5.122  12.217  0.00  0.00    +0.000 A 
ATOM      9  C   UNL     1      44.951   4.278  13.077  0.00  0.00    +0.000 A 
ATOM     10  N   UNL     1      43.907   3.487  12.717  0.00  0.00    +0.000 NA
ATOM     11  C   UNL     1      43.541   3.540  11.418  0.00  0.00    +0.000 A 
ATOM     12  C   UNL     1      44.172   4.339  10.485  0.00  0.00    +0.000 A 
ATOM     13  F   UNL     1      43.758   4.355   9.210  0.00  0.00    +0.000 F 
ATOM     14  C   UNL     1      45.242   5.133  10.881  0.00  0.00    +0.000 A 
ENDBRANCH   6   8
ENDBRANCH   1   2
BRANCH   1  15
ATOM     15  N   UNL     1      48.159   5.346  16.530  0.00  0.00    +0.000 N 
ATOM     16  H   UNL     1      47.411   4.984  15.945  0.00  0.00    +0.000 HD
BRANCH  15  20
ATOM     17  C   UNL     1      50.986   2.488  17.396  0.00  0.00    +0.000 A 
ATOM     18  C   UNL     1      49.757   2.128  16.865  0.00  0.00    +0.000 A 
ATOM     19  N   UNL     1      48.785   3.037  16.570  0.00  0.00    +0.000 NA
ATOM     20  C   UNL     1      49.074   4.329  16.826  0.00  0.00    +0.000 A 
ATOM     21  C   UNL     1      50.329   4.673  17.354  0.00  0.00    +0.000 A 
ATOM     22  N   UNL     1      51.309   3.782  17.664  0.00  0.00    +0.000 NA
BRANCH  17  24
ATOM     23  N   UNL     1      51.521   0.236  18.120  0.00  0.00    +0.000 N 
ATOM     24  C   UNL     1      52.005   1.444  17.690  0.00  0.00    +0.000 C 
ATOM     25  O   UNL     1      53.205   1.642  17.549  0.00  0.00    +0.000 OA
ATOM     26  H   UNL     1      52.168  -0.518  18.304  0.00  0.00    +0.000 HD
ATOM     27  H   UNL     1      50.521   0.077  18.177  0.00  0.00    +0.000 HD
ENDBRANCH  17  24
ENDBRANCH  15  20
ENDBRANCH   1  15
TORSDOF 5
ENDMDL
MODEL 8
REMARK VINA RESULT:    -6.750      3.636      7.808
REMARK INTER + INTRA:          -9.358
REMARK INTER:                  -8.776
REMARK INTRA:                  -0.582
REMARK UNBOUND:                -0.636
REMARK  Name = 
REMARK  5 active torsions:
REMARK  status: ('A' for Active; 'I' for Inactive)
REMARK    1  A    between atoms: C_2  and  C_4
REMARK    2  A    between atoms: C_7  and  N_8
REMARK    3  A    between atoms: N_8  and  C_9
REMARK    4  A    between atoms: C_9  and  C_10
REMARK    5  A    between atoms: C_14  and  C_15
REMARK                            x       y       z     vdW  Elec       q    Type
REMARK                         _______ _______ _______ _____ _____    ______ ____
ROOT
ATOM      1  C   UNL     1      48.510   7.474  13.354  0.00  0.00    +0.000 C 
ENDROOT
BRANCH   1   2
ATOM      2  C   UNL     1      47.154   7.413  12.674  0.00  0.00    +0.000 A 
ATOM      3  C   UNL     1      46.282   8.505  12.719  0.00  0.00    +0.000 A 
ATOM      4  C   UNL     1      45.056   8.451  12.054  0.00  0.00    +0.000 A 
ATOM      5  C   UNL     1      44.703   7.315  11.324  0.00  0.00    +0.000 A 
ATOM      6  C   UNL     1      45.556   6.200  11.242  0.00  0.00    +0.000 A 
ATOM      7  C   UNL     1      46.767   6.263  11.958  0.00  0.00    +0.000 A 
BRANCH   6   8
ATOM      8  C   UNL     1      45.219   5.034  10.402  0.00  0.00    +0.000 A 
ATOM      9  C   UNL     1      44.411   3.990  10.877  0.00  0.00    +0.000 A 
ATOM     10  N   UNL     1      44.037   2.896  10.164  0.00  0.00    +0.000 NA
ATOM     11  C   UNL     1      44.485   2.833   8.892  0.00  0.00    +0.000 A 
ATOM     12  C   UNL     1      45.281   3.805   8.319  0.00  0.00    +0.000 A 
ATOM     13  F   UNL     1      45.688   3.691   7.048  0.00  0.00    +0.000 F 
ATOM     14  C   UNL     1      45.654   4.910   9.075  0.00  0.00    +0.000 A 
ENDBRANCH   6   8
ENDBRANCH   1   2
BRANCH   1  15
ATOM     15  N   UNL     1      48.300   7.617  14.793  0.00  0.00    +0.000 N 
ATOM     16  H   UNL     1      47.402   8.051  14.991  0.00  0.00    +0.000 HD
BRANCH  15  20
ATOM     17  C   UNL     1      48.924   4.225  17.031  0.00  0.00    +0.000 A 
ATOM     18  C   UNL     1      47.776   4.365  16.267  0.00  0.00    +0.000 A 
ATOM     19  N   UNL     1      47.520   5.473  15.515  0.00  0.00    +0.000 NA
ATOM     20  C   UNL     1      48.449   6.451  15.552  0.00  0.00    +0.000 A 
ATOM     21  C   UNL     1      49.609   6.284  16.325  0.00  0.00    +0.000 A 
ATOM     22  N   UNL     1      49.880   5.190  17.088  0.00  0.00    +0.000 NA
BRANCH  17  24
ATOM     23  N   UNL     1      48.465   2.903  19.012  0.00  0.00    +0.000 N 
ATOM     24  C   UNL     1      49.143   2.985  17.825  0.00  0.00    +0.000 C 
ATOM     25  O   UNL     1      49.876   2.083  17.440  0.00  0.00    +0.000 OA
ATOM     26  H   UNL     1      48.554   2.069  19.576  0.00  0.00    +0.000 HD
ATOM     27  H   UNL     1      47.821   3.638  19.285  0.00  0.00    +0.000 HD
ENDBRANCH  17  24
ENDBRANCH  15  20
ENDBRANCH   1  15
TORSDOF 5
ENDMDL
MODEL 9
REMARK VINA RESULT:    -6.740      3.903      7.312
REMARK INTER + INTRA:          -9.346
REMARK INTER:                  -8.553
REMARK INTRA:                  -0.793
REMARK UNBOUND:                -0.636
REMARK  Name = 
REMARK  5 active torsions:
REMARK  status: ('A' for Active; 'I' for Inactive)
REMARK    1  A    between atoms: C_2  and  C_4
REMARK    2  A    between atoms: C_7  and  N_8
REMARK    3  A    between atoms: N_8  and  C_9
REMARK    4  A    between atoms: C_9  and  C_10
REMARK    5  A    between atoms: C_14  and  C_15
REMARK                            x       y       z     vdW  Elec       q    Type
REMARK                         _______ _______ _______ _____ _____    ______ ____
ROOT
ATOM      1  C   UNL     1      46.060   4.050  13.621  0.00  0.00    +0.000 C 
ENDROOT
BRANCH   1   2
ATOM      2  C   UNL     1      45.227   4.052  12.352  0.00  0.00    +0.000 A 
ATOM      3  C   UNL     1      43.950   4.620  12.335  0.00  0.00    +0.000 A 
ATOM      4  C   UNL     1      43.213   4.652  11.150  0.00  0.00    +0.000 A 
ATOM      5  C   UNL     1      43.754   4.135   9.972  0.00  0.00    +0.000 A 
ATOM      6  C   UNL     1      45.039   3.566   9.942  0.00  0.00    +0.000 A 
ATOM      7  C   UNL     1      45.744   3.507  11.160  0.00  0.00    +0.000 A 
BRANCH   6   8
ATOM      8  C   UNL     1      45.643   3.096   8.680  0.00  0.00    +0.000 A 
ATOM      9  C   UNL     1      45.944   3.978   7.632  0.00  0.00    +0.000 A 
ATOM     10  N   UNL     1      46.519   3.632   6.451  0.00  0.00    +0.000 NA
ATOM     11  C   UNL     1      46.827   2.326   6.299  0.00  0.00    +0.000 A 
ATOM     12  C   UNL     1      46.581   1.372   7.267  0.00  0.00    +0.000 A 
ATOM     13  F   UNL     1      46.916   0.091   7.061  0.00  0.00    +0.000 F 
ATOM     14  C   UNL     1      45.985   1.754   8.462  0.00  0.00    +0.000 A 
ENDBRANCH   6   8
ENDBRANCH   1   2
BRANCH   1  15
ATOM     15  N   UNL     1      46.098   5.411  14.150  0.00  0.00    +0.000 N 
ATOM     16  H   UNL     1      46.259   5.410  15.154  0.00  0.00    +0.000 HD
BRANCH  15  20
ATOM     17  C   UNL     1      48.568   8.074  12.222  0.00  0.00    +0.000 A 
ATOM     18  C   UNL     1      49.058   6.859  12.678  0.00  0.00    +0.000 A 
ATOM     19  N   UNL     1      48.281   5.948  13.329  0.00  0.00    +0.000 NA
ATOM     20  C   UNL     1      46.990   6.288  13.521  0.00  0.00    +0.000 A 
ATOM     21  C   UNL     1      46.513   7.519  13.042  0.00  0.00    +0.000 A 
ATOM     22  N   UNL     1      47.272   8.445  12.398  0.00  0.00    +0.000 NA
BRANCH  17  24
ATOM     23  N   UNL     1      48.917  10.219  11.146  0.00  0.00    +0.000 N 
ATOM     24  C   UNL     1      49.471   9.021  11.513  0.00  0.00    +0.000 C 
ATOM     25  O   UNL     1      50.643   8.756  11.277  0.00  0.00    +0.000 OA
ATOM     26  H   UNL     1      49.494  10.911  10.689  0.00  0.00    +0.000 HD
ATOM     27  H   UNL     1      47.960  10.439  11.400  0.00  0.00    +0.000 HD
ENDBRANCH  17  24
ENDBRANCH  15  20
ENDBRANCH   1  15
TORSDOF 5
ENDMDL
