MODEL 1
REMARK VINA RESULT:    -8.116      0.000      0.000
REMARK INTER + INTRA:         -10.700
REMARK INTER:                 -10.251
REMARK INTRA:                  -0.449
REMARK UNBOUND:                -0.449
REMARK  Name = 
REMARK  5 active torsions:
REMARK  status: ('A' for Active; 'I' for Inactive)
REMARK    1  A    between atoms: N_1  and  C_2
REMARK    2  A    between atoms: C_2  and  C_3
REMARK    3  A    between atoms: C_3  and  C_4
REMARK    4  A    between atoms: C_7  and  C_8
REMARK    5  A    between atoms: C_8  and  N_9
REMARK                            x       y       z     vdW  Elec       q    Type
REMARK                         _______ _______ _______ _____ _____    ______ ____
ROOT
ATOM      1  C   UNL     1      45.805   3.117   7.842  0.00  0.00    +0.000 A 
ATOM      2  C   UNL     1      45.256   4.328   8.271  0.00  0.00    +0.000 A 
ATOM      3  C   UNL     1      44.516   4.395   9.449  0.00  0.00    +0.000 A 
ATOM      4  C   UNL     1      44.334   3.236  10.196  0.00  0.00    +0.000 A 
ATOM      5  N   UNL     1      44.905   2.058   9.835  0.00  0.00    +0.000 NA
ATOM      6  C   UNL     1      45.619   2.024   8.678  0.00  0.00    +0.000 A 
ENDROOT
BRANCH   1   7
ATOM      7  C   UNL     1      46.596   3.022   6.556  0.00  0.00    +0.000 C 
BRANCH   7   8
ATOM      8  C   UNL     1      48.037   2.498   6.706  0.00  0.00    +0.000 C 
BRANCH   8   9
ATOM      9  N   UNL     1      48.488   1.827   5.486  0.00  0.00    +0.000 NA
ATOM     10  H   UNL     1      49.318   2.301   5.129  0.00  0.00    +0.000 HD
ATOM     11  H   UNL     1      47.778   1.920   4.759  0.00  0.00    +0.000 HD
ENDBRANCH   8   9
ENDBRANCH   7   8
ENDBRANCH   1   7
BRANCH   4  12
ATOM     12  C   UNL     1      43.290   3.149  11.270  0.00  0.00    +0.000 C 
BRANCH  12  13
ATOM     13  N   UNL     1      43.539   3.887  12.520  0.00  0.00    +0.000 N 
ATOM     14  C   UNL     1      42.802   5.032  12.801  0.00  0.00    +0.000 A 
ATOM     15  C   UNL     1      43.664   6.082  12.547  0.00  0.00    +0.000 A 
ATOM     16  C   UNL     1      44.961   5.570  12.827  0.00  0.00    +0.000 A 
ATOM     17  C   UNL     1      46.237   6.089  13.068  0.00  0.00    +0.000 A 
ATOM     18 CL   UNL     1      46.422   7.780  12.938  0.00  0.00    +0.000 Cl
ATOM     19  C   UNL     1      47.253   5.248  13.488  0.00  0.00    +0.000 A 
ATOM     20  C   UNL     1      46.973   3.892  13.570  0.00  0.00    +0.000 A 
ATOM     21  N   UNL     1      45.796   3.297  13.241  0.00  0.00    +0.000 NA
ATOM     22  C   UNL     1      44.833   4.182  12.918  0.00  0.00    +0.000 A 
ENDBRANCH  12  13
ENDBRANCH   4  12
TORSDOF 5
ENDMDL
MODEL 2
REMARK VINA RESULT:    -6.314      1.767      2.384
REMARK INTER + INTRA:          -8.424
REMARK INTER:                  -7.965
REMARK INTRA:                  -0.459
REMARK UNBOUND:                -0.449
REMARK  Name = 
REMARK  5 active torsions:
REMARK  status: ('A' for Active; 'I' for Inactive)
REMARK    1  A    between atoms: N_1  and  C_2
REMARK    2  A    between atoms: C_2  and  C_3
REMARK    3  A    between atoms: C_3  and  C_4
REMARK    4  A    between atoms: C_7  and  C_8
REMARK    5  A    between atoms: C_8  and  N_9
REMARK                            x       y       z     vdW  Elec       q    Type
REMARK                         _______ _______ _______ _____ _____    ______ ____
ROOT
ATOM      1  C   UNL     1      44.974   2.613   9.173  0.00  0.00    +0.000 A 
ATOM      2  C   UNL     1      45.568   3.826   8.817  0.00  0.00    +0.000 A 
ATOM      3  C   UNL     1      45.271   4.994   9.515  0.00  0.00    +0.000 A 
ATOM      4  C   UNL     1      44.374   4.935  10.575  0.00  0.00    +0.000 A 
ATOM      5  N   UNL     1      43.827   3.761  10.982  0.00  0.00    +0.000 NA
ATOM      6  C   UNL     1      44.134   2.637  10.279  0.00  0.00    +0.000 A 
ENDROOT
BRANCH   1   7
ATOM      7  C   UNL     1      45.271   1.338   8.416  0.00  0.00    +0.000 C 
BRANCH   7   8
ATOM      8  C   UNL     1      46.686   1.245   7.811  0.00  0.00    +0.000 C 
BRANCH   8   9
ATOM      9  N   UNL     1      47.140  -0.145   7.733  0.00  0.00    +0.000 NA
ATOM     10  H   UNL     1      46.823  -0.552   6.853  0.00  0.00    +0.000 HD
ATOM     11  H   UNL     1      46.698  -0.694   8.471  0.00  0.00    +0.000 HD
ENDBRANCH   8   9
ENDBRANCH   7   8
ENDBRANCH   1   7
BRANCH   4  12
ATOM     12  C   UNL     1      43.751   6.174  11.148  0.00  0.00    +0.000 C 
BRANCH  12  13
ATOM     13  N   UNL     1      44.485   6.872  12.217  0.00  0.00    +0.000 N 
ATOM     14  C   UNL     1      44.963   8.158  11.996  0.00  0.00    +0.000 A 
ATOM     15  C   UNL     1      46.321   8.003  11.793  0.00  0.00    +0.000 A 
ATOM     16  C   UNL     1      46.683   6.864  12.563  0.00  0.00    +0.000 A 
ATOM     17  C   UNL     1      47.859   6.297  13.063  0.00  0.00    +0.000 A 
ATOM     18 CL   UNL     1      49.328   7.045  12.623  0.00  0.00    +0.000 Cl
ATOM     19  C   UNL     1      47.788   5.237  13.951  0.00  0.00    +0.000 A 
ATOM     20  C   UNL     1      46.531   4.725  14.242  0.00  0.00    +0.000 A 
ATOM     21  N   UNL     1      45.354   5.144  13.708  0.00  0.00    +0.000 NA
ATOM     22  C   UNL     1      45.492   6.226  12.917  0.00  0.00    +0.000 A 
ENDBRANCH  12  13
ENDBRANCH   4  12
TORSDOF 5
ENDMDL
MODEL 3
REMARK VINA RESULT:    -6.012      3.962      7.374
REMARK INTER + INTRA:          -8.042
REMARK INTER:                  -7.648
REMARK INTRA:                  -0.394
REMARK UNBOUND:                -0.449
REMARK  Name = 
REMARK  5 active torsions:
REMARK  status: ('A' for Active; 'I' for Inactive)
REMARK    1  A    between atoms: N_1  and  C_2
REMARK    2  A    between atoms: C_2  and  C_3
REMARK    3  A    between atoms: C_3  and  C_4
REMARK    4  A    between atoms: C_7  and  C_8
REMARK    5  A    between atoms: C_8  and  N_9
REMARK                            x       y       z     vdW  Elec       q    Type
REMARK                         _______ _______ _______ _____ _____    ______ ____
ROOT
ATOM      1  C   UNL     1      50.514   2.909  17.402  0.00  0.00    +0.000 A 
ATOM      2  C   UNL     1      50.039   4.175  17.753  0.00  0.00    +0.000 A 
ATOM      3  C   UNL     1      48.817   4.635  17.267  0.00  0.00    +0.000 A 
ATOM      4  C   UNL     1      48.074   3.812  16.429  0.00  0.00    +0.000 A 
ATOM      5  N   UNL     1      48.482   2.554  16.119  0.00  0.00    +0.000 NA
ATOM      6  C   UNL     1      49.681   2.135  16.605  0.00  0.00    +0.000 A 
ENDROOT
BRANCH   1   7
ATOM      7  C   UNL     1      51.847   2.401  17.906  0.00  0.00    +0.000 C 
BRANCH   7   8
ATOM      8  C   UNL     1      52.267   1.017  17.376  0.00  0.00    +0.000 C 
BRANCH   8   9
ATOM      9  N   UNL     1      52.018  -0.030  18.369  0.00  0.00    +0.000 NA
ATOM     10  H   UNL     1      52.782  -0.705  18.345  0.00  0.00    +0.000 HD
ATOM     11  H   UNL     1      51.177  -0.550  18.118  0.00  0.00    +0.000 HD
ENDBRANCH   8   9
ENDBRANCH   7   8
ENDBRANCH   1   7
BRANCH   4  12
ATOM     12  C   UNL     1      46.938   4.346  15.606  0.00  0.00    +0.000 C 
BRANCH  12  13
ATOM     13  N   UNL     1      47.211   4.658  14.194  0.00  0.00    +0.000 N 
ATOM     14  C   UNL     1      47.803   5.870  13.859  0.00  0.00    +0.000 A 
ATOM     15  C   UNL     1      46.773   6.642  13.354  0.00  0.00    +0.000 A 
ATOM     16  C   UNL     1      45.869   5.714  12.767  0.00  0.00    +0.000 A 
ATOM     17  C   UNL     1      44.804   5.753  11.862  0.00  0.00    +0.000 A 
ATOM     18 CL   UNL     1      44.317   7.291  11.306  0.00  0.00    +0.000 Cl
ATOM     19  C   UNL     1      44.263   4.572  11.385  0.00  0.00    +0.000 A 
ATOM     20  C   UNL     1      44.756   3.383  11.903  0.00  0.00    +0.000 A 
ATOM     21  N   UNL     1      45.705   3.265  12.869  0.00  0.00    +0.000 NA
ATOM     22  C   UNL     1      46.241   4.448  13.226  0.00  0.00    +0.000 A 
ENDBRANCH  12  13
ENDBRANCH   4  12
TORSDOF 5
ENDMDL
MODEL 4
REMARK VINA RESULT:    -5.871      3.367      6.604
REMARK INTER + INTRA:          -7.864
REMARK INTER:                  -7.562
REMARK INTRA:                  -0.302
REMARK UNBOUND:                -0.449
REMARK  Name = 
REMARK  5 active torsions:
REMARK  status: ('A' for Active; 'I' for Inactive)
REMARK    1  A    between atoms: N_1  and  C_2
REMARK    2  A    between atoms: C_2  and  C_3
REMARK    3  A    between atoms: C_3  and  C_4
REMARK    4  A    between atoms: C_7  and  C_8
REMARK    5  A    between atoms: C_8  and  N_9
REMARK                            x       y       z     vdW  Elec       q    Type
REMARK                         _______ _______ _______ _____ _____    ______ ____
ROOT
ATOM      1  C   UNL     1      45.489   8.230  12.094  0.00  0.00    +0.000 A 
ATOM      2  C   UNL     1      46.674   7.497  11.995  0.00  0.00    +0.000 A 
ATOM      3  C   UNL     1      46.658   6.176  11.556  0.00  0.00    +0.000 A 
ATOM      4  C   UNL     1      45.442   5.595  11.214  0.00  0.00    +0.000 A 
ATOM      5  N   UNL     1      44.282   6.300  11.243  0.00  0.00    +0.000 NA
ATOM      6  C   UNL     1      44.329   7.588  11.679  0.00  0.00    +0.000 A 
ENDROOT
BRANCH   1   7
ATOM      7  C   UNL     1      45.485   9.660  12.585  0.00  0.00    +0.000 C 
BRANCH   7   8
ATOM      8  C   UNL     1      44.693  10.654  11.714  0.00  0.00    +0.000 C 
BRANCH   8   9
ATOM      9  N   UNL     1      43.319  10.803  12.194  0.00  0.00    +0.000 NA
ATOM     10  H   UNL     1      43.155  11.777  12.449  0.00  0.00    +0.000 HD
ATOM     11  H   UNL     1      43.193  10.264  13.051  0.00  0.00    +0.000 HD
ENDBRANCH   8   9
ENDBRANCH   7   8
ENDBRANCH   1   7
BRANCH   4  12
ATOM     12  C   UNL     1      45.294   4.109  11.063  0.00  0.00    +0.000 C 
BRANCH  12  13
ATOM     13  N   UNL     1      44.791   3.604   9.775  0.00  0.00    +0.000 N 
ATOM     14  C   UNL     1      44.003   2.460   9.746  0.00  0.00    +0.000 A 
ATOM     15  C   UNL     1      44.842   1.462   9.286  0.00  0.00    +0.000 A 
ATOM     16  C   UNL     1      45.771   2.122   8.437  0.00  0.00    +0.000 A 
ATOM     17  C   UNL     1      46.687   1.761   7.444  0.00  0.00    +0.000 A 
ATOM     18 CL   UNL     1      46.884   0.093   7.141  0.00  0.00    +0.000 Cl
ATOM     19  C   UNL     1      47.310   2.743   6.693  0.00  0.00    +0.000 A 
ATOM     20  C   UNL     1      47.055   4.066   7.026  0.00  0.00    +0.000 A 
ATOM     21  N   UNL     1      46.272   4.496   8.050  0.00  0.00    +0.000 NA
ATOM     22  C   UNL     1      45.637   3.490   8.684  0.00  0.00    +0.000 A 
ENDBRANCH  12  13
ENDBRANCH   4  12
TORSDOF 5
ENDMDL
MODEL 5
REMARK VINA RESULT:    -5.859      2.456      3.653
REMARK INTER + INTRA:          -7.849
REMARK INTER:                  -7.432
REMARK INTRA:                  -0.417
REMARK UNBOUND:                -0.449
REMARK  Name = 
REMARK  5 active torsions:
REMARK  status: ('A' for Active; 'I' for Inactive)
REMARK    1  A    between atoms: N_1  and  C_2
REMARK    2  A    between atoms: C_2  and  C_3
REMARK    3  A    between atoms: C_3  and  C_4
REMARK    4  A    between atoms: C_7  and  C_8
REMARK    5  A    between atoms: C_8  and  N_9
REMARK                            x       y       z     vdW  Elec       q    Type
REMARK                         _______ _______ _______ _____ _____    ______ ____
ROOT
ATOM      1  C   UNL     1      44.913   3.965   9.396  0.00  0.00    +0.000 A 
ATOM      2  C   UNL     1      44.341   3.196  10.412  0.00  0.00    +0.000 A 
ATOM      3  C   UNL     1      44.422   3.604  11.742  0.00  0.00    +0.000 A 
ATOM      4  C   UNL     1      45.079   4.790  12.043  0.00  0.00    +0.000 A 
ATOM      5  N   UNL     1      45.593   5.588  11.071  0.00  0.00    +0.000 NA
ATOM      6  C   UNL     1      45.502   5.162   9.783  0.00  0.00    +0.000 A 
ENDROOT
BRANCH   1   7
ATOM      7  C   UNL     1      44.850   3.530   7.949  0.00  0.00    +0.000 C 
BRANCH   7   8
ATOM      8  C   UNL     1      46.185   3.050   7.346  0.00  0.00    +0.000 C 
BRANCH   8   9
ATOM      9  N   UNL     1      46.800   4.091   6.521  0.00  0.00    +0.000 NA
ATOM     10  H   UNL     1      46.087   4.514   5.927  0.00  0.00    +0.000 HD
ATOM     11  H   UNL     1      47.480   3.671   5.887  0.00  0.00    +0.000 HD
ENDBRANCH   8   9
ENDBRANCH   7   8
ENDBRANCH   1   7
BRANCH   4  12
ATOM     12  C   UNL     1      45.501   5.122  13.444  0.00  0.00    +0.000 C 
BRANCH  12  13
ATOM     13  N   UNL     1      46.877   4.778  13.839  0.00  0.00    +0.000 N 
ATOM     14  C   UNL     1      47.091   3.939  14.927  0.00  0.00    +0.000 A 
ATOM     15  C   UNL     1      47.496   4.777  15.949  0.00  0.00    +0.000 A 
ATOM     16  C   UNL     1      48.164   5.852  15.302  0.00  0.00    +0.000 A 
ATOM     17  C   UNL     1      49.044   6.877  15.663  0.00  0.00    +0.000 A 
ATOM     18 CL   UNL     1      49.427   7.020  17.320  0.00  0.00    +0.000 Cl
ATOM     19  C   UNL     1      49.635   7.654  14.682  0.00  0.00    +0.000 A 
ATOM     20  C   UNL     1      49.253   7.429  13.367  0.00  0.00    +0.000 A 
ATOM     21  N   UNL     1      48.319   6.536  12.947  0.00  0.00    +0.000 NA
ATOM     22  C   UNL     1      47.847   5.762  13.945  0.00  0.00    +0.000 A 
ENDBRANCH  12  13
ENDBRANCH   4  12
TORSDOF 5
ENDMDL
MODEL 6
REMARK VINA RESULT:    -5.392      4.309      6.508
REMARK INTER + INTRA:          -7.259
REMARK INTER:                  -6.793
REMARK INTRA:                  -0.467
REMARK UNBOUND:                -0.449
REMARK  Name = 
REMARK  5 active torsions:
REMARK  status: ('A' for Active; 'I' for Inactive)
REMARK    1  A    between atoms: N_1  and  C_2
REMARK    2  A    between atoms: C_2  and  C_3
REMARK    3  A    between atoms: C_3  and  C_4
REMARK    4  A    between atoms: C_7  and  C_8
REMARK    5  A    between atoms: C_8  and  N_9
REMARK                            x       y       z     vdW  Elec       q    Type
REMARK                         _______ _______ _______ _____ _____    ______ ____
ROOT
ATOM      1  C   UNL     1      45.150   6.566  12.155  0.00  0.00    +0.000 A 
ATOM      2  C   UNL     1      45.532   7.810  12.662  0.00  0.00    +0.000 A 
ATOM      3  C   UNL     1      46.764   7.972  13.292  0.00  0.00    +0.000 A 
ATOM      4  C   UNL     1      47.610   6.875  13.408  0.00  0.00    +0.000 A 
ATOM      5  N   UNL     1      47.291   5.669  12.872  0.00  0.00    +0.000 NA
ATOM      6  C   UNL     1      46.080   5.541  12.266  0.00  0.00    +0.000 A 
ENDROOT
BRANCH   1   7
ATOM      7  C   UNL     1      43.810   6.368  11.483  0.00  0.00    +0.000 C 
BRANCH   7   8
ATOM      8  C   UNL     1      42.987   5.168  11.993  0.00  0.00    +0.000 C 
BRANCH   8   9
ATOM      9  N   UNL     1      42.672   5.307  13.416  0.00  0.00    +0.000 NA
ATOM     10  H   UNL     1      43.164   6.118  13.792  0.00  0.00    +0.000 HD
ATOM     11  H   UNL     1      43.029   4.500  13.929  0.00  0.00    +0.000 HD
ENDBRANCH   8   9
ENDBRANCH   7   8
ENDBRANCH   1   7
BRANCH   4  12
ATOM     12  C   UNL     1      48.778   6.878  14.351  0.00  0.00    +0.000 C 
BRANCH  12  13
ATOM     13  N   UNL     1      48.500   6.640  15.777  0.00  0.00    +0.000 N 
ATOM     14  C   UNL     1      49.054   7.480  16.735  0.00  0.00    +0.000 A 
ATOM     15  C   UNL     1      50.092   6.754  17.288  0.00  0.00    +0.000 A 
ATOM     16  C   UNL     1      49.686   5.395  17.188  0.00  0.00    +0.000 A 
ATOM     17  C   UNL     1      50.054   4.172  17.757  0.00  0.00    +0.000 A 
ATOM     18 CL   UNL     1      51.394   4.180  18.813  0.00  0.00    +0.000 Cl
ATOM     19  C   UNL     1      49.280   3.047  17.529  0.00  0.00    +0.000 A 
ATOM     20  C   UNL     1      48.204   3.172  16.661  0.00  0.00    +0.000 A 
ATOM     21  N   UNL     1      47.853   4.293  15.979  0.00  0.00    +0.000 NA
ATOM     22  C   UNL     1      48.600   5.365  16.311  0.00  0.00    +0.000 A 
ENDBRANCH  12  13
ENDBRANCH   4  12
TORSDOF 5
ENDMDL
MODEL 7
REMARK VINA RESULT:    -5.365      3.461      6.292
REMARK INTER + INTRA:          -7.225
REMARK INTER:                  -6.939
REMARK INTRA:                  -0.286
REMARK UNBOUND:                -0.449
REMARK  Name = 
REMARK  5 active torsions:
REMARK  status: ('A' for Active; 'I' for Inactive)
REMARK    1  A    between atoms: N_1  and  C_2
REMARK    2  A    between atoms: C_2  and  C_3
REMARK    3  A    between atoms: C_3  and  C_4
REMARK    4  A    between atoms: C_7  and  C_8
REMARK    5  A    between atoms: C_8  and  N_9
REMARK                            x       y       z     vdW  Elec       q    Type
REMARK                         _______ _______ _______ _____ _____    ______ ____
ROOT
ATOM      1  C   UNL     1      47.908   8.439  13.560  0.00  0.00    +0.000 A 
ATOM      2  C   UNL     1      48.409   7.135  13.536  0.00  0.00    +0.000 A 
ATOM      3  C   UNL     1      47.559   6.052  13.318  0.00  0.00    +0.000 A 
ATOM      4  C   UNL     1      46.204   6.289  13.123  0.00  0.00    +0.000 A 
ATOM      5  N   UNL     1      45.699   7.549  13.081  0.00  0.00    +0.000 NA
ATOM      6  C   UNL     1      46.552   8.585  13.300  0.00  0.00    +0.000 A 
ENDROOT
BRANCH   1   7
ATOM      7  C   UNL     1      48.813   9.625  13.812  0.00  0.00    +0.000 C 
BRANCH   7   8
ATOM      8  C   UNL     1      48.535  10.863  12.937  0.00  0.00    +0.000 C 
BRANCH   8   9
ATOM      9  N   UNL     1      49.186  10.747  11.631  0.00  0.00    +0.000 NA
ATOM     10  H   UNL     1      50.047  11.294  11.636  0.00  0.00    +0.000 HD
ATOM     11  H   UNL     1      48.594  11.164  10.913  0.00  0.00    +0.000 HD
ENDBRANCH   8   9
ENDBRANCH   7   8
ENDBRANCH   1   7
BRANCH   4  12
ATOM     12  C   UNL     1      45.190   5.187  13.221  0.00  0.00    +0.000 C 
BRANCH  12  13
ATOM     13  N   UNL     1      44.285   4.992  12.076  0.00  0.00    +0.000 N 
ATOM     14  C   UNL     1      43.212   4.117  12.189  0.00  0.00    +0.000 A 
ATOM     15  C   UNL     1      43.597   2.989  11.488  0.00  0.00    +0.000 A 
ATOM     16  C   UNL     1      44.463   3.467  10.466  0.00  0.00    +0.000 A 
ATOM     17  C   UNL     1      44.985   2.990   9.260  0.00  0.00    +0.000 A 
ATOM     18 CL   UNL     1      44.614   1.379   8.839  0.00  0.00    +0.000 Cl
ATOM     19  C   UNL     1      45.683   3.847   8.426  0.00  0.00    +0.000 A 
ATOM     20  C   UNL     1      45.907   5.141   8.875  0.00  0.00    +0.000 A 
ATOM     21  N   UNL     1      45.535   5.644  10.081  0.00  0.00    +0.000 NA
ATOM     22  C   UNL     1      44.794   4.781  10.804  0.00  0.00    +0.000 A 
ENDBRANCH  12  13
ENDBRANCH   4  12
TORSDOF 5
ENDMDL
MODEL 8
REMARK VINA RESULT:    -5.215      3.741      5.954
REMARK INTER + INTRA:          -7.036
REMARK INTER:                  -6.721
REMARK INTRA:                  -0.315
REMARK UNBOUND:                -0.449
REMARK  Name = 
REMARK  5 active torsions:
REMARK  status: ('A' for Active; 'I' for Inactive)
REMARK    1  A    between atoms: N_1  and  C_2
REMARK    2  A    between atoms: C_2  and  C_3
REMARK    3  A    between atoms: C_3  and  C_4
REMARK    4  A    between atoms: C_7  and  C_8
REMARK    5  A    between atoms: C_8  and  N_9
REMARK                            x       y       z     vdW  Elec       q    Type
REMARK                         _______ _______ _______ _____ _____    ______ ____
ROOT
ATOM      1  C   UNL     1      44.899   5.056  11.649  0.00  0.00    +0.000 A 
ATOM      2  C   UNL     1      45.314   4.685  12.930  0.00  0.00    +0.000 A 
ATOM      3  C   UNL     1      46.448   5.258  13.503  0.00  0.00    +0.000 A 
ATOM      4  C   UNL     1      47.161   6.207  12.780  0.00  0.00    +0.000 A 
ATOM      5  N   UNL     1      46.748   6.631  11.558  0.00  0.00    +0.000 NA
ATOM      6  C   UNL     1      45.639   6.051  11.023  0.00  0.00    +0.000 A 
ENDROOT
BRANCH   1   7
ATOM      7  C   UNL     1      43.681   4.433  11.005  0.00  0.00    +0.000 C 
BRANCH   7   8
ATOM      8  C   UNL     1      43.797   2.928  10.695  0.00  0.00    +0.000 C 
BRANCH   8   9
ATOM      9  N   UNL     1      43.051   2.127  11.668  0.00  0.00    +0.000 NA
ATOM     10  H   UNL     1      42.669   1.304  11.202  0.00  0.00    +0.000 HD
ATOM     11  H   UNL     1      42.248   2.656  12.006  0.00  0.00    +0.000 HD
ENDBRANCH   8   9
ENDBRANCH   7   8
ENDBRANCH   1   7
BRANCH   4  12
ATOM     12  C   UNL     1      48.551   6.613  13.171  0.00  0.00    +0.000 C 
BRANCH  12  13
ATOM     13  N   UNL     1      48.731   7.236  14.493  0.00  0.00    +0.000 N 
ATOM     14  C   UNL     1      49.352   8.476  14.589  0.00  0.00    +0.000 A 
ATOM     15  C   UNL     1      50.624   8.202  15.055  0.00  0.00    +0.000 A 
ATOM     16  C   UNL     1      50.482   7.031  15.849  0.00  0.00    +0.000 A 
ATOM     17  C   UNL     1      51.226   6.358  16.823  0.00  0.00    +0.000 A 
ATOM     18 CL   UNL     1      52.777   6.975  17.177  0.00  0.00    +0.000 Cl
ATOM     19  C   UNL     1      50.656   5.304  17.517  0.00  0.00    +0.000 A 
ATOM     20  C   UNL     1      49.380   4.905  17.145  0.00  0.00    +0.000 A 
ATOM     21  N   UNL     1      48.641   5.430  16.134  0.00  0.00    +0.000 NA
ATOM     22  C   UNL     1      49.224   6.500  15.558  0.00  0.00    +0.000 A 
ENDBRANCH  12  13
ENDBRANCH   4  12
TORSDOF 5
ENDMDL
