MODEL 1
REMARK VINA RESULT:    -8.241      0.000      0.000
REMARK INTER + INTRA:         -10.364
REMARK INTER:                 -10.168
REMARK INTRA:                  -0.197
REMARK UNBOUND:                -0.197
REMARK  Name = 
REMARK  4 active torsions:
REMARK  status: ('A' for Active; 'I' for Inactive)
REMARK    1  A    between atoms: C_2  and  C_3
REMARK    2  A    between atoms: N_7  and  C_8
REMARK    3  A    between atoms: C_8  and  C_9
REMARK    4  A    between atoms: C_13  and  C_14
REMARK                            x       y       z     vdW  Elec       q    Type
REMARK                         _______ _______ _______ _____ _____    ______ ____
ROOT
ATOM      1  C   UNL     1      44.966   5.729  12.364  0.00  0.00    +0.000 A 
ATOM      2  C   UNL     1      45.288   4.759  13.323  0.00  0.00    +0.000 A 
ATOM      3  C   UNL     1      46.525   4.774  13.958  0.00  0.00    +0.000 A 
ATOM      4  C   UNL     1      47.454   5.775  13.657  0.00  0.00    +0.000 A 
ATOM      5  C   UNL     1      47.145   6.811  12.761  0.00  0.00    +0.000 A 
ATOM      6  C   UNL     1      45.871   6.793  12.172  0.00  0.00    +0.000 A 
ENDROOT
BRANCH   5   7
ATOM      7  C   UNL     1      48.153   7.802  12.331  0.00  0.00    +0.000 A 
ATOM      8  C   UNL     1      49.483   7.411  12.088  0.00  0.00    +0.000 A 
ATOM      9  C   UNL     1      50.422   8.320  11.606  0.00  0.00    +0.000 A 
ATOM     10  F   UNL     1      51.674   7.906  11.375  0.00  0.00    +0.000 F 
ATOM     11  C   UNL     1      50.078   9.635  11.342  0.00  0.00    +0.000 A 
ATOM     12  C   UNL     1      48.772  10.035  11.577  0.00  0.00    +0.000 A 
ATOM     13  F   UNL     1      48.415  11.298  11.313  0.00  0.00    +0.000 F 
ATOM     14  C   UNL     1      47.817   9.143  12.069  0.00  0.00    +0.000 A 
ENDBRANCH   5   7
BRANCH   1  15
ATOM     15  C   UNL     1      43.800   5.547  11.395  0.00  0.00    +0.000 C 
ATOM     16  C   UNL     1      42.670   4.712  11.994  0.00  0.00    +0.000 C 
ATOM     17  C   UNL     1      42.466   6.177  11.760  0.00  0.00    +0.000 C 
BRANCH  15  22
ATOM     18  C   UNL     1      46.017   2.234   8.137  0.00  0.00    +0.000 A 
ATOM     19  C   UNL     1      45.326   2.085   9.308  0.00  0.00    +0.000 A 
ATOM     20  N   UNL     1      44.731   3.113   9.941  0.00  0.00    +0.000 NA
ATOM     21  C   UNL     1      44.801   4.335   9.387  0.00  0.00    +0.000 A 
ATOM     22  N   UNL     1      44.208   5.435   9.995  0.00  0.00    +0.000 N 
ATOM     23  N   UNL     1      45.425   4.562   8.217  0.00  0.00    +0.000 NA
ATOM     24  C   UNL     1      46.042   3.508   7.631  0.00  0.00    +0.000 A 
ATOM     25  H   UNL     1      44.163   6.223   9.363  0.00  0.00    +0.000 HD
BRANCH  18  27
ATOM     26  N   UNL     1      47.178   0.252   6.974  0.00  0.00    +0.000 NA
ATOM     27  C   UNL     1      46.668   1.150   7.497  0.00  0.00    +0.000 C 
ENDBRANCH  18  27
ENDBRANCH  15  22
ENDBRANCH   1  15
TORSDOF 4
ENDMDL
MODEL 2
REMARK VINA RESULT:    -7.780      4.459      7.762
REMARK INTER + INTRA:          -9.796
REMARK INTER:                 -10.464
REMARK INTRA:                   0.668
REMARK UNBOUND:                -0.197
REMARK  Name = 
REMARK  4 active torsions:
REMARK  status: ('A' for Active; 'I' for Inactive)
REMARK    1  A    between atoms: C_2  and  C_3
REMARK    2  A    between atoms: N_7  and  C_8
REMARK    3  A    between atoms: C_8  and  C_9
REMARK    4  A    between atoms: C_13  and  C_14
REMARK                            x       y       z     vdW  Elec       q    Type
REMARK                         _______ _______ _______ _____ _____    ______ ____
ROOT
ATOM      1  C   UNL     1      45.228   4.770  12.190  0.00  0.00    +0.000 A 
ATOM      2  C   UNL     1      43.951   5.340  12.104  0.00  0.00    +0.000 A 
ATOM      3  C   UNL     1      43.175   5.172  10.962  0.00  0.00    +0.000 A 
ATOM      4  C   UNL     1      43.660   4.413   9.893  0.00  0.00    +0.000 A 
ATOM      5  C   UNL     1      44.901   3.760   9.965  0.00  0.00    +0.000 A 
ATOM      6  C   UNL     1      45.639   3.911  11.150  0.00  0.00    +0.000 A 
ENDROOT
BRANCH   5   7
ATOM      7  C   UNL     1      45.489   3.062   8.802  0.00  0.00    +0.000 A 
ATOM      8  C   UNL     1      45.878   3.783   7.658  0.00  0.00    +0.000 A 
ATOM      9  C   UNL     1      46.506   3.147   6.589  0.00  0.00    +0.000 A 
ATOM     10  F   UNL     1      46.872   3.869   5.522  0.00  0.00    +0.000 F 
ATOM     11  C   UNL     1      46.775   1.789   6.619  0.00  0.00    +0.000 A 
ATOM     12  C   UNL     1      46.397   1.067   7.740  0.00  0.00    +0.000 A 
ATOM     13  F   UNL     1      46.663  -0.244   7.796  0.00  0.00    +0.000 F 
ATOM     14  C   UNL     1      45.759   1.682   8.818  0.00  0.00    +0.000 A 
ENDBRANCH   5   7
BRANCH   1  15
ATOM     15  C   UNL     1      46.241   5.219  13.240  0.00  0.00    +0.000 C 
ATOM     16  C   UNL     1      47.454   5.910  12.620  0.00  0.00    +0.000 C 
ATOM     17  C   UNL     1      46.471   6.711  13.415  0.00  0.00    +0.000 C 
BRANCH  15  22
ATOM     18  C   UNL     1      49.141   4.376  17.409  0.00  0.00    +0.000 A 
ATOM     19  C   UNL     1      48.894   5.480  16.640  0.00  0.00    +0.000 A 
ATOM     20  N   UNL     1      47.992   5.488  15.642  0.00  0.00    +0.000 NA
ATOM     21  C   UNL     1      47.289   4.368  15.403  0.00  0.00    +0.000 A 
ATOM     22  N   UNL     1      46.346   4.314  14.384  0.00  0.00    +0.000 N 
ATOM     23  N   UNL     1      47.440   3.251  16.138  0.00  0.00    +0.000 NA
ATOM     24  C   UNL     1      48.384   3.273  17.109  0.00  0.00    +0.000 A 
ATOM     25  H   UNL     1      45.761   3.494  14.469  0.00  0.00    +0.000 HD
BRANCH  18  27
ATOM     26  N   UNL     1      50.909   4.389  19.281  0.00  0.00    +0.000 NA
ATOM     27  C   UNL     1      50.118   4.370  18.436  0.00  0.00    +0.000 C 
ENDBRANCH  18  27
ENDBRANCH  15  22
ENDBRANCH   1  15
TORSDOF 4
ENDMDL
MODEL 3
REMARK VINA RESULT:    -7.678      2.987      4.437
REMARK INTER + INTRA:          -9.670
REMARK INTER:                  -9.184
REMARK INTRA:                  -0.486
REMARK UNBOUND:                -0.197
REMARK  Name = 
REMARK  4 active torsions:
REMARK  status: ('A' for Active; 'I' for Inactive)
REMARK    1  A    between atoms: C_2  and  C_3
REMARK    2  A    between atoms: N_7  and  C_8
REMARK    3  A    between atoms: C_8  and  C_9
REMARK    4  A    between atoms: C_13  and  C_14
REMARK                            x       y       z     vdW  Elec       q    Type
REMARK                         _______ _______ _______ _____ _____    ______ ____
ROOT
ATOM      1  C   UNL     1      45.403   5.614  12.355  0.00  0.00    +0.000 A 
ATOM      2  C   UNL     1      45.772   6.896  11.928  0.00  0.00    +0.000 A 
ATOM      3  C   UNL     1      46.737   7.623  12.620  0.00  0.00    +0.000 A 
ATOM      4  C   UNL     1      47.360   7.066  13.741  0.00  0.00    +0.000 A 
ATOM      5  C   UNL     1      47.078   5.756  14.158  0.00  0.00    +0.000 A 
ATOM      6  C   UNL     1      46.134   5.033  13.411  0.00  0.00    +0.000 A 
ENDROOT
BRANCH   5   7
ATOM      7  C   UNL     1      47.627   5.196  15.411  0.00  0.00    +0.000 A 
ATOM      8  C   UNL     1      48.614   5.892  16.133  0.00  0.00    +0.000 A 
ATOM      9  C   UNL     1      49.081   5.413  17.355  0.00  0.00    +0.000 A 
ATOM     10  F   UNL     1      50.011   6.110  18.019  0.00  0.00    +0.000 F 
ATOM     11  C   UNL     1      48.584   4.242  17.904  0.00  0.00    +0.000 A 
ATOM     12  C   UNL     1      47.612   3.547  17.203  0.00  0.00    +0.000 A 
ATOM     13  F   UNL     1      47.107   2.421  17.725  0.00  0.00    +0.000 F 
ATOM     14  C   UNL     1      47.137   4.004  15.973  0.00  0.00    +0.000 A 
ENDBRANCH   5   7
BRANCH   1  15
ATOM     15  C   UNL     1      44.122   4.942  11.867  0.00  0.00    +0.000 C 
ATOM     16  C   UNL     1      42.951   5.154  12.824  0.00  0.00    +0.000 C 
ATOM     17  C   UNL     1      42.950   5.832  11.489  0.00  0.00    +0.000 C 
BRANCH  15  22
ATOM     18  C   UNL     1      46.031   3.118   7.446  0.00  0.00    +0.000 A 
ATOM     19  C   UNL     1      46.236   4.267   8.159  0.00  0.00    +0.000 A 
ATOM     20  N   UNL     1      45.695   4.481   9.373  0.00  0.00    +0.000 NA
ATOM     21  C   UNL     1      44.937   3.514   9.916  0.00  0.00    +0.000 A 
ATOM     22  N   UNL     1      44.349   3.678  11.165  0.00  0.00    +0.000 N 
ATOM     23  N   UNL     1      44.718   2.338   9.302  0.00  0.00    +0.000 NA
ATOM     24  C   UNL     1      45.249   2.177   8.067  0.00  0.00    +0.000 A 
ATOM     25  H   UNL     1      43.998   2.801  11.523  0.00  0.00    +0.000 HD
BRANCH  18  27
ATOM     26  N   UNL     1      47.045   2.768   5.106  0.00  0.00    +0.000 NA
ATOM     27  C   UNL     1      46.578   2.917   6.155  0.00  0.00    +0.000 C 
ENDBRANCH  18  27
ENDBRANCH  15  22
ENDBRANCH   1  15
TORSDOF 4
ENDMDL
MODEL 4
REMARK VINA RESULT:    -7.651      3.947      7.264
REMARK INTER + INTRA:          -9.637
REMARK INTER:                  -9.233
REMARK INTRA:                  -0.404
REMARK UNBOUND:                -0.197
REMARK  Name = 
REMARK  4 active torsions:
REMARK  status: ('A' for Active; 'I' for Inactive)
REMARK    1  A    between atoms: C_2  and  C_3
REMARK    2  A    between atoms: N_7  and  C_8
REMARK    3  A    between atoms: C_8  and  C_9
REMARK    4  A    between atoms: C_13  and  C_14
REMARK                            x       y       z     vdW  Elec       q    Type
REMARK                         _______ _______ _______ _____ _____    ______ ____
ROOT
ATOM      1  C   UNL     1      45.039   5.769  11.480  0.00  0.00    +0.000 A 
ATOM      2  C   UNL     1      43.799   5.387  12.007  0.00  0.00    +0.000 A 
ATOM      3  C   UNL     1      43.127   4.277  11.505  0.00  0.00    +0.000 A 
ATOM      4  C   UNL     1      43.699   3.520  10.477  0.00  0.00    +0.000 A 
ATOM      5  C   UNL     1      44.974   3.820   9.972  0.00  0.00    +0.000 A 
ATOM      6  C   UNL     1      45.645   4.919  10.532  0.00  0.00    +0.000 A 
ENDROOT
BRANCH   5   7
ATOM      7  C   UNL     1      45.539   3.116   8.802  0.00  0.00    +0.000 A 
ATOM      8  C   UNL     1      45.923   3.832   7.653  0.00  0.00    +0.000 A 
ATOM      9  C   UNL     1      46.531   3.189   6.576  0.00  0.00    +0.000 A 
ATOM     10  F   UNL     1      46.893   3.907   5.506  0.00  0.00    +0.000 F 
ATOM     11  C   UNL     1      46.783   1.828   6.603  0.00  0.00    +0.000 A 
ATOM     12  C   UNL     1      46.409   1.111   7.728  0.00  0.00    +0.000 A 
ATOM     13  F   UNL     1      46.660  -0.204   7.780  0.00  0.00    +0.000 F 
ATOM     14  C   UNL     1      45.792   1.733   8.814  0.00  0.00    +0.000 A 
ENDBRANCH   5   7
BRANCH   1  15
ATOM     15  C   UNL     1      45.629   7.154  11.734  0.00  0.00    +0.000 C 
ATOM     16  C   UNL     1      44.709   8.276  11.254  0.00  0.00    +0.000 C 
ATOM     17  C   UNL     1      44.916   8.062  12.722  0.00  0.00    +0.000 C 
BRANCH  15  22
ATOM     18  C   UNL     1      49.913   7.319  14.584  0.00  0.00    +0.000 A 
ATOM     19  C   UNL     1      48.645   6.865  14.815  0.00  0.00    +0.000 A 
ATOM     20  N   UNL     1      47.698   6.823  13.859  0.00  0.00    +0.000 NA
ATOM     21  C   UNL     1      48.020   7.228  12.619  0.00  0.00    +0.000 A 
ATOM     22  N   UNL     1      47.084   7.212  11.592  0.00  0.00    +0.000 N 
ATOM     23  N   UNL     1      49.255   7.651  12.297  0.00  0.00    +0.000 NA
ATOM     24  C   UNL     1      50.169   7.712  13.295  0.00  0.00    +0.000 A 
ATOM     25  H   UNL     1      47.526   7.336  10.692  0.00  0.00    +0.000 HD
BRANCH  18  27
ATOM     26  N   UNL     1      51.674   7.448  16.459  0.00  0.00    +0.000 NA
ATOM     27  C   UNL     1      50.892   7.389  15.606  0.00  0.00    +0.000 C 
ENDBRANCH  18  27
ENDBRANCH  15  22
ENDBRANCH   1  15
TORSDOF 4
ENDMDL
MODEL 5
REMARK VINA RESULT:    -7.473      4.099      7.158
REMARK INTER + INTRA:          -9.417
REMARK INTER:                  -9.858
REMARK INTRA:                   0.441
REMARK UNBOUND:                -0.197
REMARK  Name = 
REMARK  4 active torsions:
REMARK  status: ('A' for Active; 'I' for Inactive)
REMARK    1  A    between atoms: C_2  and  C_3
REMARK    2  A    between atoms: N_7  and  C_8
REMARK    3  A    between atoms: C_8  and  C_9
REMARK    4  A    between atoms: C_13  and  C_14
REMARK                            x       y       z     vdW  Elec       q    Type
REMARK                         _______ _______ _______ _____ _____    ______ ____
ROOT
ATOM      1  C   UNL     1      47.234   7.878  12.451  0.00  0.00    +0.000 A 
ATOM      2  C   UNL     1      46.351   8.962  12.529  0.00  0.00    +0.000 A 
ATOM      3  C   UNL     1      45.074   8.876  11.982  0.00  0.00    +0.000 A 
ATOM      4  C   UNL     1      44.656   7.694  11.366  0.00  0.00    +0.000 A 
ATOM      5  C   UNL     1      45.479   6.557  11.334  0.00  0.00    +0.000 A 
ATOM      6  C   UNL     1      46.744   6.662  11.935  0.00  0.00    +0.000 A 
ENDROOT
BRANCH   5   7
ATOM      7  C   UNL     1      45.110   5.342  10.577  0.00  0.00    +0.000 A 
ATOM      8  C   UNL     1      45.580   5.146   9.265  0.00  0.00    +0.000 A 
ATOM      9  C   UNL     1      45.304   3.969   8.572  0.00  0.00    +0.000 A 
ATOM     10  F   UNL     1      45.780   3.814   7.331  0.00  0.00    +0.000 F 
ATOM     11  C   UNL     1      44.565   2.952   9.152  0.00  0.00    +0.000 A 
ATOM     12  C   UNL     1      44.095   3.132  10.443  0.00  0.00    +0.000 A 
ATOM     13  F   UNL     1      43.392   2.153  11.028  0.00  0.00    +0.000 F 
ATOM     14  C   UNL     1      44.352   4.306  11.152  0.00  0.00    +0.000 A 
ENDBRANCH   5   7
BRANCH   1  15
ATOM     15  C   UNL     1      48.732   8.041  12.699  0.00  0.00    +0.000 C 
ATOM     16  C   UNL     1      49.564   7.743  11.453  0.00  0.00    +0.000 C 
ATOM     17  C   UNL     1      49.460   9.149  11.956  0.00  0.00    +0.000 C 
BRANCH  15  22
ATOM     18  C   UNL     1      47.700   4.561  16.350  0.00  0.00    +0.000 A 
ATOM     19  C   UNL     1      47.529   4.583  14.994  0.00  0.00    +0.000 A 
ATOM     20  N   UNL     1      47.987   5.580  14.215  0.00  0.00    +0.000 NA
ATOM     21  C   UNL     1      48.660   6.589  14.794  0.00  0.00    +0.000 A 
ATOM     22  N   UNL     1      49.154   7.648  14.043  0.00  0.00    +0.000 N 
ATOM     23  N   UNL     1      48.908   6.625  16.116  0.00  0.00    +0.000 NA
ATOM     24  C   UNL     1      48.399   5.621  16.869  0.00  0.00    +0.000 A 
ATOM     25  H   UNL     1      49.808   8.203  14.579  0.00  0.00    +0.000 HD
BRANCH  18  27
ATOM     26  N   UNL     1      46.755   2.660  17.807  0.00  0.00    +0.000 NA
ATOM     27  C   UNL     1      47.184   3.521  17.164  0.00  0.00    +0.000 C 
ENDBRANCH  18  27
ENDBRANCH  15  22
ENDBRANCH   1  15
TORSDOF 4
ENDMDL
MODEL 6
REMARK VINA RESULT:    -7.246      4.918      8.208
REMARK INTER + INTRA:          -9.137
REMARK INTER:                  -8.555
REMARK INTRA:                  -0.581
REMARK UNBOUND:                -0.197
REMARK  Name = 
REMARK  4 active torsions:
REMARK  status: ('A' for Active; 'I' for Inactive)
REMARK    1  A    between atoms: C_2  and  C_3
REMARK    2  A    between atoms: N_7  and  C_8
REMARK    3  A    between atoms: C_8  and  C_9
REMARK    4  A    between atoms: C_13  and  C_14
REMARK                            x       y       z     vdW  Elec       q    Type
REMARK                         _______ _______ _______ _____ _____    ______ ____
ROOT
ATOM      1  C   UNL     1      47.414   7.730  12.534  0.00  0.00    +0.000 A 
ATOM      2  C   UNL     1      46.579   8.850  12.629  0.00  0.00    +0.000 A 
ATOM      3  C   UNL     1      45.294   8.824  12.094  0.00  0.00    +0.000 A 
ATOM      4  C   UNL     1      44.820   7.666  11.471  0.00  0.00    +0.000 A 
ATOM      5  C   UNL     1      45.594   6.495  11.422  0.00  0.00    +0.000 A 
ATOM      6  C   UNL     1      46.867   6.541  12.011  0.00  0.00    +0.000 A 
ENDROOT
BRANCH   5   7
ATOM      7  C   UNL     1      45.165   5.305  10.657  0.00  0.00    +0.000 A 
ATOM      8  C   UNL     1      45.586   5.119   9.327  0.00  0.00    +0.000 A 
ATOM      9  C   UNL     1      45.254   3.963   8.624  0.00  0.00    +0.000 A 
ATOM     10  F   UNL     1      45.684   3.817   7.365  0.00  0.00    +0.000 F 
ATOM     11  C   UNL     1      44.507   2.956   9.212  0.00  0.00    +0.000 A 
ATOM     12  C   UNL     1      44.086   3.125  10.521  0.00  0.00    +0.000 A 
ATOM     13  F   UNL     1      43.377   2.155  11.113  0.00  0.00    +0.000 F 
ATOM     14  C   UNL     1      44.399   4.280  11.241  0.00  0.00    +0.000 A 
ENDBRANCH   5   7
BRANCH   1  15
ATOM     15  C   UNL     1      48.919   7.827  12.768  0.00  0.00    +0.000 C 
ATOM     16  C   UNL     1      49.689   8.142  11.487  0.00  0.00    +0.000 C 
ATOM     17  C   UNL     1      49.587   9.176  12.564  0.00  0.00    +0.000 C 
BRANCH  15  22
ATOM     18  C   UNL     1      49.575   7.453  17.861  0.00  0.00    +0.000 A 
ATOM     19  C   UNL     1      48.737   8.189  17.071  0.00  0.00    +0.000 A 
ATOM     20  N   UNL     1      48.669   8.034  15.735  0.00  0.00    +0.000 NA
ATOM     21  C   UNL     1      49.444   7.102  15.157  0.00  0.00    +0.000 A 
ATOM     22  N   UNL     1      49.420   6.898  13.782  0.00  0.00    +0.000 N 
ATOM     23  N   UNL     1      50.265   6.307  15.865  0.00  0.00    +0.000 NA
ATOM     24  C   UNL     1      50.332   6.519  17.201  0.00  0.00    +0.000 A 
ATOM     25  H   UNL     1      49.885   6.037  13.531  0.00  0.00    +0.000 HD
BRANCH  18  27
ATOM     26  N   UNL     1      49.708   7.802  20.409  0.00  0.00    +0.000 NA
ATOM     27  C   UNL     1      49.662   7.647  19.262  0.00  0.00    +0.000 C 
ENDBRANCH  18  27
ENDBRANCH  15  22
ENDBRANCH   1  15
TORSDOF 4
ENDMDL
MODEL 7
REMARK VINA RESULT:    -7.144      3.821      6.253
REMARK INTER + INTRA:          -9.011
REMARK INTER:                  -8.335
REMARK INTRA:                  -0.675
REMARK UNBOUND:                -0.197
REMARK  Name = 
REMARK  4 active torsions:
REMARK  status: ('A' for Active; 'I' for Inactive)
REMARK    1  A    between atoms: C_2  and  C_3
REMARK    2  A    between atoms: N_7  and  C_8
REMARK    3  A    between atoms: C_8  and  C_9
REMARK    4  A    between atoms: C_13  and  C_14
REMARK                            x       y       z     vdW  Elec       q    Type
REMARK                         _______ _______ _______ _____ _____    ______ ____
ROOT
ATOM      1  C   UNL     1      48.436   8.184  14.159  0.00  0.00    +0.000 A 
ATOM      2  C   UNL     1      48.275   9.310  14.977  0.00  0.00    +0.000 A 
ATOM      3  C   UNL     1      48.370   9.200  16.361  0.00  0.00    +0.000 A 
ATOM      4  C   UNL     1      48.647   7.961  16.946  0.00  0.00    +0.000 A 
ATOM      5  C   UNL     1      48.892   6.823  16.163  0.00  0.00    +0.000 A 
ATOM      6  C   UNL     1      48.835   6.977  14.769  0.00  0.00    +0.000 A 
ENDROOT
BRANCH   5   7
ATOM      7  C   UNL     1      49.058   5.481  16.760  0.00  0.00    +0.000 A 
ATOM      8  C   UNL     1      47.974   4.586  16.822  0.00  0.00    +0.000 A 
ATOM      9  C   UNL     1      48.138   3.291  17.309  0.00  0.00    +0.000 A 
ATOM     10  F   UNL     1      47.085   2.466  17.340  0.00  0.00    +0.000 F 
ATOM     11  C   UNL     1      49.373   2.839  17.742  0.00  0.00    +0.000 A 
ATOM     12  C   UNL     1      50.450   3.710  17.687  0.00  0.00    +0.000 A 
ATOM     13  F   UNL     1      51.657   3.286  18.085  0.00  0.00    +0.000 F 
ATOM     14  C   UNL     1      50.306   5.014  17.211  0.00  0.00    +0.000 A 
ENDBRANCH   5   7
BRANCH   1  15
ATOM     15  C   UNL     1      47.988   8.179  12.700  0.00  0.00    +0.000 C 
ATOM     16  C   UNL     1      48.843   9.094  11.825  0.00  0.00    +0.000 C 
ATOM     17  C   UNL     1      48.942   7.609  11.664  0.00  0.00    +0.000 C 
BRANCH  15  22
ATOM     18  C   UNL     1      44.364   4.593  11.982  0.00  0.00    +0.000 A 
ATOM     19  C   UNL     1      45.618   4.570  12.528  0.00  0.00    +0.000 A 
ATOM     20  N   UNL     1      46.355   5.681  12.713  0.00  0.00    +0.000 NA
ATOM     21  C   UNL     1      45.827   6.866  12.364  0.00  0.00    +0.000 A 
ATOM     22  N   UNL     1      46.541   8.047  12.527  0.00  0.00    +0.000 N 
ATOM     23  N   UNL     1      44.587   6.983  11.858  0.00  0.00    +0.000 NA
ATOM     24  C   UNL     1      43.892   5.838  11.654  0.00  0.00    +0.000 A 
ATOM     25  H   UNL     1      45.942   8.855  12.424  0.00  0.00    +0.000 HD
BRANCH  18  27
ATOM     26  N   UNL     1      43.016   2.439  11.572  0.00  0.00    +0.000 NA
ATOM     27  C   UNL     1      43.611   3.413  11.761  0.00  0.00    +0.000 C 
ENDBRANCH  18  27
ENDBRANCH  15  22
ENDBRANCH   1  15
TORSDOF 4
ENDMDL
MODEL 8
REMARK VINA RESULT:    -6.685      2.281      3.280
REMARK INTER + INTRA:          -8.444
REMARK INTER:                  -8.904
REMARK INTRA:                   0.459
REMARK UNBOUND:                -0.197
REMARK  Name = 
REMARK  4 active torsions:
REMARK  status: ('A' for Active; 'I' for Inactive)
REMARK    1  A    between atoms: C_2  and  C_3
REMARK    2  A    between atoms: N_7  and  C_8
REMARK    3  A    between atoms: C_8  and  C_9
REMARK    4  A    between atoms: C_13  and  C_14
REMARK                            x       y       z     vdW  Elec       q    Type
REMARK                         _______ _______ _______ _____ _____    ______ ____
ROOT
ATOM      1  C   UNL     1      45.328   7.016  11.612  0.00  0.00    +0.000 A 
ATOM      2  C   UNL     1      44.898   8.349  11.606  0.00  0.00    +0.000 A 
ATOM      3  C   UNL     1      45.470   9.282  12.465  0.00  0.00    +0.000 A 
ATOM      4  C   UNL     1      46.496   8.896  13.332  0.00  0.00    +0.000 A 
ATOM      5  C   UNL     1      47.012   7.590  13.317  0.00  0.00    +0.000 A 
ATOM      6  C   UNL     1      46.444   6.685  12.407  0.00  0.00    +0.000 A 
ENDROOT
BRANCH   5   7
ATOM      7  C   UNL     1      48.004   7.128  14.311  0.00  0.00    +0.000 A 
ATOM      8  C   UNL     1      49.134   7.910  14.610  0.00  0.00    +0.000 A 
ATOM      9  C   UNL     1      50.033   7.522  15.602  0.00  0.00    +0.000 A 
ATOM     10  F   UNL     1      51.091   8.300  15.867  0.00  0.00    +0.000 F 
ATOM     11  C   UNL     1      49.841   6.360  16.330  0.00  0.00    +0.000 A 
ATOM     12  C   UNL     1      48.732   5.580  16.045  0.00  0.00    +0.000 A 
ATOM     13  F   UNL     1      48.519   4.461  16.749  0.00  0.00    +0.000 F 
ATOM     14  C   UNL     1      47.824   5.945  15.050  0.00  0.00    +0.000 A 
ENDBRANCH   5   7
BRANCH   1  15
ATOM     15  C   UNL     1      44.504   5.901  10.971  0.00  0.00    +0.000 C 
ATOM     16  C   UNL     1      44.067   4.844  11.984  0.00  0.00    +0.000 C 
ATOM     17  C   UNL     1      43.048   5.764  11.385  0.00  0.00    +0.000 C 
BRANCH  15  22
ATOM     18  C   UNL     1      46.099   1.895   8.159  0.00  0.00    +0.000 A 
ATOM     19  C   UNL     1      45.359   2.008   9.302  0.00  0.00    +0.000 A 
ATOM     20  N   UNL     1      44.965   3.194   9.804  0.00  0.00    +0.000 NA
ATOM     21  C   UNL     1      45.297   4.313   9.140  0.00  0.00    +0.000 A 
ATOM     22  N   UNL     1      44.921   5.566   9.610  0.00  0.00    +0.000 N 
ATOM     23  N   UNL     1      45.988   4.290   7.986  0.00  0.00    +0.000 NA
ATOM     24  C   UNL     1      46.397   3.080   7.534  0.00  0.00    +0.000 A 
ATOM     25  H   UNL     1      45.055   6.277   8.904  0.00  0.00    +0.000 HD
BRANCH  18  27
ATOM     26  N   UNL     1      46.890  -0.370   7.225  0.00  0.00    +0.000 NA
ATOM     27  C   UNL     1      46.537   0.644   7.658  0.00  0.00    +0.000 C 
ENDBRANCH  18  27
ENDBRANCH  15  22
ENDBRANCH   1  15
TORSDOF 4
ENDMDL
MODEL 9
REMARK VINA RESULT:    -6.376      5.939      8.175
REMARK INTER + INTRA:          -8.064
REMARK INTER:                  -7.663
REMARK INTRA:                  -0.401
REMARK UNBOUND:                -0.197
REMARK  Name = 
REMARK  4 active torsions:
REMARK  status: ('A' for Active; 'I' for Inactive)
REMARK    1  A    between atoms: C_2  and  C_3
REMARK    2  A    between atoms: N_7  and  C_8
REMARK    3  A    between atoms: C_8  and  C_9
REMARK    4  A    between atoms: C_13  and  C_14
REMARK                            x       y       z     vdW  Elec       q    Type
REMARK                         _______ _______ _______ _____ _____    ______ ____
ROOT
ATOM      1  C   UNL     1      49.193   6.889  15.533  0.00  0.00    +0.000 A 
ATOM      2  C   UNL     1      50.193   7.582  14.840  0.00  0.00    +0.000 A 
ATOM      3  C   UNL     1      50.086   7.796  13.469  0.00  0.00    +0.000 A 
ATOM      4  C   UNL     1      48.964   7.334  12.775  0.00  0.00    +0.000 A 
ATOM      5  C   UNL     1      47.903   6.703  13.442  0.00  0.00    +0.000 A 
ATOM      6  C   UNL     1      48.020   6.543  14.831  0.00  0.00    +0.000 A 
ENDROOT
BRANCH   5   7
ATOM      7  C   UNL     1      46.771   6.093  12.713  0.00  0.00    +0.000 A 
ATOM      8  C   UNL     1      46.674   6.211  11.314  0.00  0.00    +0.000 A 
ATOM      9  C   UNL     1      45.655   5.573  10.608  0.00  0.00    +0.000 A 
ATOM     10  F   UNL     1      45.604   5.700   9.277  0.00  0.00    +0.000 F 
ATOM     11  C   UNL     1      44.711   4.797  11.258  0.00  0.00    +0.000 A 
ATOM     12  C   UNL     1      44.794   4.672  12.635  0.00  0.00    +0.000 A 
ATOM     13  F   UNL     1      43.899   3.911  13.280  0.00  0.00    +0.000 F 
ATOM     14  C   UNL     1      45.800   5.309  13.362  0.00  0.00    +0.000 A 
ENDBRANCH   5   7
BRANCH   1  15
ATOM     15  C   UNL     1      49.430   6.319  16.930  0.00  0.00    +0.000 C 
ATOM     16  C   UNL     1      48.564   6.998  17.990  0.00  0.00    +0.000 C 
ATOM     17  C   UNL     1      48.284   5.580  17.601  0.00  0.00    +0.000 C 
BRANCH  15  22
ATOM     18  C   UNL     1      52.272   2.128  17.860  0.00  0.00    +0.000 A 
ATOM     19  C   UNL     1      51.065   2.332  17.251  0.00  0.00    +0.000 A 
ATOM     20  N   UNL     1      50.561   3.558  17.020  0.00  0.00    +0.000 NA
ATOM     21  C   UNL     1      51.285   4.629  17.387  0.00  0.00    +0.000 A 
ATOM     22  N   UNL     1      50.815   5.920  17.178  0.00  0.00    +0.000 N 
ATOM     23  N   UNL     1      52.498   4.519  17.955  0.00  0.00    +0.000 NA
ATOM     24  C   UNL     1      52.954   3.267  18.203  0.00  0.00    +0.000 A 
ATOM     25  H   UNL     1      51.550   6.603  17.306  0.00  0.00    +0.000 HD
BRANCH  18  27
ATOM     26  N   UNL     1      53.199  -0.219  18.369  0.00  0.00    +0.000 NA
ATOM     27  C   UNL     1      52.778   0.832  18.128  0.00  0.00    +0.000 C 
ENDBRANCH  18  27
ENDBRANCH  15  22
ENDBRANCH   1  15
TORSDOF 4
ENDMDL
