MODEL 1
REMARK VINA RESULT:    -7.967      0.000      0.000
REMARK INTER + INTRA:         -12.140
REMARK INTER:                 -11.227
REMARK INTRA:                  -0.913
REMARK UNBOUND:                -0.913
REMARK  Name = 
REMARK  7 active torsions:
REMARK  status: ('A' for Active; 'I' for Inactive)
REMARK    1  A    between atoms: C_2  and  C_3
REMARK    2  A    between atoms: C_3  and  N_4
REMARK    3  A    between atoms: C_3  and  C_22
REMARK    4  A    between atoms: C_5  and  C_7
REMARK    5  A    between atoms: C_10  and  C_11
REMARK    6  A    between atoms: C_11  and  N_12
REMARK    7  A    between atoms: C_13  and  C_15
REMARK                            x       y       z     vdW  Elec       q    Type
REMARK                         _______ _______ _______ _____ _____    ______ ____
ROOT
ATOM      1  N   UNL     1      47.864   5.678  15.634  0.00  0.00    +0.000 N 
ATOM      2  C   UNL     1      47.123   4.572  15.268  0.00  0.00    +0.000 C 
ATOM      3  O   UNL     1      46.973   3.598  15.997  0.00  0.00    +0.000 OA
ATOM      4  H   UNL     1      47.884   6.478  15.003  0.00  0.00    +0.000 HD
ENDROOT
BRANCH   2   5
ATOM      5  C   UNL     1      46.511   4.622  13.897  0.00  0.00    +0.000 A 
ATOM      6  C   UNL     1      46.613   5.777  13.125  0.00  0.00    +0.000 A 
ATOM      7  C   UNL     1      46.019   5.790  11.860  0.00  0.00    +0.000 A 
ATOM      8  C   UNL     1      45.349   4.653  11.397  0.00  0.00    +0.000 A 
ATOM      9  C   UNL     1      45.306   3.549  12.249  0.00  0.00    +0.000 A 
ATOM     10  N   UNL     1      45.865   3.502  13.482  0.00  0.00    +0.000 NA
BRANCH   8  11
ATOM     11  C   UNL     1      44.718   4.583  10.035  0.00  0.00    +0.000 C 
BRANCH  11  12
ATOM     12  N   UNL     1      45.596   4.063   9.019  0.00  0.00    +0.000 N 
ATOM     13  C   UNL     1      45.474   2.759   8.587  0.00  0.00    +0.000 C 
ATOM     14  O   UNL     1      44.653   1.971   9.045  0.00  0.00    +0.000 OA
ATOM     15  H   UNL     1      46.325   4.629   8.594  0.00  0.00    +0.000 HD
BRANCH  13  16
ATOM     16  C   UNL     1      46.408   2.399   7.530  0.00  0.00    +0.000 A 
ATOM     17  C   UNL     1      47.145   1.238   7.455  0.00  0.00    +0.000 A 
ATOM     18  O   UNL     1      47.900   1.284   6.323  0.00  0.00    +0.000 OA
ATOM     19  C   UNL     1      47.576   2.482   5.762  0.00  0.00    +0.000 A 
ATOM     20  N   UNL     1      46.691   3.193   6.428  0.00  0.00    +0.000 NA
ENDBRANCH  13  16
ENDBRANCH  11  12
ENDBRANCH   8  11
ENDBRANCH   2   5
BRANCH   1  21
ATOM     21  C   UNL     1      48.501   5.776  16.934  0.00  0.00    +0.000 C 
BRANCH  21  22
ATOM     22  C   UNL     1      48.482   7.219  17.402  0.00  0.00    +0.000 A 
ATOM     23  C   UNL     1      48.879   8.283  16.604  0.00  0.00    +0.000 A 
ATOM     24  S   UNL     1      48.729   9.803  17.370  0.00  0.00    +0.000 S 
ATOM     25  C   UNL     1      48.165   9.089  18.808  0.00  0.00    +0.000 A 
ATOM     26  N   UNL     1      47.863   9.844  19.898  0.00  0.00    +0.000 NA
ATOM     27  C   UNL     1      47.471   9.162  20.923  0.00  0.00    +0.000 A 
ATOM     28  N   UNL     1      47.346   7.794  20.953  0.00  0.00    +0.000 N 
ATOM     29  C   UNL     1      47.625   6.991  19.871  0.00  0.00    +0.000 A 
ATOM     30  O   UNL     1      47.510   5.771  19.914  0.00  0.00    +0.000 OA
ATOM     31  C   UNL     1      48.078   7.715  18.699  0.00  0.00    +0.000 A 
ATOM     32  H   UNL     1      47.036   7.326  21.791  0.00  0.00    +0.000 HD
ENDBRANCH  21  22
BRANCH  21  34
ATOM     33  N   UNL     1      50.938   4.746  16.997  0.00  0.00    +0.000 NA
ATOM     34  C   UNL     1      49.878   5.217  16.959  0.00  0.00    +0.000 C 
ENDBRANCH  21  34
ENDBRANCH   1  21
TORSDOF 7
ENDMDL
MODEL 2
REMARK VINA RESULT:    -7.938      2.604      3.767
REMARK INTER + INTRA:         -12.100
REMARK INTER:                 -11.239
REMARK INTRA:                  -0.861
REMARK UNBOUND:                -0.913
REMARK  Name = 
REMARK  7 active torsions:
REMARK  status: ('A' for Active; 'I' for Inactive)
REMARK    1  A    between atoms: C_2  and  C_3
REMARK    2  A    between atoms: C_3  and  N_4
REMARK    3  A    between atoms: C_3  and  C_22
REMARK    4  A    between atoms: C_5  and  C_7
REMARK    5  A    between atoms: C_10  and  C_11
REMARK    6  A    between atoms: C_11  and  N_12
REMARK    7  A    between atoms: C_13  and  C_15
REMARK                            x       y       z     vdW  Elec       q    Type
REMARK                         _______ _______ _______ _____ _____    ______ ____
ROOT
ATOM      1  N   UNL     1      47.417   4.838  15.873  0.00  0.00    +0.000 N 
ATOM      2  C   UNL     1      47.597   5.458  14.652  0.00  0.00    +0.000 C 
ATOM      3  O   UNL     1      48.410   6.356  14.475  0.00  0.00    +0.000 OA
ATOM      4  H   UNL     1      46.772   4.050  15.926  0.00  0.00    +0.000 HD
ENDROOT
BRANCH   2   5
ATOM      5  C   UNL     1      46.715   4.972  13.537  0.00  0.00    +0.000 A 
ATOM      6  C   UNL     1      46.213   5.869  12.599  0.00  0.00    +0.000 A 
ATOM      7  C   UNL     1      45.384   5.381  11.584  0.00  0.00    +0.000 A 
ATOM      8  C   UNL     1      45.088   4.016  11.527  0.00  0.00    +0.000 A 
ATOM      9  C   UNL     1      45.643   3.204  12.516  0.00  0.00    +0.000 A 
ATOM     10  N   UNL     1      46.445   3.641  13.517  0.00  0.00    +0.000 NA
BRANCH   8  11
ATOM     11  C   UNL     1      44.235   3.416  10.446  0.00  0.00    +0.000 C 
BRANCH  11  12
ATOM     12  N   UNL     1      44.992   2.769   9.406  0.00  0.00    +0.000 N 
ATOM     13  C   UNL     1      45.552   3.506   8.384  0.00  0.00    +0.000 C 
ATOM     14  O   UNL     1      45.423   4.722   8.280  0.00  0.00    +0.000 OA
ATOM     15  H   UNL     1      45.136   1.764   9.389  0.00  0.00    +0.000 HD
BRANCH  13  16
ATOM     16  C   UNL     1      46.318   2.711   7.436  0.00  0.00    +0.000 A 
ATOM     17  C   UNL     1      46.783   1.430   7.634  0.00  0.00    +0.000 A 
ATOM     18  O   UNL     1      47.458   1.043   6.518  0.00  0.00    +0.000 OA
ATOM     19  C   UNL     1      47.365   2.119   5.688  0.00  0.00    +0.000 A 
ATOM     20  N   UNL     1      46.696   3.144   6.172  0.00  0.00    +0.000 NA
ENDBRANCH  13  16
ENDBRANCH  11  12
ENDBRANCH   8  11
ENDBRANCH   2   5
BRANCH   1  21
ATOM     21  C   UNL     1      48.208   5.193  17.036  0.00  0.00    +0.000 C 
BRANCH  21  22
ATOM     22  C   UNL     1      49.313   4.171  17.231  0.00  0.00    +0.000 A 
ATOM     23  C   UNL     1      49.140   2.812  17.008  0.00  0.00    +0.000 A 
ATOM     24  S   UNL     1      50.555   1.893  17.276  0.00  0.00    +0.000 S 
ATOM     25  C   UNL     1      51.437   3.273  17.737  0.00  0.00    +0.000 A 
ATOM     26  N   UNL     1      52.739   3.182  18.121  0.00  0.00    +0.000 NA
ATOM     27  C   UNL     1      53.269   4.309  18.466  0.00  0.00    +0.000 A 
ATOM     28  N   UNL     1      52.618   5.518  18.455  0.00  0.00    +0.000 N 
ATOM     29  C   UNL     1      51.307   5.661  18.061  0.00  0.00    +0.000 A 
ATOM     30  O   UNL     1      50.738   6.748  18.059  0.00  0.00    +0.000 OA
ATOM     31  C   UNL     1      50.668   4.418  17.673  0.00  0.00    +0.000 A 
ATOM     32  H   UNL     1      53.094   6.360  18.742  0.00  0.00    +0.000 HD
ENDBRANCH  21  22
BRANCH  21  34
ATOM     33  N   UNL     1      46.767   5.527  19.230  0.00  0.00    +0.000 NA
ATOM     34  C   UNL     1      47.399   5.358  18.271  0.00  0.00    +0.000 C 
ENDBRANCH  21  34
ENDBRANCH   1  21
TORSDOF 7
ENDMDL
MODEL 3
REMARK VINA RESULT:    -7.896      1.470      2.142
REMARK INTER + INTRA:         -12.039
REMARK INTER:                 -11.095
REMARK INTRA:                  -0.944
REMARK UNBOUND:                -0.913
REMARK  Name = 
REMARK  7 active torsions:
REMARK  status: ('A' for Active; 'I' for Inactive)
REMARK    1  A    between atoms: C_2  and  C_3
REMARK    2  A    between atoms: C_3  and  N_4
REMARK    3  A    between atoms: C_3  and  C_22
REMARK    4  A    between atoms: C_5  and  C_7
REMARK    5  A    between atoms: C_10  and  C_11
REMARK    6  A    between atoms: C_11  and  N_12
REMARK    7  A    between atoms: C_13  and  C_15
REMARK                            x       y       z     vdW  Elec       q    Type
REMARK                         _______ _______ _______ _____ _____    ______ ____
ROOT
ATOM      1  N   UNL     1      47.756   5.519  15.761  0.00  0.00    +0.000 N 
ATOM      2  C   UNL     1      47.178   4.360  15.282  0.00  0.00    +0.000 C 
ATOM      3  O   UNL     1      47.187   3.304  15.904  0.00  0.00    +0.000 OA
ATOM      4  H   UNL     1      47.645   6.375  15.219  0.00  0.00    +0.000 HD
ENDROOT
BRANCH   2   5
ATOM      5  C   UNL     1      46.537   4.462  13.927  0.00  0.00    +0.000 A 
ATOM      6  C   UNL     1      46.480   5.689  13.270  0.00  0.00    +0.000 A 
ATOM      7  C   UNL     1      45.864   5.746  12.016  0.00  0.00    +0.000 A 
ATOM      8  C   UNL     1      45.333   4.583  11.450  0.00  0.00    +0.000 A 
ATOM      9  C   UNL     1      45.444   3.407  12.192  0.00  0.00    +0.000 A 
ATOM     10  N   UNL     1      46.028   3.314  13.411  0.00  0.00    +0.000 NA
BRANCH   8  11
ATOM     11  C   UNL     1      44.689   4.564  10.093  0.00  0.00    +0.000 C 
BRANCH  11  12
ATOM     12  N   UNL     1      45.549   4.058   9.054  0.00  0.00    +0.000 N 
ATOM     13  C   UNL     1      45.445   2.750   8.632  0.00  0.00    +0.000 C 
ATOM     14  O   UNL     1      44.655   1.946   9.117  0.00  0.00    +0.000 OA
ATOM     15  H   UNL     1      46.252   4.639   8.606  0.00  0.00    +0.000 HD
BRANCH  13  16
ATOM     16  C   UNL     1      46.355   2.406   7.550  0.00  0.00    +0.000 A 
ATOM     17  C   UNL     1      47.098   1.251   7.447  0.00  0.00    +0.000 A 
ATOM     18  O   UNL     1      47.826   1.313   6.299  0.00  0.00    +0.000 OA
ATOM     19  C   UNL     1      47.481   2.513   5.756  0.00  0.00    +0.000 A 
ATOM     20  N   UNL     1      46.607   3.212   6.449  0.00  0.00    +0.000 NA
ENDBRANCH  13  16
ENDBRANCH  11  12
ENDBRANCH   8  11
ENDBRANCH   2   5
BRANCH   1  21
ATOM     21  C   UNL     1      48.397   5.574  17.062  0.00  0.00    +0.000 C 
BRANCH  21  22
ATOM     22  C   UNL     1      48.212   6.955  17.662  0.00  0.00    +0.000 A 
ATOM     23  C   UNL     1      47.674   7.171  18.922  0.00  0.00    +0.000 A 
ATOM     24  S   UNL     1      47.608   8.821  19.361  0.00  0.00    +0.000 S 
ATOM     25  C   UNL     1      48.261   9.307  17.867  0.00  0.00    +0.000 A 
ATOM     26  N   UNL     1      48.450  10.622  17.574  0.00  0.00    +0.000 NA
ATOM     27  C   UNL     1      48.930  10.838  16.394  0.00  0.00    +0.000 A 
ATOM     28  N   UNL     1      49.245   9.858  15.484  0.00  0.00    +0.000 N 
ATOM     29  C   UNL     1      49.084   8.515  15.740  0.00  0.00    +0.000 A 
ATOM     30  O   UNL     1      49.368   7.652  14.917  0.00  0.00    +0.000 OA
ATOM     31  C   UNL     1      48.538   8.226  17.053  0.00  0.00    +0.000 A 
ATOM     32  H   UNL     1      49.614  10.100  14.577  0.00  0.00    +0.000 HD
ENDBRANCH  21  22
BRANCH  21  34
ATOM     33  N   UNL     1      50.941   4.846  17.019  0.00  0.00    +0.000 NA
ATOM     34  C   UNL     1      49.831   5.186  17.028  0.00  0.00    +0.000 C 
ENDBRANCH  21  34
ENDBRANCH   1  21
TORSDOF 7
ENDMDL
MODEL 4
REMARK VINA RESULT:    -7.860      2.136      3.792
REMARK INTER + INTRA:         -11.989
REMARK INTER:                 -10.992
REMARK INTRA:                  -0.997
REMARK UNBOUND:                -0.913
REMARK  Name = 
REMARK  7 active torsions:
REMARK  status: ('A' for Active; 'I' for Inactive)
REMARK    1  A    between atoms: C_2  and  C_3
REMARK    2  A    between atoms: C_3  and  N_4
REMARK    3  A    between atoms: C_3  and  C_22
REMARK    4  A    between atoms: C_5  and  C_7
REMARK    5  A    between atoms: C_10  and  C_11
REMARK    6  A    between atoms: C_11  and  N_12
REMARK    7  A    between atoms: C_13  and  C_15
REMARK                            x       y       z     vdW  Elec       q    Type
REMARK                         _______ _______ _______ _____ _____    ______ ____
ROOT
ATOM      1  N   UNL     1      47.782   5.497  16.278  0.00  0.00    +0.000 N 
ATOM      2  C   UNL     1      47.981   5.840  14.956  0.00  0.00    +0.000 C 
ATOM      3  O   UNL     1      48.827   6.650  14.597  0.00  0.00    +0.000 OA
ATOM      4  H   UNL     1      47.108   4.762  16.493  0.00  0.00    +0.000 HD
ENDROOT
BRANCH   2   5
ATOM      5  C   UNL     1      47.077   5.164  13.964  0.00  0.00    +0.000 A 
ATOM      6  C   UNL     1      46.332   5.923  13.065  0.00  0.00    +0.000 A 
ATOM      7  C   UNL     1      45.491   5.259  12.166  0.00  0.00    +0.000 A 
ATOM      8  C   UNL     1      45.425   3.862  12.182  0.00  0.00    +0.000 A 
ATOM      9  C   UNL     1      46.212   3.199  13.122  0.00  0.00    +0.000 A 
ATOM     10  N   UNL     1      47.033   3.808  14.011  0.00  0.00    +0.000 NA
BRANCH   8  11
ATOM     11  C   UNL     1      44.571   3.081  11.224  0.00  0.00    +0.000 C 
BRANCH  11  12
ATOM     12  N   UNL     1      45.308   2.525  10.118  0.00  0.00    +0.000 N 
ATOM     13  C   UNL     1      45.361   3.183   8.908  0.00  0.00    +0.000 C 
ATOM     14  O   UNL     1      44.780   4.242   8.690  0.00  0.00    +0.000 OA
ATOM     15  H   UNL     1      45.804   1.641  10.190  0.00  0.00    +0.000 HD
BRANCH  13  16
ATOM     16  C   UNL     1      46.177   2.512   7.907  0.00  0.00    +0.000 A 
ATOM     17  C   UNL     1      46.518   1.178   7.895  0.00  0.00    +0.000 A 
ATOM     18  O   UNL     1      47.294   0.945   6.801  0.00  0.00    +0.000 OA
ATOM     19  C   UNL     1      47.382   2.162   6.197  0.00  0.00    +0.000 A 
ATOM     20  N   UNL     1      46.737   3.137   6.801  0.00  0.00    +0.000 NA
ENDBRANCH  13  16
ENDBRANCH  11  12
ENDBRANCH   8  11
ENDBRANCH   2   5
BRANCH   1  21
ATOM     21  C   UNL     1      48.591   6.058  17.345  0.00  0.00    +0.000 C 
BRANCH  21  22
ATOM     22  C   UNL     1      49.950   5.383  17.362  0.00  0.00    +0.000 A 
ATOM     23  C   UNL     1      51.147   6.082  17.316  0.00  0.00    +0.000 A 
ATOM     24  S   UNL     1      52.527   5.076  17.378  0.00  0.00    +0.000 S 
ATOM     25  C   UNL     1      51.572   3.669  17.430  0.00  0.00    +0.000 A 
ATOM     26  N   UNL     1      52.139   2.433  17.470  0.00  0.00    +0.000 NA
ATOM     27  C   UNL     1      51.289   1.460  17.481  0.00  0.00    +0.000 A 
ATOM     28  N   UNL     1      49.924   1.611  17.463  0.00  0.00    +0.000 N 
ATOM     29  C   UNL     1      49.305   2.840  17.437  0.00  0.00    +0.000 A 
ATOM     30  O   UNL     1      48.084   2.959  17.420  0.00  0.00    +0.000 OA
ATOM     31  C   UNL     1      50.223   3.963  17.415  0.00  0.00    +0.000 A 
ATOM     32  H   UNL     1      49.318   0.805  17.470  0.00  0.00    +0.000 HD
ENDBRANCH  21  22
BRANCH  21  34
ATOM     33  N   UNL     1      47.409   5.976  19.711  0.00  0.00    +0.000 NA
ATOM     34  C   UNL     1      47.936   5.991  18.677  0.00  0.00    +0.000 C 
ENDBRANCH  21  34
ENDBRANCH   1  21
TORSDOF 7
ENDMDL
MODEL 5
REMARK VINA RESULT:    -7.608      2.109      3.002
REMARK INTER + INTRA:         -11.634
REMARK INTER:                 -10.459
REMARK INTRA:                  -1.175
REMARK UNBOUND:                -0.913
REMARK  Name = 
REMARK  7 active torsions:
REMARK  status: ('A' for Active; 'I' for Inactive)
REMARK    1  A    between atoms: C_2  and  C_3
REMARK    2  A    between atoms: C_3  and  N_4
REMARK    3  A    between atoms: C_3  and  C_22
REMARK    4  A    between atoms: C_5  and  C_7
REMARK    5  A    between atoms: C_10  and  C_11
REMARK    6  A    between atoms: C_11  and  N_12
REMARK    7  A    between atoms: C_13  and  C_15
REMARK                            x       y       z     vdW  Elec       q    Type
REMARK                         _______ _______ _______ _____ _____    ______ ____
ROOT
ATOM      1  N   UNL     1      48.057   7.569  15.178  0.00  0.00    +0.000 N 
ATOM      2  C   UNL     1      48.515   7.133  13.951  0.00  0.00    +0.000 C 
ATOM      3  O   UNL     1      49.666   7.306  13.569  0.00  0.00    +0.000 OA
ATOM      4  H   UNL     1      47.107   7.326  15.455  0.00  0.00    +0.000 HD
ENDROOT
BRANCH   2   5
ATOM      5  C   UNL     1      47.502   6.436  13.087  0.00  0.00    +0.000 A 
ATOM      6  C   UNL     1      47.175   6.951  11.835  0.00  0.00    +0.000 A 
ATOM      7  C   UNL     1      46.218   6.282  11.066  0.00  0.00    +0.000 A 
ATOM      8  C   UNL     1      45.623   5.117  11.561  0.00  0.00    +0.000 A 
ATOM      9  C   UNL     1      46.023   4.686  12.825  0.00  0.00    +0.000 A 
ATOM     10  N   UNL     1      46.942   5.311  13.600  0.00  0.00    +0.000 NA
BRANCH   8  11
ATOM     11  C   UNL     1      44.614   4.328  10.776  0.00  0.00    +0.000 C 
BRANCH  11  12
ATOM     12  N   UNL     1      45.194   3.259  10.003  0.00  0.00    +0.000 N 
ATOM     13  C   UNL     1      45.558   3.462   8.688  0.00  0.00    +0.000 C 
ATOM     14  O   UNL     1      45.393   4.525   8.099  0.00  0.00    +0.000 OA
ATOM     15  H   UNL     1      45.350   2.334  10.393  0.00  0.00    +0.000 HD
BRANCH  13  16
ATOM     16  C   UNL     1      46.164   2.298   8.059  0.00  0.00    +0.000 A 
ATOM     17  C   UNL     1      47.039   2.310   6.996  0.00  0.00    +0.000 A 
ATOM     18  O   UNL     1      47.369   1.023   6.700  0.00  0.00    +0.000 OA
ATOM     19  C   UNL     1      46.672   0.288   7.610  0.00  0.00    +0.000 A 
ATOM     20  N   UNL     1      45.938   0.986   8.451  0.00  0.00    +0.000 NA
ENDBRANCH  13  16
ENDBRANCH  11  12
ENDBRANCH   8  11
ENDBRANCH   2   5
BRANCH   1  21
ATOM     21  C   UNL     1      48.926   8.244  16.124  0.00  0.00    +0.000 C 
BRANCH  21  22
ATOM     22  C   UNL     1      48.537   7.858  17.538  0.00  0.00    +0.000 A 
ATOM     23  C   UNL     1      47.958   8.743  18.437  0.00  0.00    +0.000 A 
ATOM     24  S   UNL     1      47.594   8.037  19.950  0.00  0.00    +0.000 S 
ATOM     25  C   UNL     1      48.233   6.535  19.470  0.00  0.00    +0.000 A 
ATOM     26  N   UNL     1      48.255   5.474  20.321  0.00  0.00    +0.000 NA
ATOM     27  C   UNL     1      48.792   4.408  19.825  0.00  0.00    +0.000 A 
ATOM     28  N   UNL     1      49.302   4.305  18.554  0.00  0.00    +0.000 N 
ATOM     29  C   UNL     1      49.289   5.346  17.654  0.00  0.00    +0.000 A 
ATOM     30  O   UNL     1      49.750   5.240  16.522  0.00  0.00    +0.000 OA
ATOM     31  C   UNL     1      48.702   6.568  18.172  0.00  0.00    +0.000 A 
ATOM     32  H   UNL     1      49.711   3.441  18.233  0.00  0.00    +0.000 HD
ENDBRANCH  21  22
BRANCH  21  34
ATOM     33  N   UNL     1      48.993  10.868  15.787  0.00  0.00    +0.000 NA
ATOM     34  C   UNL     1      48.949   9.720  15.952  0.00  0.00    +0.000 C 
ENDBRANCH  21  34
ENDBRANCH   1  21
TORSDOF 7
ENDMDL
MODEL 6
REMARK VINA RESULT:    -7.578      2.130      3.683
REMARK INTER + INTRA:         -11.593
REMARK INTER:                 -10.554
REMARK INTRA:                  -1.038
REMARK UNBOUND:                -0.913
REMARK  Name = 
REMARK  7 active torsions:
REMARK  status: ('A' for Active; 'I' for Inactive)
REMARK    1  A    between atoms: C_2  and  C_3
REMARK    2  A    between atoms: C_3  and  N_4
REMARK    3  A    between atoms: C_3  and  C_22
REMARK    4  A    between atoms: C_5  and  C_7
REMARK    5  A    between atoms: C_10  and  C_11
REMARK    6  A    between atoms: C_11  and  N_12
REMARK    7  A    between atoms: C_13  and  C_15
REMARK                            x       y       z     vdW  Elec       q    Type
REMARK                         _______ _______ _______ _____ _____    ______ ____
ROOT
ATOM      1  N   UNL     1      48.175   6.490  15.796  0.00  0.00    +0.000 N 
ATOM      2  C   UNL     1      48.246   6.936  14.491  0.00  0.00    +0.000 C 
ATOM      3  O   UNL     1      48.994   7.838  14.134  0.00  0.00    +0.000 OA
ATOM      4  H   UNL     1      47.581   5.688  16.002  0.00  0.00    +0.000 HD
ENDROOT
BRANCH   2   5
ATOM      5  C   UNL     1      47.327   6.253  13.518  0.00  0.00    +0.000 A 
ATOM      6  C   UNL     1      47.181   6.750  12.225  0.00  0.00    +0.000 A 
ATOM      7  C   UNL     1      46.307   6.095  11.352  0.00  0.00    +0.000 A 
ATOM      8  C   UNL     1      45.613   4.961  11.788  0.00  0.00    +0.000 A 
ATOM      9  C   UNL     1      45.832   4.547  13.101  0.00  0.00    +0.000 A 
ATOM     10  N   UNL     1      46.666   5.159  13.976  0.00  0.00    +0.000 NA
BRANCH   8  11
ATOM     11  C   UNL     1      44.685   4.188  10.895  0.00  0.00    +0.000 C 
BRANCH  11  12
ATOM     12  N   UNL     1      45.353   3.194  10.093  0.00  0.00    +0.000 N 
ATOM     13  C   UNL     1      45.540   3.392   8.742  0.00  0.00    +0.000 C 
ATOM     14  O   UNL     1      45.140   4.387   8.145  0.00  0.00    +0.000 OA
ATOM     15  H   UNL     1      45.700   2.325  10.490  0.00  0.00    +0.000 HD
BRANCH  13  16
ATOM     16  C   UNL     1      46.264   2.316   8.083  0.00  0.00    +0.000 A 
ATOM     17  C   UNL     1      47.268   2.459   7.151  0.00  0.00    +0.000 A 
ATOM     18  O   UNL     1      47.680   1.219   6.772  0.00  0.00    +0.000 OA
ATOM     19  C   UNL     1      46.899   0.376   7.504  0.00  0.00    +0.000 A 
ATOM     20  N   UNL     1      46.038   0.965   8.307  0.00  0.00    +0.000 NA
ENDBRANCH  13  16
ENDBRANCH  11  12
ENDBRANCH   8  11
ENDBRANCH   2   5
BRANCH   1  21
ATOM     21  C   UNL     1      49.014   7.046  16.842  0.00  0.00    +0.000 C 
BRANCH  21  22
ATOM     22  C   UNL     1      50.236   6.169  17.034  0.00  0.00    +0.000 A 
ATOM     23  C   UNL     1      51.536   6.651  16.973  0.00  0.00    +0.000 A 
ATOM     24  S   UNL     1      52.721   5.453  17.256  0.00  0.00    +0.000 S 
ATOM     25  C   UNL     1      51.540   4.241  17.431  0.00  0.00    +0.000 A 
ATOM     26  N   UNL     1      51.887   2.947  17.669  0.00  0.00    +0.000 NA
ATOM     27  C   UNL     1      50.884   2.137  17.754  0.00  0.00    +0.000 A 
ATOM     28  N   UNL     1      49.567   2.504  17.629  0.00  0.00    +0.000 N 
ATOM     29  C   UNL     1      49.167   3.801  17.402  0.00  0.00    +0.000 A 
ATOM     30  O   UNL     1      47.986   4.113  17.290  0.00  0.00    +0.000 OA
ATOM     31  C   UNL     1      50.262   4.746  17.291  0.00  0.00    +0.000 A 
ATOM     32  H   UNL     1      48.833   1.815  17.703  0.00  0.00    +0.000 HD
ENDBRANCH  21  22
BRANCH  21  34
ATOM     33  N   UNL     1      47.758   7.453  19.135  0.00  0.00    +0.000 NA
ATOM     34  C   UNL     1      48.293   7.259  18.123  0.00  0.00    +0.000 C 
ENDBRANCH  21  34
ENDBRANCH   1  21
TORSDOF 7
ENDMDL
MODEL 7
REMARK VINA RESULT:    -7.221      2.568      3.833
REMARK INTER + INTRA:         -11.088
REMARK INTER:                 -10.220
REMARK INTRA:                  -0.869
REMARK UNBOUND:                -0.913
REMARK  Name = 
REMARK  7 active torsions:
REMARK  status: ('A' for Active; 'I' for Inactive)
REMARK    1  A    between atoms: C_2  and  C_3
REMARK    2  A    between atoms: C_3  and  N_4
REMARK    3  A    between atoms: C_3  and  C_22
REMARK    4  A    between atoms: C_5  and  C_7
REMARK    5  A    between atoms: C_10  and  C_11
REMARK    6  A    between atoms: C_11  and  N_12
REMARK    7  A    between atoms: C_13  and  C_15
REMARK                            x       y       z     vdW  Elec       q    Type
REMARK                         _______ _______ _______ _____ _____    ______ ____
ROOT
ATOM      1  N   UNL     1      48.105   6.666  15.332  0.00  0.00    +0.000 N 
ATOM      2  C   UNL     1      47.938   7.186  14.063  0.00  0.00    +0.000 C 
ATOM      3  O   UNL     1      48.484   8.217  13.688  0.00  0.00    +0.000 OA
ATOM      4  H   UNL     1      47.675   5.768  15.547  0.00  0.00    +0.000 HD
ENDROOT
BRANCH   2   5
ATOM      5  C   UNL     1      47.022   6.413  13.157  0.00  0.00    +0.000 A 
ATOM      6  C   UNL     1      46.623   5.124  13.498  0.00  0.00    +0.000 A 
ATOM      7  C   UNL     1      45.781   4.431  12.623  0.00  0.00    +0.000 A 
ATOM      8  C   UNL     1      45.356   5.044  11.440  0.00  0.00    +0.000 A 
ATOM      9  C   UNL     1      45.814   6.338  11.194  0.00  0.00    +0.000 A 
ATOM     10  N   UNL     1      46.633   7.038  12.015  0.00  0.00    +0.000 NA
BRANCH   8  11
ATOM     11  C   UNL     1      44.424   4.374  10.471  0.00  0.00    +0.000 C 
BRANCH  11  12
ATOM     12  N   UNL     1      45.035   3.295   9.737  0.00  0.00    +0.000 N 
ATOM     13  C   UNL     1      45.647   3.530   8.524  0.00  0.00    +0.000 C 
ATOM     14  O   UNL     1      45.688   4.635   7.992  0.00  0.00    +0.000 OA
ATOM     15  H   UNL     1      45.034   2.339  10.082  0.00  0.00    +0.000 HD
BRANCH  13  16
ATOM     16  C   UNL     1      46.250   2.346   7.929  0.00  0.00    +0.000 A 
ATOM     17  C   UNL     1      47.114   2.323   6.857  0.00  0.00    +0.000 A 
ATOM     18  O   UNL     1      47.444   1.027   6.603  0.00  0.00    +0.000 OA
ATOM     19  C   UNL     1      46.758   0.323   7.545  0.00  0.00    +0.000 A 
ATOM     20  N   UNL     1      46.031   1.048   8.369  0.00  0.00    +0.000 NA
ENDBRANCH  13  16
ENDBRANCH  11  12
ENDBRANCH   8  11
ENDBRANCH   2   5
BRANCH   1  21
ATOM     21  C   UNL     1      48.971   7.297  16.310  0.00  0.00    +0.000 C 
BRANCH  21  22
ATOM     22  C   UNL     1      49.383   6.279  17.356  0.00  0.00    +0.000 A 
ATOM     23  C   UNL     1      48.507   5.757  18.297  0.00  0.00    +0.000 A 
ATOM     24  S   UNL     1      49.228   4.607  19.335  0.00  0.00    +0.000 S 
ATOM     25  C   UNL     1      50.745   4.794  18.588  0.00  0.00    +0.000 A 
ATOM     26  N   UNL     1      51.833   4.100  19.018  0.00  0.00    +0.000 NA
ATOM     27  C   UNL     1      52.920   4.365  18.370  0.00  0.00    +0.000 A 
ATOM     28  N   UNL     1      53.015   5.255  17.328  0.00  0.00    +0.000 N 
ATOM     29  C   UNL     1      51.940   5.968  16.849  0.00  0.00    +0.000 A 
ATOM     30  O   UNL     1      52.040   6.760  15.919  0.00  0.00    +0.000 OA
ATOM     31  C   UNL     1      50.698   5.708  17.554  0.00  0.00    +0.000 A 
ATOM     32  H   UNL     1      53.899   5.415  16.869  0.00  0.00    +0.000 HD
ENDBRANCH  21  22
BRANCH  21  34
ATOM     33  N   UNL     1      47.912   9.468  17.391  0.00  0.00    +0.000 NA
ATOM     34  C   UNL     1      48.371   8.504  16.936  0.00  0.00    +0.000 C 
ENDBRANCH  21  34
ENDBRANCH   1  21
TORSDOF 7
ENDMDL
MODEL 8
REMARK VINA RESULT:    -6.921      1.400      1.752
REMARK INTER + INTRA:         -10.666
REMARK INTER:                 -10.007
REMARK INTRA:                  -0.659
REMARK UNBOUND:                -0.913
REMARK  Name = 
REMARK  7 active torsions:
REMARK  status: ('A' for Active; 'I' for Inactive)
REMARK    1  A    between atoms: C_2  and  C_3
REMARK    2  A    between atoms: C_3  and  N_4
REMARK    3  A    between atoms: C_3  and  C_22
REMARK    4  A    between atoms: C_5  and  C_7
REMARK    5  A    between atoms: C_10  and  C_11
REMARK    6  A    between atoms: C_11  and  N_12
REMARK    7  A    between atoms: C_13  and  C_15
REMARK                            x       y       z     vdW  Elec       q    Type
REMARK                         _______ _______ _______ _____ _____    ______ ____
ROOT
ATOM      1  N   UNL     1      47.644   5.895  15.177  0.00  0.00    +0.000 N 
ATOM      2  C   UNL     1      46.906   4.737  15.032  0.00  0.00    +0.000 C 
ATOM      3  O   UNL     1      46.828   3.882  15.906  0.00  0.00    +0.000 OA
ATOM      4  H   UNL     1      47.603   6.593  14.434  0.00  0.00    +0.000 HD
ENDROOT
BRANCH   2   5
ATOM      5  C   UNL     1      46.200   4.574  13.715  0.00  0.00    +0.000 A 
ATOM      6  C   UNL     1      46.036   3.307  13.161  0.00  0.00    +0.000 A 
ATOM      7  C   UNL     1      45.386   3.197  11.927  0.00  0.00    +0.000 A 
ATOM      8  C   UNL     1      44.912   4.347  11.288  0.00  0.00    +0.000 A 
ATOM      9  C   UNL     1      45.129   5.566  11.930  0.00  0.00    +0.000 A 
ATOM     10  N   UNL     1      45.758   5.712  13.121  0.00  0.00    +0.000 NA
BRANCH   8  11
ATOM     11  C   UNL     1      44.176   4.300   9.980  0.00  0.00    +0.000 C 
BRANCH  11  12
ATOM     12  N   UNL     1      44.838   3.511   8.974  0.00  0.00    +0.000 N 
ATOM     13  C   UNL     1      45.868   4.044   8.228  0.00  0.00    +0.000 C 
ATOM     14  O   UNL     1      46.260   5.200   8.350  0.00  0.00    +0.000 OA
ATOM     15  H   UNL     1      44.571   2.549   8.780  0.00  0.00    +0.000 HD
BRANCH  13  16
ATOM     16  C   UNL     1      46.457   3.108   7.283  0.00  0.00    +0.000 A 
ATOM     17  C   UNL     1      46.830   1.809   7.547  0.00  0.00    +0.000 A 
ATOM     18  O   UNL     1      47.345   1.272   6.407  0.00  0.00    +0.000 OA
ATOM     19  C   UNL     1      47.254   2.282   5.499  0.00  0.00    +0.000 A 
ATOM     20  N   UNL     1      46.731   3.401   5.954  0.00  0.00    +0.000 NA
ENDBRANCH  13  16
ENDBRANCH  11  12
ENDBRANCH   8  11
ENDBRANCH   2   5
BRANCH   1  21
ATOM     21  C   UNL     1      48.366   6.195  16.399  0.00  0.00    +0.000 C 
BRANCH  21  22
ATOM     22  C   UNL     1      48.883   7.620  16.348  0.00  0.00    +0.000 A 
ATOM     23  C   UNL     1      49.710   8.094  15.339  0.00  0.00    +0.000 A 
ATOM     24  S   UNL     1      50.118   9.744  15.511  0.00  0.00    +0.000 S 
ATOM     25  C   UNL     1      49.235   9.874  16.960  0.00  0.00    +0.000 A 
ATOM     26  N   UNL     1      49.187  11.042  17.655  0.00  0.00    +0.000 NA
ATOM     27  C   UNL     1      48.499  10.981  18.747  0.00  0.00    +0.000 A 
ATOM     28  N   UNL     1      47.850   9.860  19.203  0.00  0.00    +0.000 N 
ATOM     29  C   UNL     1      47.858   8.661  18.528  0.00  0.00    +0.000 A 
ATOM     30  O   UNL     1      47.275   7.668  18.949  0.00  0.00    +0.000 OA
ATOM     31  C   UNL     1      48.627   8.681  17.298  0.00  0.00    +0.000 A 
ATOM     32  H   UNL     1      47.332   9.883  20.068  0.00  0.00    +0.000 HD
ENDBRANCH  21  22
BRANCH  21  34
ATOM     33  N   UNL     1      50.296   4.470  16.949  0.00  0.00    +0.000 NA
ATOM     34  C   UNL     1      49.460   5.232  16.688  0.00  0.00    +0.000 C 
ENDBRANCH  21  34
ENDBRANCH   1  21
TORSDOF 7
ENDMDL
MODEL 9
REMARK VINA RESULT:    -6.577      4.140      9.204
REMARK INTER + INTRA:         -10.181
REMARK INTER:                  -9.640
REMARK INTRA:                  -0.542
REMARK UNBOUND:                -0.913
REMARK  Name = 
REMARK  7 active torsions:
REMARK  status: ('A' for Active; 'I' for Inactive)
REMARK    1  A    between atoms: C_2  and  C_3
REMARK    2  A    between atoms: C_3  and  N_4
REMARK    3  A    between atoms: C_3  and  C_22
REMARK    4  A    between atoms: C_5  and  C_7
REMARK    5  A    between atoms: C_10  and  C_11
REMARK    6  A    between atoms: C_11  and  N_12
REMARK    7  A    between atoms: C_13  and  C_15
REMARK                            x       y       z     vdW  Elec       q    Type
REMARK                         _______ _______ _______ _____ _____    ______ ____
ROOT
ATOM      1  N   UNL     1      45.604   5.890  13.641  0.00  0.00    +0.000 N 
ATOM      2  C   UNL     1      46.972   5.704  13.638  0.00  0.00    +0.000 C 
ATOM      3  O   UNL     1      47.685   6.016  12.692  0.00  0.00    +0.000 OA
ATOM      4  H   UNL     1      45.087   5.671  14.493  0.00  0.00    +0.000 HD
ENDROOT
BRANCH   2   5
ATOM      5  C   UNL     1      47.548   5.074  14.875  0.00  0.00    +0.000 A 
ATOM      6  C   UNL     1      48.326   5.829  15.749  0.00  0.00    +0.000 A 
ATOM      7  C   UNL     1      48.856   5.204  16.882  0.00  0.00    +0.000 A 
ATOM      8  C   UNL     1      48.588   3.852  17.117  0.00  0.00    +0.000 A 
ATOM      9  C   UNL     1      47.796   3.189  16.180  0.00  0.00    +0.000 A 
ATOM     10  N   UNL     1      47.271   3.759  15.069  0.00  0.00    +0.000 NA
BRANCH   8  11
ATOM     11  C   UNL     1      49.094   3.126  18.330  0.00  0.00    +0.000 C 
BRANCH  11  12
ATOM     12  N   UNL     1      50.530   3.036  18.390  0.00  0.00    +0.000 N 
ATOM     13  C   UNL     1      51.205   2.084  17.656  0.00  0.00    +0.000 C 
ATOM     14  O   UNL     1      50.643   1.257  16.945  0.00  0.00    +0.000 OA
ATOM     15  H   UNL     1      51.086   3.660  18.969  0.00  0.00    +0.000 HD
BRANCH  13  16
ATOM     16  C   UNL     1      52.652   2.149  17.795  0.00  0.00    +0.000 A 
ATOM     17  C   UNL     1      53.499   1.085  18.010  0.00  0.00    +0.000 A 
ATOM     18  O   UNL     1      54.772   1.561  18.090  0.00  0.00    +0.000 OA
ATOM     19  C   UNL     1      54.631   2.904  17.914  0.00  0.00    +0.000 A 
ATOM     20  N   UNL     1      53.396   3.319  17.730  0.00  0.00    +0.000 NA
ENDBRANCH  13  16
ENDBRANCH  11  12
ENDBRANCH   8  11
ENDBRANCH   2   5
BRANCH   1  21
ATOM     21  C   UNL     1      44.911   6.500  12.522  0.00  0.00    +0.000 C 
BRANCH  21  22
ATOM     22  C   UNL     1      45.020   5.601  11.305  0.00  0.00    +0.000 A 
ATOM     23  C   UNL     1      45.634   5.992  10.123  0.00  0.00    +0.000 A 
ATOM     24  S   UNL     1      45.642   4.774   8.925  0.00  0.00    +0.000 S 
ATOM     25  C   UNL     1      44.792   3.695   9.930  0.00  0.00    +0.000 A 
ATOM     26  N   UNL     1      44.446   2.453   9.498  0.00  0.00    +0.000 NA
ATOM     27  C   UNL     1      43.783   1.758  10.362  0.00  0.00    +0.000 A 
ATOM     28  N   UNL     1      43.441   2.189  11.620  0.00  0.00    +0.000 N 
ATOM     29  C   UNL     1      43.781   3.432  12.106  0.00  0.00    +0.000 A 
ATOM     30  O   UNL     1      43.467   3.804  13.231  0.00  0.00    +0.000 OA
ATOM     31  C   UNL     1      44.520   4.251  11.164  0.00  0.00    +0.000 A 
ATOM     32  H   UNL     1      42.918   1.593  12.243  0.00  0.00    +0.000 HD
ENDBRANCH  21  22
BRANCH  21  34
ATOM     33  N   UNL     1      45.706   8.968  11.992  0.00  0.00    +0.000 NA
ATOM     34  C   UNL     1      45.379   7.878  12.221  0.00  0.00    +0.000 C 
ENDBRANCH  21  34
ENDBRANCH   1  21
TORSDOF 7
ENDMDL
