MODEL 1
REMARK VINA RESULT:    -7.943      0.000      0.000
REMARK INTER + INTRA:         -11.707
REMARK INTER:                 -10.729
REMARK INTRA:                  -0.977
REMARK UNBOUND:                -0.977
REMARK  Name = 
REMARK  6 active torsions:
REMARK  status: ('A' for Active; 'I' for Inactive)
REMARK    1  A    between atoms: C_2  and  C_20
REMARK    2  A    between atoms: N_3  and  C_4
REMARK    3  A    between atoms: C_4  and  C_5
REMARK    4  A    between atoms: C_8  and  C_9
REMARK    5  A    between atoms: C_9  and  N_10
REMARK    6  A    between atoms: C_11  and  C_13
REMARK                            x       y       z     vdW  Elec       q    Type
REMARK                         _______ _______ _______ _____ _____    ______ ____
ROOT
ATOM      1  C   UNL     1      46.462   7.437  12.848  0.00  0.00    +0.000 A 
ATOM      2  C   UNL     1      46.573   6.040  12.803  0.00  0.00    +0.000 A 
ATOM      3  C   UNL     1      45.645   5.267  12.091  0.00  0.00    +0.000 A 
ATOM      4  C   UNL     1      44.601   5.875  11.380  0.00  0.00    +0.000 A 
ATOM      5  C   UNL     1      44.500   7.273  11.413  0.00  0.00    +0.000 A 
ATOM      6  C   UNL     1      45.429   8.045  12.124  0.00  0.00    +0.000 A 
ENDROOT
BRANCH   1   7
ATOM      7  C   UNL     1      47.435   8.261  13.658  0.00  0.00    +0.000 C 
BRANCH   7  10
ATOM      8  O   UNL     1      49.952   7.142  14.124  0.00  0.00    +0.000 OA
ATOM      9  C   UNL     1      49.127   7.147  15.034  0.00  0.00    +0.000 C 
ATOM     10  N   UNL     1      47.839   7.594  14.868  0.00  0.00    +0.000 N 
ATOM     11  H   UNL     1      47.288   7.805  15.692  0.00  0.00    +0.000 HD
BRANCH   9  12
ATOM     12  C   UNL     1      49.456   6.633  16.369  0.00  0.00    +0.000 A 
ATOM     13  C   UNL     1      50.289   7.339  17.228  0.00  0.00    +0.000 A 
ATOM     14  S   UNL     1      50.567   6.543  18.710  0.00  0.00    +0.000 S 
ATOM     15  C   UNL     1      49.545   5.253  18.278  0.00  0.00    +0.000 A 
ATOM     16  N   UNL     1      49.316   4.210  19.120  0.00  0.00    +0.000 NA
ATOM     17  C   UNL     1      48.490   3.328  18.672  0.00  0.00    +0.000 A 
ATOM     18  N   UNL     1      47.865   3.392  17.451  0.00  0.00    +0.000 N 
ATOM     19  C   UNL     1      48.088   4.402  16.556  0.00  0.00    +0.000 A 
ATOM     20  O   UNL     1      47.557   4.398  15.451  0.00  0.00    +0.000 OA
ATOM     21  C   UNL     1      49.008   5.427  17.015  0.00  0.00    +0.000 A 
ATOM     22  H   UNL     1      47.236   2.663  17.148  0.00  0.00    +0.000 HD
ENDBRANCH   9  12
ENDBRANCH   7  10
ENDBRANCH   1   7
BRANCH   4  23
ATOM     23  C   UNL     1      43.642   5.053  10.558  0.00  0.00    +0.000 C 
BRANCH  23  24
ATOM     24  N   UNL     1      44.213   4.537   9.337  0.00  0.00    +0.000 N 
ATOM     25  C   UNL     1      44.687   3.244   9.278  0.00  0.00    +0.000 C 
ATOM     26  O   UNL     1      44.630   2.469  10.232  0.00  0.00    +0.000 OA
ATOM     27  H   UNL     1      44.523   5.159   8.595  0.00  0.00    +0.000 HD
BRANCH  25  28
ATOM     28  C   UNL     1      45.267   2.812   7.924  0.00  0.00    +0.000 C 
ATOM     29  C   UNL     1      46.316   1.726   8.061  0.00  0.00    +0.000 C 
ATOM     30  C   UNL     1      47.037   1.791   6.730  0.00  0.00    +0.000 C 
ATOM     31  C   UNL     1      46.933   3.249   6.305  0.00  0.00    +0.000 C 
ATOM     32  N   UNL     1      46.003   3.902   7.237  0.00  0.00    +0.000 NA
ATOM     33  H   UNL     1      45.338   4.477   6.718  0.00  0.00    +0.000 HD
ENDBRANCH  25  28
ENDBRANCH  23  24
ENDBRANCH   4  23
TORSDOF 6
ENDMDL
MODEL 2
REMARK VINA RESULT:    -7.829      2.115      3.718
REMARK INTER + INTRA:         -11.552
REMARK INTER:                 -10.457
REMARK INTRA:                  -1.095
REMARK UNBOUND:                -0.977
REMARK  Name = 
REMARK  6 active torsions:
REMARK  status: ('A' for Active; 'I' for Inactive)
REMARK    1  A    between atoms: C_2  and  C_20
REMARK    2  A    between atoms: N_3  and  C_4
REMARK    3  A    between atoms: C_4  and  C_5
REMARK    4  A    between atoms: C_8  and  C_9
REMARK    5  A    between atoms: C_9  and  N_10
REMARK    6  A    between atoms: C_11  and  C_13
REMARK                            x       y       z     vdW  Elec       q    Type
REMARK                         _______ _______ _______ _____ _____    ______ ____
ROOT
ATOM      1  C   UNL     1      46.363   4.732  13.796  0.00  0.00    +0.000 A 
ATOM      2  C   UNL     1      46.037   3.491  13.228  0.00  0.00    +0.000 A 
ATOM      3  C   UNL     1      45.225   3.414  12.088  0.00  0.00    +0.000 A 
ATOM      4  C   UNL     1      44.745   4.577  11.469  0.00  0.00    +0.000 A 
ATOM      5  C   UNL     1      45.085   5.817  12.029  0.00  0.00    +0.000 A 
ATOM      6  C   UNL     1      45.898   5.894  13.168  0.00  0.00    +0.000 A 
ENDROOT
BRANCH   1   7
ATOM      7  C   UNL     1      47.196   4.807  15.054  0.00  0.00    +0.000 C 
BRANCH   7  10
ATOM      8  O   UNL     1      49.536   5.279  16.506  0.00  0.00    +0.000 OA
ATOM      9  C   UNL     1      49.033   6.205  15.875  0.00  0.00    +0.000 C 
ATOM     10  N   UNL     1      47.837   6.086  15.208  0.00  0.00    +0.000 N 
ATOM     11  H   UNL     1      47.597   6.785  14.514  0.00  0.00    +0.000 HD
BRANCH   9  12
ATOM     12  C   UNL     1      49.664   7.529  15.822  0.00  0.00    +0.000 A 
ATOM     13  C   UNL     1      50.026   8.201  16.982  0.00  0.00    +0.000 A 
ATOM     14  S   UNL     1      50.708   9.737  16.692  0.00  0.00    +0.000 S 
ATOM     15  C   UNL     1      50.592   9.536  15.006  0.00  0.00    +0.000 A 
ATOM     16  N   UNL     1      51.024  10.492  14.142  0.00  0.00    +0.000 NA
ATOM     17  C   UNL     1      50.907  10.184  12.896  0.00  0.00    +0.000 A 
ATOM     18  N   UNL     1      50.395   8.999  12.429  0.00  0.00    +0.000 N 
ATOM     19  C   UNL     1      49.916   8.021  13.257  0.00  0.00    +0.000 A 
ATOM     20  O   UNL     1      49.413   6.998  12.806  0.00  0.00    +0.000 OA
ATOM     21  C   UNL     1      50.031   8.316  14.674  0.00  0.00    +0.000 A 
ATOM     22  H   UNL     1      50.316   8.818  11.440  0.00  0.00    +0.000 HD
ENDBRANCH   9  12
ENDBRANCH   7  10
ENDBRANCH   1   7
BRANCH   4  23
ATOM     23  C   UNL     1      43.930   4.501  10.204  0.00  0.00    +0.000 C 
BRANCH  23  24
ATOM     24  N   UNL     1      44.503   3.650   9.189  0.00  0.00    +0.000 N 
ATOM     25  C   UNL     1      45.538   4.102   8.400  0.00  0.00    +0.000 C 
ATOM     26  O   UNL     1      46.035   5.221   8.527  0.00  0.00    +0.000 OA
ATOM     27  H   UNL     1      44.011   2.827   8.851  0.00  0.00    +0.000 HD
BRANCH  25  28
ATOM     28  C   UNL     1      46.064   3.102   7.360  0.00  0.00    +0.000 C 
ATOM     29  C   UNL     1      46.361   1.742   7.960  0.00  0.00    +0.000 C 
ATOM     30  C   UNL     1      47.255   1.106   6.915  0.00  0.00    +0.000 C 
ATOM     31  C   UNL     1      47.996   2.273   6.278  0.00  0.00    +0.000 C 
ATOM     32  N   UNL     1      47.372   3.505   6.783  0.00  0.00    +0.000 NA
ATOM     33  H   UNL     1      47.209   4.152   6.011  0.00  0.00    +0.000 HD
ENDBRANCH  25  28
ENDBRANCH  23  24
ENDBRANCH   4  23
TORSDOF 6
ENDMDL
MODEL 3
REMARK VINA RESULT:    -7.539      1.946      2.329
REMARK INTER + INTRA:         -11.161
REMARK INTER:                 -10.254
REMARK INTRA:                  -0.907
REMARK UNBOUND:                -0.977
REMARK  Name = 
REMARK  6 active torsions:
REMARK  status: ('A' for Active; 'I' for Inactive)
REMARK    1  A    between atoms: C_2  and  C_20
REMARK    2  A    between atoms: N_3  and  C_4
REMARK    3  A    between atoms: C_4  and  C_5
REMARK    4  A    between atoms: C_8  and  C_9
REMARK    5  A    between atoms: C_9  and  N_10
REMARK    6  A    between atoms: C_11  and  C_13
REMARK                            x       y       z     vdW  Elec       q    Type
REMARK                         _______ _______ _______ _____ _____    ______ ____
ROOT
ATOM      1  C   UNL     1      46.918   6.666  13.216  0.00  0.00    +0.000 A 
ATOM      2  C   UNL     1      46.450   5.357  13.410  0.00  0.00    +0.000 A 
ATOM      3  C   UNL     1      45.411   4.842  12.623  0.00  0.00    +0.000 A 
ATOM      4  C   UNL     1      44.835   5.610  11.602  0.00  0.00    +0.000 A 
ATOM      5  C   UNL     1      45.314   6.912  11.399  0.00  0.00    +0.000 A 
ATOM      6  C   UNL     1      46.354   7.427  12.185  0.00  0.00    +0.000 A 
ENDROOT
BRANCH   1   7
ATOM      7  C   UNL     1      48.003   7.234  14.100  0.00  0.00    +0.000 C 
BRANCH   7  10
ATOM      8  O   UNL     1      50.199   6.436  15.632  0.00  0.00    +0.000 OA
ATOM      9  C   UNL     1      49.083   6.428  16.146  0.00  0.00    +0.000 C 
ATOM     10  N   UNL     1      47.939   6.718  15.442  0.00  0.00    +0.000 N 
ATOM     11  H   UNL     1      47.094   6.935  15.958  0.00  0.00    +0.000 HD
BRANCH   9  12
ATOM     12  C   UNL     1      48.891   6.065  17.555  0.00  0.00    +0.000 A 
ATOM     13  C   UNL     1      49.258   4.814  18.033  0.00  0.00    +0.000 A 
ATOM     14  S   UNL     1      48.913   4.593  19.689  0.00  0.00    +0.000 S 
ATOM     15  C   UNL     1      48.309   6.177  19.836  0.00  0.00    +0.000 A 
ATOM     16  N   UNL     1      47.851   6.659  21.022  0.00  0.00    +0.000 NA
ATOM     17  C   UNL     1      47.460   7.887  20.989  0.00  0.00    +0.000 A 
ATOM     18  N   UNL     1      47.487   8.685  19.872  0.00  0.00    +0.000 N 
ATOM     19  C   UNL     1      47.907   8.237  18.650  0.00  0.00    +0.000 A 
ATOM     20  O   UNL     1      47.864   8.960  17.660  0.00  0.00    +0.000 OA
ATOM     21  C   UNL     1      48.363   6.859  18.634  0.00  0.00    +0.000 A 
ATOM     22  H   UNL     1      47.156   9.638  19.904  0.00  0.00    +0.000 HD
ENDBRANCH   9  12
ENDBRANCH   7  10
ENDBRANCH   1   7
BRANCH   4  23
ATOM     23  C   UNL     1      43.766   5.035  10.709  0.00  0.00    +0.000 C 
BRANCH  23  24
ATOM     24  N   UNL     1      44.262   4.533   9.451  0.00  0.00    +0.000 N 
ATOM     25  C   UNL     1      44.769   3.254   9.360  0.00  0.00    +0.000 C 
ATOM     26  O   UNL     1      44.804   2.481  10.316  0.00  0.00    +0.000 OA
ATOM     27  H   UNL     1      44.499   5.162   8.688  0.00  0.00    +0.000 HD
BRANCH  25  28
ATOM     28  C   UNL     1      45.262   2.835   7.967  0.00  0.00    +0.000 C 
ATOM     29  C   UNL     1      46.288   1.721   8.025  0.00  0.00    +0.000 C 
ATOM     30  C   UNL     1      46.937   1.794   6.658  0.00  0.00    +0.000 C 
ATOM     31  C   UNL     1      46.849   3.263   6.268  0.00  0.00    +0.000 C 
ATOM     32  N   UNL     1      45.990   3.921   7.262  0.00  0.00    +0.000 NA
ATOM     33  H   UNL     1      45.313   4.523   6.791  0.00  0.00    +0.000 HD
ENDBRANCH  25  28
ENDBRANCH  23  24
ENDBRANCH   4  23
TORSDOF 6
ENDMDL
MODEL 4
REMARK VINA RESULT:    -7.490      4.395      9.565
REMARK INTER + INTRA:         -11.094
REMARK INTER:                 -10.231
REMARK INTRA:                  -0.864
REMARK UNBOUND:                -0.977
REMARK  Name = 
REMARK  6 active torsions:
REMARK  status: ('A' for Active; 'I' for Inactive)
REMARK    1  A    between atoms: C_2  and  C_20
REMARK    2  A    between atoms: N_3  and  C_4
REMARK    3  A    between atoms: C_4  and  C_5
REMARK    4  A    between atoms: C_8  and  C_9
REMARK    5  A    between atoms: C_9  and  N_10
REMARK    6  A    between atoms: C_11  and  C_13
REMARK                            x       y       z     vdW  Elec       q    Type
REMARK                         _______ _______ _______ _____ _____    ______ ____
ROOT
ATOM      1  C   UNL     1      48.583   3.526  16.996  0.00  0.00    +0.000 A 
ATOM      2  C   UNL     1      49.201   4.726  17.378  0.00  0.00    +0.000 A 
ATOM      3  C   UNL     1      50.557   4.755  17.733  0.00  0.00    +0.000 A 
ATOM      4  C   UNL     1      51.335   3.591  17.685  0.00  0.00    +0.000 A 
ATOM      5  C   UNL     1      50.721   2.395  17.289  0.00  0.00    +0.000 A 
ATOM      6  C   UNL     1      49.365   2.366  16.933  0.00  0.00    +0.000 A 
ENDROOT
BRANCH   1   7
ATOM      7  C   UNL     1      47.109   3.491  16.664  0.00  0.00    +0.000 C 
BRANCH   7  10
ATOM      8  O   UNL     1      47.169   3.105  13.897  0.00  0.00    +0.000 OA
ATOM      9  C   UNL     1      46.733   4.166  14.339  0.00  0.00    +0.000 C 
ATOM     10  N   UNL     1      46.750   4.476  15.678  0.00  0.00    +0.000 N 
ATOM     11  H   UNL     1      46.166   5.236  16.007  0.00  0.00    +0.000 HD
BRANCH   9  12
ATOM     12  C   UNL     1      46.194   5.202  13.451  0.00  0.00    +0.000 A 
ATOM     13  C   UNL     1      46.940   6.326  13.119  0.00  0.00    +0.000 A 
ATOM     14  S   UNL     1      46.109   7.417  12.106  0.00  0.00    +0.000 S 
ATOM     15  C   UNL     1      44.743   6.404  12.034  0.00  0.00    +0.000 A 
ATOM     16  N   UNL     1      43.646   6.736  11.304  0.00  0.00    +0.000 NA
ATOM     17  C   UNL     1      42.706   5.854  11.313  0.00  0.00    +0.000 A 
ATOM     18  N   UNL     1      42.763   4.659  11.988  0.00  0.00    +0.000 N 
ATOM     19  C   UNL     1      43.830   4.295  12.762  0.00  0.00    +0.000 A 
ATOM     20  O   UNL     1      43.825   3.246  13.397  0.00  0.00    +0.000 OA
ATOM     21  C   UNL     1      44.921   5.253  12.781  0.00  0.00    +0.000 A 
ATOM     22  H   UNL     1      41.990   4.011  11.969  0.00  0.00    +0.000 HD
ENDBRANCH   9  12
ENDBRANCH   7  10
ENDBRANCH   1   7
BRANCH   4  23
ATOM     23  C   UNL     1      52.809   3.631  17.999  0.00  0.00    +0.000 C 
BRANCH  23  24
ATOM     24  N   UNL     1      53.485   2.372  17.796  0.00  0.00    +0.000 N 
ATOM     25  C   UNL     1      54.101   1.731  18.849  0.00  0.00    +0.000 C 
ATOM     26  O   UNL     1      54.091   2.174  19.997  0.00  0.00    +0.000 OA
ATOM     27  H   UNL     1      53.754   2.061  16.867  0.00  0.00    +0.000 HD
BRANCH  25  28
ATOM     28  C   UNL     1      54.782   0.398  18.507  0.00  0.00    +0.000 C 
ATOM     29  C   UNL     1      54.642   0.034  17.042  0.00  0.00    +0.000 C 
ATOM     30  C   UNL     1      54.959  -1.448  17.036  0.00  0.00    +0.000 C 
ATOM     31  C   UNL     1      54.499  -1.946  18.400  0.00  0.00    +0.000 C 
ATOM     32  N   UNL     1      54.163  -0.760  19.199  0.00  0.00    +0.000 NA
ATOM     33  H   UNL     1      54.568  -0.845  20.132  0.00  0.00    +0.000 HD
ENDBRANCH  25  28
ENDBRANCH  23  24
ENDBRANCH   4  23
TORSDOF 6
ENDMDL
MODEL 5
REMARK VINA RESULT:    -7.475      2.262      3.502
REMARK INTER + INTRA:         -11.074
REMARK INTER:                 -10.116
REMARK INTRA:                  -0.958
REMARK UNBOUND:                -0.977
REMARK  Name = 
REMARK  6 active torsions:
REMARK  status: ('A' for Active; 'I' for Inactive)
REMARK    1  A    between atoms: C_2  and  C_20
REMARK    2  A    between atoms: N_3  and  C_4
REMARK    3  A    between atoms: C_4  and  C_5
REMARK    4  A    between atoms: C_8  and  C_9
REMARK    5  A    between atoms: C_9  and  N_10
REMARK    6  A    between atoms: C_11  and  C_13
REMARK                            x       y       z     vdW  Elec       q    Type
REMARK                         _______ _______ _______ _____ _____    ______ ____
ROOT
ATOM      1  C   UNL     1      46.930   4.763  14.441  0.00  0.00    +0.000 A 
ATOM      2  C   UNL     1      47.631   5.711  13.682  0.00  0.00    +0.000 A 
ATOM      3  C   UNL     1      47.144   6.139  12.438  0.00  0.00    +0.000 A 
ATOM      4  C   UNL     1      45.929   5.652  11.939  0.00  0.00    +0.000 A 
ATOM      5  C   UNL     1      45.221   4.717  12.706  0.00  0.00    +0.000 A 
ATOM      6  C   UNL     1      45.707   4.290  13.949  0.00  0.00    +0.000 A 
ENDROOT
BRANCH   1   7
ATOM      7  C   UNL     1      47.484   4.268  15.757  0.00  0.00    +0.000 C 
BRANCH   7  10
ATOM      8  O   UNL     1      49.706   5.633  16.758  0.00  0.00    +0.000 OA
ATOM      9  C   UNL     1      48.586   5.956  17.148  0.00  0.00    +0.000 C 
ATOM     10  N   UNL     1      47.448   5.281  16.778  0.00  0.00    +0.000 N 
ATOM     11  H   UNL     1      46.550   5.729  16.924  0.00  0.00    +0.000 HD
BRANCH   9  12
ATOM     12  C   UNL     1      48.391   7.074  18.079  0.00  0.00    +0.000 A 
ATOM     13  C   UNL     1      48.369   6.872  19.453  0.00  0.00    +0.000 A 
ATOM     14  S   UNL     1      48.093   8.300  20.344  0.00  0.00    +0.000 S 
ATOM     15  C   UNL     1      48.046   9.245  18.930  0.00  0.00    +0.000 A 
ATOM     16  N   UNL     1      47.856  10.590  18.976  0.00  0.00    +0.000 NA
ATOM     17  C   UNL     1      47.883  11.177  17.829  0.00  0.00    +0.000 A 
ATOM     18  N   UNL     1      48.085  10.540  16.630  0.00  0.00    +0.000 N 
ATOM     19  C   UNL     1      48.245   9.185  16.528  0.00  0.00    +0.000 A 
ATOM     20  O   UNL     1      48.366   8.641  15.435  0.00  0.00    +0.000 OA
ATOM     21  C   UNL     1      48.230   8.476  17.794  0.00  0.00    +0.000 A 
ATOM     22  H   UNL     1      48.082  11.051  15.760  0.00  0.00    +0.000 HD
ENDBRANCH   9  12
ENDBRANCH   7  10
ENDBRANCH   1   7
BRANCH   4  23
ATOM     23  C   UNL     1      45.368   6.161  10.635  0.00  0.00    +0.000 C 
BRANCH  23  24
ATOM     24  N   UNL     1      45.778   5.394   9.483  0.00  0.00    +0.000 N 
ATOM     25  C   UNL     1      45.009   4.341   9.035  0.00  0.00    +0.000 C 
ATOM     26  O   UNL     1      43.946   4.018   9.565  0.00  0.00    +0.000 OA
ATOM     27  H   UNL     1      46.735   5.424   9.143  0.00  0.00    +0.000 HD
BRANCH  25  28
ATOM     28  C   UNL     1      45.549   3.606   7.800  0.00  0.00    +0.000 C 
ATOM     29  C   UNL     1      45.997   2.193   8.115  0.00  0.00    +0.000 C 
ATOM     30  C   UNL     1      46.872   1.849   6.926  0.00  0.00    +0.000 C 
ATOM     31  C   UNL     1      47.469   3.179   6.489  0.00  0.00    +0.000 C 
ATOM     32  N   UNL     1      46.777   4.231   7.248  0.00  0.00    +0.000 NA
ATOM     33  H   UNL     1      46.511   4.991   6.622  0.00  0.00    +0.000 HD
ENDBRANCH  25  28
ENDBRANCH  23  24
ENDBRANCH   4  23
TORSDOF 6
ENDMDL
MODEL 6
REMARK VINA RESULT:    -6.945      3.712      8.637
REMARK INTER + INTRA:         -10.358
REMARK INTER:                  -9.388
REMARK INTRA:                  -0.971
REMARK UNBOUND:                -0.977
REMARK  Name = 
REMARK  6 active torsions:
REMARK  status: ('A' for Active; 'I' for Inactive)
REMARK    1  A    between atoms: C_2  and  C_20
REMARK    2  A    between atoms: N_3  and  C_4
REMARK    3  A    between atoms: C_4  and  C_5
REMARK    4  A    between atoms: C_8  and  C_9
REMARK    5  A    between atoms: C_9  and  N_10
REMARK    6  A    between atoms: C_11  and  C_13
REMARK                            x       y       z     vdW  Elec       q    Type
REMARK                         _______ _______ _______ _____ _____    ______ ____
ROOT
ATOM      1  C   UNL     1      48.634   6.435  15.525  0.00  0.00    +0.000 A 
ATOM      2  C   UNL     1      49.850   6.527  16.219  0.00  0.00    +0.000 A 
ATOM      3  C   UNL     1      50.211   5.561  17.168  0.00  0.00    +0.000 A 
ATOM      4  C   UNL     1      49.380   4.462  17.425  0.00  0.00    +0.000 A 
ATOM      5  C   UNL     1      48.172   4.362  16.719  0.00  0.00    +0.000 A 
ATOM      6  C   UNL     1      47.812   5.328  15.770  0.00  0.00    +0.000 A 
ENDROOT
BRANCH   1   7
ATOM      7  C   UNL     1      48.227   7.506  14.540  0.00  0.00    +0.000 C 
BRANCH   7  10
ATOM      8  O   UNL     1      47.935   6.558  11.929  0.00  0.00    +0.000 OA
ATOM      9  C   UNL     1      46.936   6.666  12.635  0.00  0.00    +0.000 C 
ATOM     10  N   UNL     1      46.974   7.207  13.898  0.00  0.00    +0.000 N 
ATOM     11  H   UNL     1      46.188   7.048  14.518  0.00  0.00    +0.000 HD
BRANCH   9  12
ATOM     12  C   UNL     1      45.611   6.255  12.157  0.00  0.00    +0.000 A 
ATOM     13  C   UNL     1      44.738   7.169  11.580  0.00  0.00    +0.000 A 
ATOM     14  S   UNL     1      43.241   6.487  11.130  0.00  0.00    +0.000 S 
ATOM     15  C   UNL     1      43.725   4.938  11.642  0.00  0.00    +0.000 A 
ATOM     16  N   UNL     1      42.907   3.859  11.524  0.00  0.00    +0.000 NA
ATOM     17  C   UNL     1      43.423   2.746  11.918  0.00  0.00    +0.000 A 
ATOM     18  N   UNL     1      44.693   2.609  12.422  0.00  0.00    +0.000 N 
ATOM     19  C   UNL     1      45.541   3.669  12.593  0.00  0.00    +0.000 A 
ATOM     20  O   UNL     1      46.648   3.520  13.099  0.00  0.00    +0.000 OA
ATOM     21  C   UNL     1      45.009   4.947  12.157  0.00  0.00    +0.000 A 
ATOM     22  H   UNL     1      45.040   1.712  12.728  0.00  0.00    +0.000 HD
ENDBRANCH   9  12
ENDBRANCH   7  10
ENDBRANCH   1   7
BRANCH   4  23
ATOM     23  C   UNL     1      49.796   3.385  18.393  0.00  0.00    +0.000 C 
BRANCH  23  24
ATOM     24  N   UNL     1      51.207   3.081  18.359  0.00  0.00    +0.000 N 
ATOM     25  C   UNL     1      51.678   2.032  17.600  0.00  0.00    +0.000 C 
ATOM     26  O   UNL     1      50.944   1.326  16.909  0.00  0.00    +0.000 OA
ATOM     27  H   UNL     1      51.840   3.437  19.069  0.00  0.00    +0.000 HD
BRANCH  25  28
ATOM     28  C   UNL     1      53.197   1.812  17.644  0.00  0.00    +0.000 C 
ATOM     29  C   UNL     1      53.593   0.407  17.235  0.00  0.00    +0.000 C 
ATOM     30  C   UNL     1      55.004   0.290  17.774  0.00  0.00    +0.000 C 
ATOM     31  C   UNL     1      55.022   1.182  19.008  0.00  0.00    +0.000 C 
ATOM     32  N   UNL     1      53.758   1.932  19.013  0.00  0.00    +0.000 NA
ATOM     33  H   UNL     1      53.940   2.916  19.212  0.00  0.00    +0.000 HD
ENDBRANCH  25  28
ENDBRANCH  23  24
ENDBRANCH   4  23
TORSDOF 6
ENDMDL
MODEL 7
REMARK VINA RESULT:    -6.818      1.585      2.089
REMARK INTER + INTRA:         -10.186
REMARK INTER:                  -9.133
REMARK INTRA:                  -1.053
REMARK UNBOUND:                -0.977
REMARK  Name = 
REMARK  6 active torsions:
REMARK  status: ('A' for Active; 'I' for Inactive)
REMARK    1  A    between atoms: C_2  and  C_20
REMARK    2  A    between atoms: N_3  and  C_4
REMARK    3  A    between atoms: C_4  and  C_5
REMARK    4  A    between atoms: C_8  and  C_9
REMARK    5  A    between atoms: C_9  and  N_10
REMARK    6  A    between atoms: C_11  and  C_13
REMARK                            x       y       z     vdW  Elec       q    Type
REMARK                         _______ _______ _______ _____ _____    ______ ____
ROOT
ATOM      1  C   UNL     1      48.191   8.174  13.297  0.00  0.00    +0.000 A 
ATOM      2  C   UNL     1      47.098   9.007  13.015  0.00  0.00    +0.000 A 
ATOM      3  C   UNL     1      45.967   8.508  12.352  0.00  0.00    +0.000 A 
ATOM      4  C   UNL     1      45.889   7.159  11.983  0.00  0.00    +0.000 A 
ATOM      5  C   UNL     1      46.976   6.324  12.279  0.00  0.00    +0.000 A 
ATOM      6  C   UNL     1      48.106   6.822  12.943  0.00  0.00    +0.000 A 
ENDROOT
BRANCH   1   7
ATOM      7  C   UNL     1      49.428   8.728  13.966  0.00  0.00    +0.000 C 
BRANCH   7  10
ATOM      8  O   UNL     1      50.178   8.855  16.654  0.00  0.00    +0.000 OA
ATOM      9  C   UNL     1      50.416   7.830  16.019  0.00  0.00    +0.000 C 
ATOM     10  N   UNL     1      50.164   7.714  14.673  0.00  0.00    +0.000 N 
ATOM     11  H   UNL     1      50.146   6.788  14.262  0.00  0.00    +0.000 HD
BRANCH   9  12
ATOM     12  C   UNL     1      51.030   6.659  16.657  0.00  0.00    +0.000 A 
ATOM     13  C   UNL     1      52.354   6.679  17.077  0.00  0.00    +0.000 A 
ATOM     14  S   UNL     1      52.873   5.203  17.756  0.00  0.00    +0.000 S 
ATOM     15  C   UNL     1      51.334   4.503  17.560  0.00  0.00    +0.000 A 
ATOM     16  N   UNL     1      51.073   3.230  17.958  0.00  0.00    +0.000 NA
ATOM     17  C   UNL     1      49.854   2.850  17.781  0.00  0.00    +0.000 A 
ATOM     18  N   UNL     1      48.863   3.631  17.240  0.00  0.00    +0.000 N 
ATOM     19  C   UNL     1      49.084   4.905  16.793  0.00  0.00    +0.000 A 
ATOM     20  O   UNL     1      48.189   5.555  16.262  0.00  0.00    +0.000 OA
ATOM     21  C   UNL     1      50.442   5.384  16.976  0.00  0.00    +0.000 A 
ATOM     22  H   UNL     1      47.927   3.275  17.113  0.00  0.00    +0.000 HD
ENDBRANCH   9  12
ENDBRANCH   7  10
ENDBRANCH   1   7
BRANCH   4  23
ATOM     23  C   UNL     1      44.648   6.604  11.332  0.00  0.00    +0.000 C 
BRANCH  23  24
ATOM     24  N   UNL     1      44.915   5.692  10.246  0.00  0.00    +0.000 N 
ATOM     25  C   UNL     1      44.192   4.526  10.119  0.00  0.00    +0.000 C 
ATOM     26  O   UNL     1      43.286   4.215  10.891  0.00  0.00    +0.000 OA
ATOM     27  H   UNL     1      45.783   5.738   9.720  0.00  0.00    +0.000 HD
BRANCH  25  28
ATOM     28  C   UNL     1      44.567   3.641   8.921  0.00  0.00    +0.000 C 
ATOM     29  C   UNL     1      45.264   2.362   9.339  0.00  0.00    +0.000 C 
ATOM     30  C   UNL     1      45.918   1.904   8.051  0.00  0.00    +0.000 C 
ATOM     31  C   UNL     1      46.220   3.189   7.293  0.00  0.00    +0.000 C 
ATOM     32  N   UNL     1      45.557   4.282   8.019  0.00  0.00    +0.000 NA
ATOM     33  H   UNL     1      45.064   4.886   7.360  0.00  0.00    +0.000 HD
ENDBRANCH  25  28
ENDBRANCH  23  24
ENDBRANCH   4  23
TORSDOF 6
ENDMDL
MODEL 8
REMARK VINA RESULT:    -6.614      3.452      8.393
REMARK INTER + INTRA:          -9.911
REMARK INTER:                  -9.021
REMARK INTRA:                  -0.890
REMARK UNBOUND:                -0.977
REMARK  Name = 
REMARK  6 active torsions:
REMARK  status: ('A' for Active; 'I' for Inactive)
REMARK    1  A    between atoms: C_2  and  C_20
REMARK    2  A    between atoms: N_3  and  C_4
REMARK    3  A    between atoms: C_4  and  C_5
REMARK    4  A    between atoms: C_8  and  C_9
REMARK    5  A    between atoms: C_9  and  N_10
REMARK    6  A    between atoms: C_11  and  C_13
REMARK                            x       y       z     vdW  Elec       q    Type
REMARK                         _______ _______ _______ _____ _____    ______ ____
ROOT
ATOM      1  C   UNL     1      48.980   7.843  13.215  0.00  0.00    +0.000 A 
ATOM      2  C   UNL     1      50.343   8.173  13.263  0.00  0.00    +0.000 A 
ATOM      3  C   UNL     1      51.091   7.970  14.432  0.00  0.00    +0.000 A 
ATOM      4  C   UNL     1      50.502   7.404  15.571  0.00  0.00    +0.000 A 
ATOM      5  C   UNL     1      49.144   7.061  15.517  0.00  0.00    +0.000 A 
ATOM      6  C   UNL     1      48.397   7.263  14.348  0.00  0.00    +0.000 A 
ENDROOT
BRANCH   1   7
ATOM      7  C   UNL     1      48.167   8.110  11.970  0.00  0.00    +0.000 C 
BRANCH   7  10
ATOM      8  O   UNL     1      45.392   7.839  11.813  0.00  0.00    +0.000 OA
ATOM      9  C   UNL     1      46.101   6.928  11.394  0.00  0.00    +0.000 C 
ATOM     10  N   UNL     1      47.470   6.937  11.513  0.00  0.00    +0.000 N 
ATOM     11  H   UNL     1      48.011   6.297  10.943  0.00  0.00    +0.000 HD
BRANCH   9  12
ATOM     12  C   UNL     1      45.524   5.734  10.764  0.00  0.00    +0.000 A 
ATOM     13  C   UNL     1      45.691   5.483   9.408  0.00  0.00    +0.000 A 
ATOM     14  S   UNL     1      44.907   4.063   8.880  0.00  0.00    +0.000 S 
ATOM     15  C   UNL     1      44.361   3.708  10.452  0.00  0.00    +0.000 A 
ATOM     16  N   UNL     1      43.628   2.595  10.718  0.00  0.00    +0.000 NA
ATOM     17  C   UNL     1      43.319   2.437  11.959  0.00  0.00    +0.000 A 
ATOM     18  N   UNL     1      43.680   3.295  12.969  0.00  0.00    +0.000 N 
ATOM     19  C   UNL     1      44.388   4.445  12.747  0.00  0.00    +0.000 A 
ATOM     20  O   UNL     1      44.644   5.219  13.663  0.00  0.00    +0.000 OA
ATOM     21  C   UNL     1      44.766   4.666  11.363  0.00  0.00    +0.000 A 
ATOM     22  H   UNL     1      43.398   3.127  13.923  0.00  0.00    +0.000 HD
ENDBRANCH   9  12
ENDBRANCH   7  10
ENDBRANCH   1   7
BRANCH   4  23
ATOM     23  C   UNL     1      51.319   7.121  16.805  0.00  0.00    +0.000 C 
BRANCH  23  24
ATOM     24  N   UNL     1      51.513   5.715  17.069  0.00  0.00    +0.000 N 
ATOM     25  C   UNL     1      50.773   5.078  18.041  0.00  0.00    +0.000 C 
ATOM     26  O   UNL     1      49.912   5.652  18.708  0.00  0.00    +0.000 OA
ATOM     27  H   UNL     1      52.348   5.230  16.755  0.00  0.00    +0.000 HD
BRANCH  25  28
ATOM     28  C   UNL     1      51.067   3.582  18.224  0.00  0.00    +0.000 C 
ATOM     29  C   UNL     1      52.539   3.257  18.065  0.00  0.00    +0.000 C 
ATOM     30  C   UNL     1      52.525   1.759  17.833  0.00  0.00    +0.000 C 
ATOM     31  C   UNL     1      51.200   1.490  17.133  0.00  0.00    +0.000 C 
ATOM     32  N   UNL     1      50.424   2.737  17.187  0.00  0.00    +0.000 NA
ATOM     33  H   UNL     1      49.465   2.536  17.470  0.00  0.00    +0.000 HD
ENDBRANCH  25  28
ENDBRANCH  23  24
ENDBRANCH   4  23
TORSDOF 6
ENDMDL
MODEL 9
REMARK VINA RESULT:    -6.259      5.673      7.610
REMARK INTER + INTRA:          -9.431
REMARK INTER:                  -8.655
REMARK INTRA:                  -0.776
REMARK UNBOUND:                -0.977
REMARK  Name = 
REMARK  6 active torsions:
REMARK  status: ('A' for Active; 'I' for Inactive)
REMARK    1  A    between atoms: C_2  and  C_20
REMARK    2  A    between atoms: N_3  and  C_4
REMARK    3  A    between atoms: C_4  and  C_5
REMARK    4  A    between atoms: C_8  and  C_9
REMARK    5  A    between atoms: C_9  and  N_10
REMARK    6  A    between atoms: C_11  and  C_13
REMARK                            x       y       z     vdW  Elec       q    Type
REMARK                         _______ _______ _______ _____ _____    ______ ____
ROOT
ATOM      1  C   UNL     1      50.103   9.123  11.571  0.00  0.00    +0.000 A 
ATOM      2  C   UNL     1      49.105  10.050  11.909  0.00  0.00    +0.000 A 
ATOM      3  C   UNL     1      47.790   9.632  12.158  0.00  0.00    +0.000 A 
ATOM      4  C   UNL     1      47.448   8.274  12.106  0.00  0.00    +0.000 A 
ATOM      5  C   UNL     1      48.449   7.347  11.784  0.00  0.00    +0.000 A 
ATOM      6  C   UNL     1      49.764   7.765  11.536  0.00  0.00    +0.000 A 
ENDROOT
BRANCH   1   7
ATOM      7  C   UNL     1      51.506   9.584  11.255  0.00  0.00    +0.000 C 
BRANCH   7  10
ATOM      8  O   UNL     1      54.052   8.678  10.545  0.00  0.00    +0.000 OA
ATOM      9  C   UNL     1      53.169   8.697   9.691  0.00  0.00    +0.000 C 
ATOM     10  N   UNL     1      51.916   9.209   9.927  0.00  0.00    +0.000 N 
ATOM     11  H   UNL     1      51.168   8.978   9.284  0.00  0.00    +0.000 HD
BRANCH   9  12
ATOM     12  C   UNL     1      53.410   8.200   8.331  0.00  0.00    +0.000 A 
ATOM     13  C   UNL     1      53.524   9.072   7.256  0.00  0.00    +0.000 A 
ATOM     14  S   UNL     1      53.764   8.282   5.764  0.00  0.00    +0.000 S 
ATOM     15  C   UNL     1      53.775   6.752   6.508  0.00  0.00    +0.000 A 
ATOM     16  N   UNL     1      53.958   5.611   5.791  0.00  0.00    +0.000 NA
ATOM     17  C   UNL     1      53.981   4.531   6.495  0.00  0.00    +0.000 A 
ATOM     18  N   UNL     1      53.838   4.485   7.860  0.00  0.00    +0.000 N 
ATOM     19  C   UNL     1      53.617   5.601   8.620  0.00  0.00    +0.000 A 
ATOM     20  O   UNL     1      53.436   5.518   9.830  0.00  0.00    +0.000 OA
ATOM     21  C   UNL     1      53.589   6.846   7.875  0.00  0.00    +0.000 A 
ATOM     22  H   UNL     1      53.851   3.607   8.357  0.00  0.00    +0.000 HD
ENDBRANCH   9  12
ENDBRANCH   7  10
ENDBRANCH   1   7
BRANCH   4  23
ATOM     23  C   UNL     1      46.052   7.814  12.440  0.00  0.00    +0.000 C 
BRANCH  23  24
ATOM     24  N   UNL     1      45.450   6.985  11.423  0.00  0.00    +0.000 N 
ATOM     25  C   UNL     1      45.307   5.629  11.620  0.00  0.00    +0.000 C 
ATOM     26  O   UNL     1      45.656   5.065  12.657  0.00  0.00    +0.000 OA
ATOM     27  H   UNL     1      45.363   7.308  10.464  0.00  0.00    +0.000 HD
BRANCH  25  28
ATOM     28  C   UNL     1      44.649   4.858  10.467  0.00  0.00    +0.000 C 
ATOM     29  C   UNL     1      44.803   3.356  10.610  0.00  0.00    +0.000 C 
ATOM     30  C   UNL     1      44.509   2.857   9.209  0.00  0.00    +0.000 C 
ATOM     31  C   UNL     1      44.969   3.984   8.294  0.00  0.00    +0.000 C 
ATOM     32  N   UNL     1      45.282   5.134   9.153  0.00  0.00    +0.000 NA
ATOM     33  H   UNL     1      44.873   5.982   8.759  0.00  0.00    +0.000 HD
ENDBRANCH  25  28
ENDBRANCH  23  24
ENDBRANCH   4  23
TORSDOF 6
ENDMDL
