MODEL 1
REMARK VINA RESULT:    -8.834      0.000      0.000
REMARK INTER + INTRA:         -12.757
REMARK INTER:                 -11.932
REMARK INTRA:                  -0.825
REMARK UNBOUND:                -0.825
REMARK  Name = 
REMARK  6 active torsions:
REMARK  status: ('A' for Active; 'I' for Inactive)
REMARK    1  A    between atoms: C_7  and  C_8
REMARK    2  A    between atoms: N_10  and  C_11
REMARK    3  A    between atoms: C_11  and  C_12
REMARK    4  A    between atoms: C_15  and  C_16
REMARK    5  A    between atoms: C_16  and  O_17
REMARK    6  A    between atoms: O_17  and  C_18
REMARK                            x       y       z     vdW  Elec       q    Type
REMARK                         _______ _______ _______ _____ _____    ______ ____
ROOT
ATOM      1  C   UNL     1      48.388   6.805  14.119  0.00  0.00    +0.000 C 
ATOM      2  O   UNL     1      49.051   6.630  13.097  0.00  0.00    +0.000 OA
ATOM      3  N   UNL     1      47.113   7.298  14.067  0.00  0.00    +0.000 N 
ATOM      4  H   UNL     1      46.591   7.462  14.922  0.00  0.00    +0.000 HD
ENDROOT
BRANCH   1  11
ATOM      5  N   UNL     1      48.249   2.803  19.528  0.00  0.00    +0.000 N 
ATOM      6  C   UNL     1      48.391   3.717  18.538  0.00  0.00    +0.000 A 
ATOM      7  N   UNL     1      49.310   4.630  18.606  0.00  0.00    +0.000 NA
ATOM      8  C   UNL     1      49.377   5.469  17.539  0.00  0.00    +0.000 A 
ATOM      9  S   UNL     1      50.548   6.701  17.474  0.00  0.00    +0.000 S 
ATOM     10  C   UNL     1      50.011   7.205  15.938  0.00  0.00    +0.000 A 
ATOM     11  C   UNL     1      48.937   6.473  15.447  0.00  0.00    +0.000 A 
ATOM     12  C   UNL     1      48.575   5.455  16.411  0.00  0.00    +0.000 A 
ATOM     13  C   UNL     1      47.549   4.431  16.384  0.00  0.00    +0.000 A 
ATOM     14  O   UNL     1      46.751   4.276  15.465  0.00  0.00    +0.000 OA
ATOM     15  N   UNL     1      47.522   3.612  17.488  0.00  0.00    +0.000 N 
ATOM     16  H   UNL     1      48.748   3.048  20.379  0.00  0.00    +0.000 HD
ATOM     17  H   UNL     1      47.342   2.389  19.689  0.00  0.00    +0.000 HD
ATOM     18  H   UNL     1      46.840   2.872  17.470  0.00  0.00    +0.000 HD
ENDBRANCH   1  11
BRANCH   3  19
ATOM     19  C   UNL     1      46.449   7.609  12.825  0.00  0.00    +0.000 C 
BRANCH  19  20
ATOM     20  C   UNL     1      45.904   6.387  12.148  0.00  0.00    +0.000 A 
ATOM     21  C   UNL     1      45.232   5.385  12.851  0.00  0.00    +0.000 A 
ATOM     22  C   UNL     1      44.771   4.254  12.177  0.00  0.00    +0.000 A 
ATOM     23  C   UNL     1      45.001   4.144  10.807  0.00  0.00    +0.000 A 
ATOM     24  N   UNL     1      45.633   5.115  10.102  0.00  0.00    +0.000 NA
ATOM     25  C   UNL     1      46.053   6.210  10.777  0.00  0.00    +0.000 A 
BRANCH  23  26
ATOM     26  C   UNL     1      44.564   2.911  10.049  0.00  0.00    +0.000 C 
BRANCH  26  27
ATOM     27  O   UNL     1      44.629   3.151   8.641  0.00  0.00    +0.000 OA
BRANCH  27  28
ATOM     28  C   UNL     1      45.709   2.626   7.981  0.00  0.00    +0.000 A 
ATOM     29  C   UNL     1      46.553   3.317   7.118  0.00  0.00    +0.000 A 
ATOM     30  C   UNL     1      47.620   2.629   6.557  0.00  0.00    +0.000 A 
ATOM     31  N   UNL     1      47.890   1.331   6.794  0.00  0.00    +0.000 NA
ATOM     32  C   UNL     1      47.046   0.681   7.623  0.00  0.00    +0.000 A 
ATOM     33  C   UNL     1      45.954   1.279   8.232  0.00  0.00    +0.000 A 
ENDBRANCH  27  28
ENDBRANCH  26  27
ENDBRANCH  23  26
ENDBRANCH  19  20
ENDBRANCH   3  19
TORSDOF 6
ENDMDL
MODEL 2
REMARK VINA RESULT:    -7.935      2.182      4.080
REMARK INTER + INTRA:         -11.543
REMARK INTER:                 -10.562
REMARK INTRA:                  -0.981
REMARK UNBOUND:                -0.825
REMARK  Name = 
REMARK  6 active torsions:
REMARK  status: ('A' for Active; 'I' for Inactive)
REMARK    1  A    between atoms: C_7  and  C_8
REMARK    2  A    between atoms: N_10  and  C_11
REMARK    3  A    between atoms: C_11  and  C_12
REMARK    4  A    between atoms: C_15  and  C_16
REMARK    5  A    between atoms: C_16  and  O_17
REMARK    6  A    between atoms: O_17  and  C_18
REMARK                            x       y       z     vdW  Elec       q    Type
REMARK                         _______ _______ _______ _____ _____    ______ ____
ROOT
ATOM      1  C   UNL     1      48.269   5.891  15.446  0.00  0.00    +0.000 C 
ATOM      2  O   UNL     1      48.505   4.920  16.166  0.00  0.00    +0.000 OA
ATOM      3  N   UNL     1      47.267   5.861  14.515  0.00  0.00    +0.000 N 
ATOM      4  H   UNL     1      47.104   6.659  13.911  0.00  0.00    +0.000 HD
ENDROOT
BRANCH   1  11
ATOM      5  N   UNL     1      51.663  10.838  12.397  0.00  0.00    +0.000 N 
ATOM      6  C   UNL     1      51.047   9.911  13.170  0.00  0.00    +0.000 A 
ATOM      7  N   UNL     1      50.984  10.057  14.457  0.00  0.00    +0.000 NA
ATOM      8  C   UNL     1      50.314   9.080  15.122  0.00  0.00    +0.000 A 
ATOM      9  S   UNL     1      50.126   9.149  16.811  0.00  0.00    +0.000 S 
ATOM     10  C   UNL     1      49.219   7.707  16.824  0.00  0.00    +0.000 A 
ATOM     11  C   UNL     1      49.048   7.136  15.569  0.00  0.00    +0.000 A 
ATOM     12  C   UNL     1      49.707   7.961  14.577  0.00  0.00    +0.000 A 
ATOM     13  C   UNL     1      49.817   7.826  13.139  0.00  0.00    +0.000 A 
ATOM     14  O   UNL     1      49.341   6.897  12.493  0.00  0.00    +0.000 OA
ATOM     15  N   UNL     1      50.508   8.838  12.515  0.00  0.00    +0.000 N 
ATOM     16  H   UNL     1      52.240  11.486  12.926  0.00  0.00    +0.000 HD
ATOM     17  H   UNL     1      52.068  10.554  11.516  0.00  0.00    +0.000 HD
ATOM     18  H   UNL     1      50.563   8.781  11.512  0.00  0.00    +0.000 HD
ENDBRANCH   1  11
BRANCH   3  19
ATOM     19  C   UNL     1      46.403   4.720  14.338  0.00  0.00    +0.000 C 
BRANCH  19  20
ATOM     20  C   UNL     1      45.919   4.584  12.925  0.00  0.00    +0.000 A 
ATOM     21  C   UNL     1      46.056   5.612  11.991  0.00  0.00    +0.000 A 
ATOM     22  C   UNL     1      45.562   5.445  10.697  0.00  0.00    +0.000 A 
ATOM     23  C   UNL     1      44.929   4.249  10.366  0.00  0.00    +0.000 A 
ATOM     24  N   UNL     1      44.802   3.231  11.252  0.00  0.00    +0.000 NA
ATOM     25  C   UNL     1      45.308   3.412  12.495  0.00  0.00    +0.000 A 
BRANCH  23  26
ATOM     26  C   UNL     1      44.332   4.048   8.991  0.00  0.00    +0.000 C 
BRANCH  26  27
ATOM     27  O   UNL     1      45.332   4.243   7.989  0.00  0.00    +0.000 OA
BRANCH  27  28
ATOM     28  C   UNL     1      46.103   3.154   7.676  0.00  0.00    +0.000 A 
ATOM     29  C   UNL     1      45.908   1.855   8.137  0.00  0.00    +0.000 A 
ATOM     30  C   UNL     1      46.773   0.866   7.692  0.00  0.00    +0.000 A 
ATOM     31  N   UNL     1      47.796   1.084   6.842  0.00  0.00    +0.000 NA
ATOM     32  C   UNL     1      47.972   2.355   6.423  0.00  0.00    +0.000 A 
ATOM     33  C   UNL     1      47.162   3.411   6.809  0.00  0.00    +0.000 A 
ENDBRANCH  27  28
ENDBRANCH  26  27
ENDBRANCH  23  26
ENDBRANCH  19  20
ENDBRANCH   3  19
TORSDOF 6
ENDMDL
MODEL 3
REMARK VINA RESULT:    -7.927      2.082      2.934
REMARK INTER + INTRA:         -11.532
REMARK INTER:                 -10.929
REMARK INTRA:                  -0.603
REMARK UNBOUND:                -0.825
REMARK  Name = 
REMARK  6 active torsions:
REMARK  status: ('A' for Active; 'I' for Inactive)
REMARK    1  A    between atoms: C_7  and  C_8
REMARK    2  A    between atoms: N_10  and  C_11
REMARK    3  A    between atoms: C_11  and  C_12
REMARK    4  A    between atoms: C_15  and  C_16
REMARK    5  A    between atoms: C_16  and  O_17
REMARK    6  A    between atoms: O_17  and  C_18
REMARK                            x       y       z     vdW  Elec       q    Type
REMARK                         _______ _______ _______ _____ _____    ______ ____
ROOT
ATOM      1  C   UNL     1      47.348   4.069  16.456  0.00  0.00    +0.000 C 
ATOM      2  O   UNL     1      46.599   3.296  17.054  0.00  0.00    +0.000 OA
ATOM      3  N   UNL     1      46.972   4.658  15.279  0.00  0.00    +0.000 N 
ATOM      4  H   UNL     1      47.613   5.271  14.785  0.00  0.00    +0.000 HD
ENDROOT
BRANCH   1  11
ATOM      5  N   UNL     1      53.574   2.036  18.002  0.00  0.00    +0.000 N 
ATOM      6  C   UNL     1      52.363   2.602  17.781  0.00  0.00    +0.000 A 
ATOM      7  N   UNL     1      52.170   3.864  18.010  0.00  0.00    +0.000 NA
ATOM      8  C   UNL     1      50.924   4.324  17.720  0.00  0.00    +0.000 A 
ATOM      9  S   UNL     1      50.530   5.964  17.944  0.00  0.00    +0.000 S 
ATOM     10  C   UNL     1      48.949   5.719  17.356  0.00  0.00    +0.000 A 
ATOM     11  C   UNL     1      48.678   4.406  16.992  0.00  0.00    +0.000 A 
ATOM     12  C   UNL     1      49.858   3.597  17.219  0.00  0.00    +0.000 A 
ATOM     13  C   UNL     1      50.111   2.187  16.995  0.00  0.00    +0.000 A 
ATOM     14  O   UNL     1      49.280   1.397  16.559  0.00  0.00    +0.000 OA
ATOM     15  N   UNL     1      51.384   1.772  17.309  0.00  0.00    +0.000 N 
ATOM     16  H   UNL     1      54.196   2.616  18.559  0.00  0.00    +0.000 HD
ATOM     17  H   UNL     1      53.624   1.051  18.224  0.00  0.00    +0.000 HD
ATOM     18  H   UNL     1      51.589   0.805  17.125  0.00  0.00    +0.000 HD
ENDBRANCH   1  11
BRANCH   3  19
ATOM     19  C   UNL     1      45.676   4.449  14.683  0.00  0.00    +0.000 C 
BRANCH  19  20
ATOM     20  C   UNL     1      45.699   4.620  13.193  0.00  0.00    +0.000 A 
ATOM     21  C   UNL     1      46.120   5.806  12.588  0.00  0.00    +0.000 A 
ATOM     22  C   UNL     1      46.094   5.923  11.199  0.00  0.00    +0.000 A 
ATOM     23  C   UNL     1      45.635   4.850  10.439  0.00  0.00    +0.000 A 
ATOM     24  N   UNL     1      45.239   3.683  11.005  0.00  0.00    +0.000 NA
ATOM     25  C   UNL     1      45.294   3.588  12.355  0.00  0.00    +0.000 A 
BRANCH  23  26
ATOM     26  C   UNL     1      45.540   4.955   8.934  0.00  0.00    +0.000 C 
BRANCH  26  27
ATOM     27  O   UNL     1      45.002   3.748   8.389  0.00  0.00    +0.000 OA
BRANCH  27  28
ATOM     28  C   UNL     1      45.907   2.844   7.897  0.00  0.00    +0.000 A 
ATOM     29  C   UNL     1      45.993   1.501   8.248  0.00  0.00    +0.000 A 
ATOM     30  C   UNL     1      46.958   0.723   7.624  0.00  0.00    +0.000 A 
ATOM     31  N   UNL     1      47.821   1.186   6.699  0.00  0.00    +0.000 NA
ATOM     32  C   UNL     1      47.725   2.497   6.389  0.00  0.00    +0.000 A 
ATOM     33  C   UNL     1      46.796   3.355   6.955  0.00  0.00    +0.000 A 
ENDBRANCH  27  28
ENDBRANCH  26  27
ENDBRANCH  23  26
ENDBRANCH  19  20
ENDBRANCH   3  19
TORSDOF 6
ENDMDL
MODEL 4
REMARK VINA RESULT:    -7.466      2.287      3.018
REMARK INTER + INTRA:         -10.910
REMARK INTER:                 -10.168
REMARK INTRA:                  -0.742
REMARK UNBOUND:                -0.825
REMARK  Name = 
REMARK  6 active torsions:
REMARK  status: ('A' for Active; 'I' for Inactive)
REMARK    1  A    between atoms: C_7  and  C_8
REMARK    2  A    between atoms: N_10  and  C_11
REMARK    3  A    between atoms: C_11  and  C_12
REMARK    4  A    between atoms: C_15  and  C_16
REMARK    5  A    between atoms: C_16  and  O_17
REMARK    6  A    between atoms: O_17  and  C_18
REMARK                            x       y       z     vdW  Elec       q    Type
REMARK                         _______ _______ _______ _____ _____    ______ ____
ROOT
ATOM      1  C   UNL     1      48.278   5.472  15.751  0.00  0.00    +0.000 C 
ATOM      2  O   UNL     1      48.563   4.395  16.274  0.00  0.00    +0.000 OA
ATOM      3  N   UNL     1      47.245   5.581  14.860  0.00  0.00    +0.000 N 
ATOM      4  H   UNL     1      47.042   6.470  14.416  0.00  0.00    +0.000 HD
ENDROOT
BRANCH   1  11
ATOM      5  N   UNL     1      49.831  10.191  20.291  0.00  0.00    +0.000 N 
ATOM      6  C   UNL     1      49.606   9.349  19.253  0.00  0.00    +0.000 A 
ATOM      7  N   UNL     1      50.228   9.505  18.126  0.00  0.00    +0.000 NA
ATOM      8  C   UNL     1      49.945   8.580  17.172  0.00  0.00    +0.000 A 
ATOM      9  S   UNL     1      50.703   8.640  15.650  0.00  0.00    +0.000 S 
ATOM     10  C   UNL     1      49.893   7.234  15.130  0.00  0.00    +0.000 A 
ATOM     11  C   UNL     1      49.029   6.698  16.077  0.00  0.00    +0.000 A 
ATOM     12  C   UNL     1      49.071   7.511  17.275  0.00  0.00    +0.000 A 
ATOM     13  C   UNL     1      48.383   7.384  18.544  0.00  0.00    +0.000 A 
ATOM     14  O   UNL     1      47.574   6.500  18.806  0.00  0.00    +0.000 OA
ATOM     15  N   UNL     1      48.702   8.347  19.472  0.00  0.00    +0.000 N 
ATOM     16  H   UNL     1      50.322  11.040  20.023  0.00  0.00    +0.000 HD
ATOM     17  H   UNL     1      49.101  10.338  20.973  0.00  0.00    +0.000 HD
ATOM     18  H   UNL     1      48.262   8.254  20.372  0.00  0.00    +0.000 HD
ENDBRANCH   1  11
BRANCH   3  19
ATOM     19  C   UNL     1      46.405   4.464  14.502  0.00  0.00    +0.000 C 
BRANCH  19  20
ATOM     20  C   UNL     1      45.990   4.500  13.061  0.00  0.00    +0.000 A 
ATOM     21  C   UNL     1      46.140   5.644  12.274  0.00  0.00    +0.000 A 
ATOM     22  C   UNL     1      45.711   5.632  10.947  0.00  0.00    +0.000 A 
ATOM     23  C   UNL     1      45.128   4.475  10.435  0.00  0.00    +0.000 A 
ATOM     24  N   UNL     1      44.991   3.349  11.177  0.00  0.00    +0.000 NA
ATOM     25  C   UNL     1      45.434   3.380  12.456  0.00  0.00    +0.000 A 
BRANCH  23  26
ATOM     26  C   UNL     1      44.601   4.439   9.018  0.00  0.00    +0.000 C 
BRANCH  26  27
ATOM     27  O   UNL     1      44.571   3.092   8.540  0.00  0.00    +0.000 OA
BRANCH  27  28
ATOM     28  C   UNL     1      45.704   2.640   7.917  0.00  0.00    +0.000 A 
ATOM     29  C   UNL     1      46.547   3.393   7.106  0.00  0.00    +0.000 A 
ATOM     30  C   UNL     1      47.672   2.775   6.578  0.00  0.00    +0.000 A 
ATOM     31  N   UNL     1      48.000   1.488   6.800  0.00  0.00    +0.000 NA
ATOM     32  C   UNL     1      47.157   0.776   7.578  0.00  0.00    +0.000 A 
ATOM     33  C   UNL     1      46.010   1.302   8.151  0.00  0.00    +0.000 A 
ENDBRANCH  27  28
ENDBRANCH  26  27
ENDBRANCH  23  26
ENDBRANCH  19  20
ENDBRANCH   3  19
TORSDOF 6
ENDMDL
MODEL 5
REMARK VINA RESULT:    -7.400      3.730      7.730
REMARK INTER + INTRA:         -10.820
REMARK INTER:                  -9.516
REMARK INTRA:                  -1.304
REMARK UNBOUND:                -0.825
REMARK  Name = 
REMARK  6 active torsions:
REMARK  status: ('A' for Active; 'I' for Inactive)
REMARK    1  A    between atoms: C_7  and  C_8
REMARK    2  A    between atoms: N_10  and  C_11
REMARK    3  A    between atoms: C_11  and  C_12
REMARK    4  A    between atoms: C_15  and  C_16
REMARK    5  A    between atoms: C_16  and  O_17
REMARK    6  A    between atoms: O_17  and  C_18
REMARK                            x       y       z     vdW  Elec       q    Type
REMARK                         _______ _______ _______ _____ _____    ______ ____
ROOT
ATOM      1  C   UNL     1      47.257   7.618  12.974  0.00  0.00    +0.000 C 
ATOM      2  O   UNL     1      48.326   7.513  12.373  0.00  0.00    +0.000 OA
ATOM      3  N   UNL     1      47.157   8.343  14.130  0.00  0.00    +0.000 N 
ATOM      4  H   UNL     1      46.275   8.396  14.628  0.00  0.00    +0.000 HD
ENDROOT
BRANCH   1  11
ATOM      5  N   UNL     1      43.557   2.033  12.331  0.00  0.00    +0.000 N 
ATOM      6  C   UNL     1      44.183   3.235  12.340  0.00  0.00    +0.000 A 
ATOM      7  N   UNL     1      43.618   4.281  11.820  0.00  0.00    +0.000 NA
ATOM      8  C   UNL     1      44.328   5.435  11.919  0.00  0.00    +0.000 A 
ATOM      9  S   UNL     1      43.703   6.894  11.306  0.00  0.00    +0.000 S 
ATOM     10  C   UNL     1      45.072   7.763  11.830  0.00  0.00    +0.000 A 
ATOM     11  C   UNL     1      46.031   6.980  12.462  0.00  0.00    +0.000 A 
ATOM     12  C   UNL     1      45.572   5.606  12.500  0.00  0.00    +0.000 A 
ATOM     13  C   UNL     1      46.176   4.409  13.052  0.00  0.00    +0.000 A 
ATOM     14  O   UNL     1      47.274   4.378  13.600  0.00  0.00    +0.000 OA
ATOM     15  N   UNL     1      45.419   3.269  12.922  0.00  0.00    +0.000 N 
ATOM     16  H   UNL     1      42.761   1.997  11.699  0.00  0.00    +0.000 HD
ATOM     17  H   UNL     1      44.112   1.189  12.340  0.00  0.00    +0.000 HD
ATOM     18  H   UNL     1      45.806   2.435  13.332  0.00  0.00    +0.000 HD
ENDBRANCH   1  11
BRANCH   3  19
ATOM     19  C   UNL     1      48.274   9.056  14.700  0.00  0.00    +0.000 C 
BRANCH  19  20
ATOM     20  C   UNL     1      49.036   8.226  15.691  0.00  0.00    +0.000 A 
ATOM     21  C   UNL     1      50.171   7.498  15.332  0.00  0.00    +0.000 A 
ATOM     22  C   UNL     1      50.826   6.718  16.286  0.00  0.00    +0.000 A 
ATOM     23  C   UNL     1      50.322   6.675  17.584  0.00  0.00    +0.000 A 
ATOM     24  N   UNL     1      49.231   7.390  17.958  0.00  0.00    +0.000 NA
ATOM     25  C   UNL     1      48.628   8.154  17.017  0.00  0.00    +0.000 A 
BRANCH  23  26
ATOM     26  C   UNL     1      50.969   5.802  18.634  0.00  0.00    +0.000 C 
BRANCH  26  27
ATOM     27  O   UNL     1      50.061   4.781  19.052  0.00  0.00    +0.000 OA
BRANCH  27  28
ATOM     28  C   UNL     1      49.785   3.797  18.139  0.00  0.00    +0.000 A 
ATOM     29  C   UNL     1      48.553   3.568  17.533  0.00  0.00    +0.000 A 
ATOM     30  C   UNL     1      48.463   2.540  16.606  0.00  0.00    +0.000 A 
ATOM     31  N   UNL     1      49.493   1.745  16.255  0.00  0.00    +0.000 NA
ATOM     32  C   UNL     1      50.671   1.980  16.870  0.00  0.00    +0.000 A 
ATOM     33  C   UNL     1      50.863   2.982  17.808  0.00  0.00    +0.000 A 
ENDBRANCH  27  28
ENDBRANCH  26  27
ENDBRANCH  23  26
ENDBRANCH  19  20
ENDBRANCH   3  19
TORSDOF 6
ENDMDL
MODEL 6
REMARK VINA RESULT:    -7.325      2.216      3.170
REMARK INTER + INTRA:         -10.719
REMARK INTER:                 -10.012
REMARK INTRA:                  -0.707
REMARK UNBOUND:                -0.825
REMARK  Name = 
REMARK  6 active torsions:
REMARK  status: ('A' for Active; 'I' for Inactive)
REMARK    1  A    between atoms: C_7  and  C_8
REMARK    2  A    between atoms: N_10  and  C_11
REMARK    3  A    between atoms: C_11  and  C_12
REMARK    4  A    between atoms: C_15  and  C_16
REMARK    5  A    between atoms: C_16  and  O_17
REMARK    6  A    between atoms: O_17  and  C_18
REMARK                            x       y       z     vdW  Elec       q    Type
REMARK                         _______ _______ _______ _____ _____    ______ ____
ROOT
ATOM      1  C   UNL     1      47.501   3.923  16.617  0.00  0.00    +0.000 C 
ATOM      2  O   UNL     1      46.722   4.218  17.524  0.00  0.00    +0.000 OA
ATOM      3  N   UNL     1      47.142   4.043  15.302  0.00  0.00    +0.000 N 
ATOM      4  H   UNL     1      47.786   3.769  14.568  0.00  0.00    +0.000 HD
ENDROOT
BRANCH   1  11
ATOM      5  N   UNL     1      53.648   5.269  19.003  0.00  0.00    +0.000 N 
ATOM      6  C   UNL     1      52.482   4.837  18.464  0.00  0.00    +0.000 A 
ATOM      7  N   UNL     1      52.342   3.603  18.089  0.00  0.00    +0.000 NA
ATOM      8  C   UNL     1      51.119   3.281  17.593  0.00  0.00    +0.000 A 
ATOM      9  S   UNL     1      50.778   1.694  17.085  0.00  0.00    +0.000 S 
ATOM     10  C   UNL     1      49.174   2.108  16.686  0.00  0.00    +0.000 A 
ATOM     11  C   UNL     1      48.863   3.443  16.911  0.00  0.00    +0.000 A 
ATOM     12  C   UNL     1      50.028   4.120  17.443  0.00  0.00    +0.000 A 
ATOM     13  C   UNL     1      50.233   5.494  17.856  0.00  0.00    +0.000 A 
ATOM     14  O   UNL     1      49.377   6.370  17.791  0.00  0.00    +0.000 OA
ATOM     15  N   UNL     1      51.488   5.769  18.346  0.00  0.00    +0.000 N 
ATOM     16  H   UNL     1      54.421   4.624  18.863  0.00  0.00    +0.000 HD
ATOM     17  H   UNL     1      53.903   6.242  18.909  0.00  0.00    +0.000 HD
ATOM     18  H   UNL     1      51.637   6.708  18.672  0.00  0.00    +0.000 HD
ENDBRANCH   1  11
BRANCH   3  19
ATOM     19  C   UNL     1      45.857   4.551  14.889  0.00  0.00    +0.000 C 
BRANCH  19  20
ATOM     20  C   UNL     1      45.716   4.600  13.396  0.00  0.00    +0.000 A 
ATOM     21  C   UNL     1      45.914   5.776  12.670  0.00  0.00    +0.000 A 
ATOM     22  C   UNL     1      45.741   5.773  11.286  0.00  0.00    +0.000 A 
ATOM     23  C   UNL     1      45.362   4.590  10.654  0.00  0.00    +0.000 A 
ATOM     24  N   UNL     1      45.183   3.433  11.339  0.00  0.00    +0.000 NA
ATOM     25  C   UNL     1      45.378   3.459  12.679  0.00  0.00    +0.000 A 
BRANCH  23  26
ATOM     26  C   UNL     1      45.112   4.557   9.164  0.00  0.00    +0.000 C 
BRANCH  26  27
ATOM     27  O   UNL     1      44.913   3.211   8.729  0.00  0.00    +0.000 OA
BRANCH  27  28
ATOM     28  C   UNL     1      45.936   2.641   8.017  0.00  0.00    +0.000 A 
ATOM     29  C   UNL     1      46.841   3.316   7.205  0.00  0.00    +0.000 A 
ATOM     30  C   UNL     1      47.836   2.578   6.579  0.00  0.00    +0.000 A 
ATOM     31  N   UNL     1      47.980   1.245   6.707  0.00  0.00    +0.000 NA
ATOM     32  C   UNL     1      47.079   0.613   7.488  0.00  0.00    +0.000 A 
ATOM     33  C   UNL     1      46.051   1.260   8.155  0.00  0.00    +0.000 A 
ENDBRANCH  27  28
ENDBRANCH  26  27
ENDBRANCH  23  26
ENDBRANCH  19  20
ENDBRANCH   3  19
TORSDOF 6
ENDMDL
MODEL 7
REMARK VINA RESULT:    -7.292      2.009      2.738
REMARK INTER + INTRA:         -10.674
REMARK INTER:                  -9.969
REMARK INTRA:                  -0.705
REMARK UNBOUND:                -0.825
REMARK  Name = 
REMARK  6 active torsions:
REMARK  status: ('A' for Active; 'I' for Inactive)
REMARK    1  A    between atoms: C_7  and  C_8
REMARK    2  A    between atoms: N_10  and  C_11
REMARK    3  A    between atoms: C_11  and  C_12
REMARK    4  A    between atoms: C_15  and  C_16
REMARK    5  A    between atoms: C_16  and  O_17
REMARK    6  A    between atoms: O_17  and  C_18
REMARK                            x       y       z     vdW  Elec       q    Type
REMARK                         _______ _______ _______ _____ _____    ______ ____
ROOT
ATOM      1  C   UNL     1      48.800   6.898  15.741  0.00  0.00    +0.000 C 
ATOM      2  O   UNL     1      49.235   8.045  15.635  0.00  0.00    +0.000 OA
ATOM      3  N   UNL     1      47.938   6.375  14.816  0.00  0.00    +0.000 N 
ATOM      4  H   UNL     1      47.567   5.438  14.932  0.00  0.00    +0.000 HD
ENDROOT
BRANCH   1  11
ATOM      5  N   UNL     1      53.779   4.219  19.392  0.00  0.00    +0.000 N 
ATOM      6  C   UNL     1      52.664   4.643  18.748  0.00  0.00    +0.000 A 
ATOM      7  N   UNL     1      51.485   4.310  19.176  0.00  0.00    +0.000 NA
ATOM      8  C   UNL     1      50.444   4.821  18.468  0.00  0.00    +0.000 A 
ATOM      9  S   UNL     1      48.838   4.492  18.925  0.00  0.00    +0.000 S 
ATOM     10  C   UNL     1      48.224   5.455  17.660  0.00  0.00    +0.000 A 
ATOM     11  C   UNL     1      49.205   6.031  16.862  0.00  0.00    +0.000 A 
ATOM     12  C   UNL     1      50.510   5.640  17.354  0.00  0.00    +0.000 A 
ATOM     13  C   UNL     1      51.845   5.972  16.899  0.00  0.00    +0.000 A 
ATOM     14  O   UNL     1      52.087   6.683  15.928  0.00  0.00    +0.000 OA
ATOM     15  N   UNL     1      52.862   5.427  17.646  0.00  0.00    +0.000 N 
ATOM     16  H   UNL     1      53.603   3.467  20.052  0.00  0.00    +0.000 HD
ATOM     17  H   UNL     1      54.638   4.116  18.871  0.00  0.00    +0.000 HD
ATOM     18  H   UNL     1      53.796   5.677  17.367  0.00  0.00    +0.000 HD
ENDBRANCH   1  11
BRANCH   3  19
ATOM     19  C   UNL     1      47.512   7.107  13.648  0.00  0.00    +0.000 C 
BRANCH  19  20
ATOM     20  C   UNL     1      46.716   6.258  12.702  0.00  0.00    +0.000 A 
ATOM     21  C   UNL     1      46.410   6.677  11.405  0.00  0.00    +0.000 A 
ATOM     22  C   UNL     1      45.641   5.860  10.576  0.00  0.00    +0.000 A 
ATOM     23  C   UNL     1      45.183   4.639  11.066  0.00  0.00    +0.000 A 
ATOM     24  N   UNL     1      45.485   4.205  12.315  0.00  0.00    +0.000 NA
ATOM     25  C   UNL     1      46.250   5.008  13.092  0.00  0.00    +0.000 A 
BRANCH  23  26
ATOM     26  C   UNL     1      44.303   3.749  10.219  0.00  0.00    +0.000 C 
BRANCH  26  27
ATOM     27  O   UNL     1      44.548   3.994   8.832  0.00  0.00    +0.000 OA
BRANCH  27  28
ATOM     28  C   UNL     1      45.514   3.225   8.238  0.00  0.00    +0.000 A 
ATOM     29  C   UNL     1      46.492   3.678   7.358  0.00  0.00    +0.000 A 
ATOM     30  C   UNL     1      47.412   2.760   6.873  0.00  0.00    +0.000 A 
ATOM     31  N   UNL     1      47.417   1.452   7.198  0.00  0.00    +0.000 NA
ATOM     32  C   UNL     1      46.448   1.037   8.041  0.00  0.00    +0.000 A 
ATOM     33  C   UNL     1      45.486   1.875   8.580  0.00  0.00    +0.000 A 
ENDBRANCH  27  28
ENDBRANCH  26  27
ENDBRANCH  23  26
ENDBRANCH  19  20
ENDBRANCH   3  19
TORSDOF 6
ENDMDL
MODEL 8
REMARK VINA RESULT:    -7.263      2.033      2.596
REMARK INTER + INTRA:         -10.635
REMARK INTER:                  -9.760
REMARK INTRA:                  -0.875
REMARK UNBOUND:                -0.825
REMARK  Name = 
REMARK  6 active torsions:
REMARK  status: ('A' for Active; 'I' for Inactive)
REMARK    1  A    between atoms: C_7  and  C_8
REMARK    2  A    between atoms: N_10  and  C_11
REMARK    3  A    between atoms: C_11  and  C_12
REMARK    4  A    between atoms: C_15  and  C_16
REMARK    5  A    between atoms: C_16  and  O_17
REMARK    6  A    between atoms: O_17  and  C_18
REMARK                            x       y       z     vdW  Elec       q    Type
REMARK                         _______ _______ _______ _____ _____    ______ ____
ROOT
ATOM      1  C   UNL     1      48.183   8.532  13.800  0.00  0.00    +0.000 C 
ATOM      2  O   UNL     1      47.744   9.657  13.558  0.00  0.00    +0.000 OA
ATOM      3  N   UNL     1      47.391   7.421  13.696  0.00  0.00    +0.000 N 
ATOM      4  H   UNL     1      47.760   6.504  13.927  0.00  0.00    +0.000 HD
ENDROOT
BRANCH   1  11
ATOM      5  N   UNL     1      52.628   5.266  17.655  0.00  0.00    +0.000 N 
ATOM      6  C   UNL     1      51.874   6.035  16.833  0.00  0.00    +0.000 A 
ATOM      7  N   UNL     1      52.431   6.881  16.022  0.00  0.00    +0.000 NA
ATOM      8  C   UNL     1      51.575   7.572  15.225  0.00  0.00    +0.000 A 
ATOM      9  S   UNL     1      52.160   8.699  14.092  0.00  0.00    +0.000 S 
ATOM     10  C   UNL     1      50.585   9.042  13.539  0.00  0.00    +0.000 A 
ATOM     11  C   UNL     1      49.588   8.333  14.197  0.00  0.00    +0.000 A 
ATOM     12  C   UNL     1      50.194   7.473  15.193  0.00  0.00    +0.000 A 
ATOM     13  C   UNL     1      49.612   6.530  16.127  0.00  0.00    +0.000 A 
ATOM     14  O   UNL     1      48.408   6.317  16.235  0.00  0.00    +0.000 OA
ATOM     15  N   UNL     1      50.520   5.861  16.913  0.00  0.00    +0.000 N 
ATOM     16  H   UNL     1      53.591   5.580  17.732  0.00  0.00    +0.000 HD
ATOM     17  H   UNL     1      52.232   4.941  18.526  0.00  0.00    +0.000 HD
ATOM     18  H   UNL     1      50.137   5.175  17.542  0.00  0.00    +0.000 HD
ENDBRANCH   1  11
BRANCH   3  19
ATOM     19  C   UNL     1      46.016   7.483  13.266  0.00  0.00    +0.000 C 
BRANCH  19  20
ATOM     20  C   UNL     1      45.667   6.381  12.309  0.00  0.00    +0.000 A 
ATOM     21  C   UNL     1      45.987   6.448  10.952  0.00  0.00    +0.000 A 
ATOM     22  C   UNL     1      45.613   5.408  10.100  0.00  0.00    +0.000 A 
ATOM     23  C   UNL     1      44.915   4.322  10.624  0.00  0.00    +0.000 A 
ATOM     24  N   UNL     1      44.612   4.229  11.943  0.00  0.00    +0.000 NA
ATOM     25  C   UNL     1      45.004   5.242  12.751  0.00  0.00    +0.000 A 
BRANCH  23  26
ATOM     26  C   UNL     1      44.446   3.201   9.726  0.00  0.00    +0.000 C 
BRANCH  26  27
ATOM     27  O   UNL     1      44.727   3.515   8.360  0.00  0.00    +0.000 OA
BRANCH  27  28
ATOM     28  C   UNL     1      45.774   2.847   7.783  0.00  0.00    +0.000 A 
ATOM     29  C   UNL     1      46.675   3.377   6.864  0.00  0.00    +0.000 A 
ATOM     30  C   UNL     1      47.697   2.559   6.403  0.00  0.00    +0.000 A 
ATOM     31  N   UNL     1      47.872   1.279   6.787  0.00  0.00    +0.000 NA
ATOM     32  C   UNL     1      46.975   0.786   7.668  0.00  0.00    +0.000 A 
ATOM     33  C   UNL     1      45.921   1.522   8.186  0.00  0.00    +0.000 A 
ENDBRANCH  27  28
ENDBRANCH  26  27
ENDBRANCH  23  26
ENDBRANCH  19  20
ENDBRANCH   3  19
TORSDOF 6
ENDMDL
MODEL 9
REMARK VINA RESULT:    -7.095      2.180      3.635
REMARK INTER + INTRA:         -10.409
REMARK INTER:                  -9.497
REMARK INTRA:                  -0.912
REMARK UNBOUND:                -0.825
REMARK  Name = 
REMARK  6 active torsions:
REMARK  status: ('A' for Active; 'I' for Inactive)
REMARK    1  A    between atoms: C_7  and  C_8
REMARK    2  A    between atoms: N_10  and  C_11
REMARK    3  A    between atoms: C_11  and  C_12
REMARK    4  A    between atoms: C_15  and  C_16
REMARK    5  A    between atoms: C_16  and  O_17
REMARK    6  A    between atoms: O_17  and  C_18
REMARK                            x       y       z     vdW  Elec       q    Type
REMARK                         _______ _______ _______ _____ _____    ______ ____
ROOT
ATOM      1  C   UNL     1      48.248   5.138  16.683  0.00  0.00    +0.000 C 
ATOM      2  O   UNL     1      48.532   4.077  17.240  0.00  0.00    +0.000 OA
ATOM      3  N   UNL     1      47.516   5.163  15.527  0.00  0.00    +0.000 N 
ATOM      4  H   UNL     1      47.315   6.044  15.065  0.00  0.00    +0.000 HD
ENDROOT
BRANCH   1  11
ATOM      5  N   UNL     1      51.027  11.185  15.679  0.00  0.00    +0.000 N 
ATOM      6  C   UNL     1      50.478  10.006  16.062  0.00  0.00    +0.000 A 
ATOM      7  N   UNL     1      50.089   9.823  17.287  0.00  0.00    +0.000 NA
ATOM      8  C   UNL     1      49.526   8.614  17.543  0.00  0.00    +0.000 A 
ATOM      9  S   UNL     1      48.944   8.239  19.097  0.00  0.00    +0.000 S 
ATOM     10  C   UNL     1      48.413   6.702  18.587  0.00  0.00    +0.000 A 
ATOM     11  C   UNL     1      48.671   6.431  17.248  0.00  0.00    +0.000 A 
ATOM     12  C   UNL     1      49.333   7.573  16.651  0.00  0.00    +0.000 A 
ATOM     13  C   UNL     1      49.799   7.812  15.300  0.00  0.00    +0.000 A 
ATOM     14  O   UNL     1      49.711   6.999  14.384  0.00  0.00    +0.000 OA
ATOM     15  N   UNL     1      50.365   9.048  15.094  0.00  0.00    +0.000 N 
ATOM     16  H   UNL     1      51.302  11.775  16.460  0.00  0.00    +0.000 HD
ATOM     17  H   UNL     1      51.678  11.196  14.907  0.00  0.00    +0.000 HD
ATOM     18  H   UNL     1      50.661   9.245  14.153  0.00  0.00    +0.000 HD
ENDBRANCH   1  11
BRANCH   3  19
ATOM     19  C   UNL     1      47.000   3.967  14.906  0.00  0.00    +0.000 C 
BRANCH  19  20
ATOM     20  C   UNL     1      46.412   4.234  13.553  0.00  0.00    +0.000 A 
ATOM     21  C   UNL     1      46.538   5.473  12.920  0.00  0.00    +0.000 A 
ATOM     22  C   UNL     1      45.947   5.677  11.673  0.00  0.00    +0.000 A 
ATOM     23  C   UNL     1      45.230   4.636  11.086  0.00  0.00    +0.000 A 
ATOM     24  N   UNL     1      45.112   3.421  11.675  0.00  0.00    +0.000 NA
ATOM     25  C   UNL     1      45.713   3.242  12.875  0.00  0.00    +0.000 A 
BRANCH  23  26
ATOM     26  C   UNL     1      44.529   4.834   9.761  0.00  0.00    +0.000 C 
BRANCH  26  27
ATOM     27  O   UNL     1      44.298   3.571   9.135  0.00  0.00    +0.000 OA
BRANCH  27  28
ATOM     28  C   UNL     1      45.335   3.052   8.404  0.00  0.00    +0.000 A 
ATOM     29  C   UNL     1      46.178   3.768   7.560  0.00  0.00    +0.000 A 
ATOM     30  C   UNL     1      47.198   3.081   6.919  0.00  0.00    +0.000 A 
ATOM     31  N   UNL     1      47.425   1.761   7.059  0.00  0.00    +0.000 NA
ATOM     32  C   UNL     1      46.582   1.088   7.871  0.00  0.00    +0.000 A 
ATOM     33  C   UNL     1      45.535   1.682   8.556  0.00  0.00    +0.000 A 
ENDBRANCH  27  28
ENDBRANCH  26  27
ENDBRANCH  23  26
ENDBRANCH  19  20
ENDBRANCH   3  19
TORSDOF 6
ENDMDL
