MODEL 1
REMARK VINA RESULT:    -8.880      0.000      0.000
REMARK INTER + INTRA:         -12.246
REMARK INTER:                 -11.476
REMARK INTRA:                  -0.770
REMARK UNBOUND:                -0.770
REMARK  Name = 
REMARK  6 active torsions:
REMARK  status: ('A' for Active; 'I' for Inactive)
REMARK    1  A    between atoms: C_1  and  C_2
REMARK    2  A    between atoms: C_2  and  N_3
REMARK    3  A    between atoms: C_2  and  C_16
REMARK    4  A    between atoms: C_4  and  C_6
REMARK    5  A    between atoms: C_19  and  C_20
REMARK    6  A    between atoms: C_20  and  C_21
REMARK                            x       y       z     vdW  Elec       q    Type
REMARK                         _______ _______ _______ _____ _____    ______ ____
ROOT
ATOM      1  C   UNL     1      45.282   8.799  12.856  0.00  0.00    +0.000 C 
ATOM      2  C   UNL     1      46.398   7.767  12.640  0.00  0.00    +0.000 C 
ENDROOT
BRANCH   2   3
ATOM      3  C   UNL     1      45.876   6.602  11.810  0.00  0.00    +0.000 A 
ATOM      4  C   UNL     1      44.968   5.690  12.365  0.00  0.00    +0.000 A 
ATOM      5  C   UNL     1      44.525   4.589  11.625  0.00  0.00    +0.000 A 
ATOM      6  C   UNL     1      44.967   4.382  10.311  0.00  0.00    +0.000 A 
ATOM      7  C   UNL     1      45.847   5.311   9.743  0.00  0.00    +0.000 A 
ATOM      8  C   UNL     1      46.298   6.406  10.486  0.00  0.00    +0.000 A 
BRANCH   6   9
ATOM      9  C   UNL     1      44.528   3.168   9.524  0.00  0.00    +0.000 C 
BRANCH   9  10
ATOM     10  C   UNL     1      45.502   2.663   8.483  0.00  0.00    +0.000 A 
ATOM     11  C   UNL     1      45.833   3.439   7.373  0.00  0.00    +0.000 A 
ATOM     12  C   UNL     1      46.633   2.887   6.375  0.00  0.00    +0.000 A 
ATOM     13  C   UNL     1      47.084   1.581   6.506  0.00  0.00    +0.000 A 
ATOM     14  C   UNL     1      46.726   0.881   7.645  0.00  0.00    +0.000 A 
ATOM     15  N   UNL     1      45.949   1.389   8.628  0.00  0.00    +0.000 NA
ENDBRANCH   9  10
ENDBRANCH   6   9
ENDBRANCH   2   3
BRANCH   2  16
ATOM     16  N   UNL     1      46.954   7.271  13.888  0.00  0.00    +0.000 N 
ATOM     17  C   UNL     1      48.213   6.729  13.971  0.00  0.00    +0.000 C 
ATOM     18  O   UNL     1      48.979   6.677  13.013  0.00  0.00    +0.000 OA
ATOM     19  H   UNL     1      46.279   7.012  14.602  0.00  0.00    +0.000 HD
BRANCH  17  20
ATOM     20  C   UNL     1      48.636   6.267  15.297  0.00  0.00    +0.000 A 
ATOM     21  C   UNL     1      49.650   6.940  15.965  0.00  0.00    +0.000 A 
ATOM     22  S   UNL     1      50.017   6.276  17.492  0.00  0.00    +0.000 S 
ATOM     23  C   UNL     1      48.864   5.042  17.293  0.00  0.00    +0.000 A 
ATOM     24  N   UNL     1      48.695   4.084  18.243  0.00  0.00    +0.000 NA
ATOM     25  C   UNL     1      47.808   3.191  17.946  0.00  0.00    +0.000 A 
ATOM     26  N   UNL     1      47.067   3.179  16.794  0.00  0.00    +0.000 N 
ATOM     27  C   UNL     1      47.180   4.145  15.821  0.00  0.00    +0.000 A 
ATOM     28  O   UNL     1      46.467   4.142  14.824  0.00  0.00    +0.000 OA
ATOM     29  C   UNL     1      48.184   5.155  16.094  0.00  0.00    +0.000 A 
ATOM     30  H   UNL     1      46.375   2.461  16.630  0.00  0.00    +0.000 HD
ENDBRANCH  17  20
ENDBRANCH   2  16
TORSDOF 5
ENDMDL
MODEL 2
REMARK VINA RESULT:    -8.306      1.656      2.192
REMARK INTER + INTRA:         -11.503
REMARK INTER:                 -10.635
REMARK INTRA:                  -0.868
REMARK UNBOUND:                -0.770
REMARK  Name = 
REMARK  6 active torsions:
REMARK  status: ('A' for Active; 'I' for Inactive)
REMARK    1  A    between atoms: C_1  and  C_2
REMARK    2  A    between atoms: C_2  and  N_3
REMARK    3  A    between atoms: C_2  and  C_16
REMARK    4  A    between atoms: C_4  and  C_6
REMARK    5  A    between atoms: C_19  and  C_20
REMARK    6  A    between atoms: C_20  and  C_21
REMARK                            x       y       z     vdW  Elec       q    Type
REMARK                         _______ _______ _______ _____ _____    ______ ____
ROOT
ATOM      1  C   UNL     1      46.123   8.206  13.236  0.00  0.00    +0.000 C 
ATOM      2  C   UNL     1      46.918   6.899  13.110  0.00  0.00    +0.000 C 
ENDROOT
BRANCH   2   3
ATOM      3  C   UNL     1      46.268   5.993  12.074  0.00  0.00    +0.000 A 
ATOM      4  C   UNL     1      45.691   4.776  12.462  0.00  0.00    +0.000 A 
ATOM      5  C   UNL     1      45.139   3.915  11.508  0.00  0.00    +0.000 A 
ATOM      6  C   UNL     1      45.138   4.256  10.148  0.00  0.00    +0.000 A 
ATOM      7  C   UNL     1      45.682   5.487   9.763  0.00  0.00    +0.000 A 
ATOM      8  C   UNL     1      46.243   6.343  10.715  0.00  0.00    +0.000 A 
BRANCH   6   9
ATOM      9  C   UNL     1      44.584   3.308   9.108  0.00  0.00    +0.000 C 
BRANCH   9  10
ATOM     10  C   UNL     1      45.596   2.679   8.177  0.00  0.00    +0.000 A 
ATOM     11  C   UNL     1      45.988   3.321   7.003  0.00  0.00    +0.000 A 
ATOM     12  C   UNL     1      46.824   2.652   6.111  0.00  0.00    +0.000 A 
ATOM     13  C   UNL     1      47.249   1.365   6.410  0.00  0.00    +0.000 A 
ATOM     14  C   UNL     1      46.830   0.802   7.602  0.00  0.00    +0.000 A 
ATOM     15  N   UNL     1      46.017   1.425   8.485  0.00  0.00    +0.000 NA
ENDBRANCH   9  10
ENDBRANCH   6   9
ENDBRANCH   2   3
BRANCH   2  16
ATOM     16  N   UNL     1      47.040   6.192  14.374  0.00  0.00    +0.000 N 
ATOM     17  C   UNL     1      48.244   6.025  15.013  0.00  0.00    +0.000 C 
ATOM     18  O   UNL     1      49.292   6.509  14.595  0.00  0.00    +0.000 OA
ATOM     19  H   UNL     1      46.296   5.534  14.588  0.00  0.00    +0.000 HD
BRANCH  17  20
ATOM     20  C   UNL     1      48.212   5.285  16.279  0.00  0.00    +0.000 A 
ATOM     21  C   UNL     1      47.804   3.957  16.285  0.00  0.00    +0.000 A 
ATOM     22  S   UNL     1      47.827   3.246  17.834  0.00  0.00    +0.000 S 
ATOM     23  C   UNL     1      48.340   4.698  18.554  0.00  0.00    +0.000 A 
ATOM     24  N   UNL     1      48.516   4.788  19.900  0.00  0.00    +0.000 NA
ATOM     25  C   UNL     1      48.876   5.959  20.312  0.00  0.00    +0.000 A 
ATOM     26  N   UNL     1      49.088   7.042  19.501  0.00  0.00    +0.000 N 
ATOM     27  C   UNL     1      48.956   6.989  18.132  0.00  0.00    +0.000 A 
ATOM     28  O   UNL     1      49.205   7.958  17.424  0.00  0.00    +0.000 OA
ATOM     29  C   UNL     1      48.525   5.702  17.622  0.00  0.00    +0.000 A 
ATOM     30  H   UNL     1      49.388   7.927  19.885  0.00  0.00    +0.000 HD
ENDBRANCH  17  20
ENDBRANCH   2  16
TORSDOF 5
ENDMDL
MODEL 3
REMARK VINA RESULT:    -7.973      2.370      2.977
REMARK INTER + INTRA:         -11.073
REMARK INTER:                  -9.919
REMARK INTRA:                  -1.154
REMARK UNBOUND:                -0.770
REMARK  Name = 
REMARK  6 active torsions:
REMARK  status: ('A' for Active; 'I' for Inactive)
REMARK    1  A    between atoms: C_1  and  C_2
REMARK    2  A    between atoms: C_2  and  N_3
REMARK    3  A    between atoms: C_2  and  C_16
REMARK    4  A    between atoms: C_4  and  C_6
REMARK    5  A    between atoms: C_19  and  C_20
REMARK    6  A    between atoms: C_20  and  C_21
REMARK                            x       y       z     vdW  Elec       q    Type
REMARK                         _______ _______ _______ _____ _____    ______ ____
ROOT
ATOM      1  C   UNL     1      47.840   8.917  13.816  0.00  0.00    +0.000 C 
ATOM      2  C   UNL     1      48.066   7.400  13.890  0.00  0.00    +0.000 C 
ENDROOT
BRANCH   2   3
ATOM      3  C   UNL     1      47.068   6.681  12.993  0.00  0.00    +0.000 A 
ATOM      4  C   UNL     1      46.691   5.361  13.270  0.00  0.00    +0.000 A 
ATOM      5  C   UNL     1      45.814   4.678  12.421  0.00  0.00    +0.000 A 
ATOM      6  C   UNL     1      45.283   5.303  11.284  0.00  0.00    +0.000 A 
ATOM      7  C   UNL     1      45.631   6.634  11.025  0.00  0.00    +0.000 A 
ATOM      8  C   UNL     1      46.515   7.313  11.867  0.00  0.00    +0.000 A 
BRANCH   6   9
ATOM      9  C   UNL     1      44.372   4.554  10.338  0.00  0.00    +0.000 C 
BRANCH   9  10
ATOM     10  C   UNL     1      45.056   3.740   9.262  0.00  0.00    +0.000 A 
ATOM     11  C   UNL     1      45.126   2.350   9.349  0.00  0.00    +0.000 A 
ATOM     12  C   UNL     1      45.873   1.649   8.405  0.00  0.00    +0.000 A 
ATOM     13  C   UNL     1      46.528   2.346   7.399  0.00  0.00    +0.000 A 
ATOM     14  C   UNL     1      46.397   3.723   7.371  0.00  0.00    +0.000 A 
ATOM     15  N   UNL     1      45.681   4.431   8.275  0.00  0.00    +0.000 NA
ENDBRANCH   9  10
ENDBRANCH   6   9
ENDBRANCH   2   3
BRANCH   2  16
ATOM     16  N   UNL     1      47.970   6.882  15.245  0.00  0.00    +0.000 N 
ATOM     17  C   UNL     1      49.070   6.479  15.961  0.00  0.00    +0.000 C 
ATOM     18  O   UNL     1      50.216   6.579  15.532  0.00  0.00    +0.000 OA
ATOM     19  H   UNL     1      47.067   6.501  15.511  0.00  0.00    +0.000 HD
BRANCH  17  20
ATOM     20  C   UNL     1      48.817   5.974  17.314  0.00  0.00    +0.000 A 
ATOM     21  C   UNL     1      49.046   4.635  17.599  0.00  0.00    +0.000 A 
ATOM     22  S   UNL     1      48.704   4.215  19.216  0.00  0.00    +0.000 S 
ATOM     23  C   UNL     1      48.198   5.797  19.578  0.00  0.00    +0.000 A 
ATOM     24  N   UNL     1      47.728   6.116  20.813  0.00  0.00    +0.000 NA
ATOM     25  C   UNL     1      47.348   7.346  20.937  0.00  0.00    +0.000 A 
ATOM     26  N   UNL     1      47.408   8.286  19.943  0.00  0.00    +0.000 N 
ATOM     27  C   UNL     1      47.907   8.018  18.689  0.00  0.00    +0.000 A 
ATOM     28  O   UNL     1      48.000   8.891  17.833  0.00  0.00    +0.000 OA
ATOM     29  C   UNL     1      48.320   6.642  18.490  0.00  0.00    +0.000 A 
ATOM     30  H   UNL     1      47.112   9.237  20.110  0.00  0.00    +0.000 HD
ENDBRANCH  17  20
ENDBRANCH   2  16
TORSDOF 5
ENDMDL
MODEL 4
REMARK VINA RESULT:    -7.947      2.675      3.900
REMARK INTER + INTRA:         -11.040
REMARK INTER:                  -9.920
REMARK INTRA:                  -1.119
REMARK UNBOUND:                -0.770
REMARK  Name = 
REMARK  6 active torsions:
REMARK  status: ('A' for Active; 'I' for Inactive)
REMARK    1  A    between atoms: C_1  and  C_2
REMARK    2  A    between atoms: C_2  and  N_3
REMARK    3  A    between atoms: C_2  and  C_16
REMARK    4  A    between atoms: C_4  and  C_6
REMARK    5  A    between atoms: C_19  and  C_20
REMARK    6  A    between atoms: C_20  and  C_21
REMARK                            x       y       z     vdW  Elec       q    Type
REMARK                         _______ _______ _______ _____ _____    ______ ____
ROOT
ATOM      1  C   UNL     1      46.590   4.524  14.595  0.00  0.00    +0.000 C 
ATOM      2  C   UNL     1      46.367   5.664  13.590  0.00  0.00    +0.000 C 
ENDROOT
BRANCH   2   3
ATOM      3  C   UNL     1      45.844   5.102  12.276  0.00  0.00    +0.000 A 
ATOM      4  C   UNL     1      45.266   3.827  12.232  0.00  0.00    +0.000 A 
ATOM      5  C   UNL     1      44.831   3.285  11.018  0.00  0.00    +0.000 A 
ATOM      6  C   UNL     1      44.950   4.009   9.824  0.00  0.00    +0.000 A 
ATOM      7  C   UNL     1      45.496   5.298   9.871  0.00  0.00    +0.000 A 
ATOM      8  C   UNL     1      45.940   5.835  11.082  0.00  0.00    +0.000 A 
BRANCH   6   9
ATOM      9  C   UNL     1      44.524   3.410   8.503  0.00  0.00    +0.000 C 
BRANCH   9  10
ATOM     10  C   UNL     1      45.630   2.834   7.647  0.00  0.00    +0.000 A 
ATOM     11  C   UNL     1      46.296   1.667   8.023  0.00  0.00    +0.000 A 
ATOM     12  C   UNL     1      47.391   1.242   7.275  0.00  0.00    +0.000 A 
ATOM     13  C   UNL     1      47.795   1.983   6.174  0.00  0.00    +0.000 A 
ATOM     14  C   UNL     1      47.074   3.120   5.855  0.00  0.00    +0.000 A 
ATOM     15  N   UNL     1      46.009   3.560   6.564  0.00  0.00    +0.000 NA
ENDBRANCH   9  10
ENDBRANCH   6   9
ENDBRANCH   2   3
BRANCH   2  16
ATOM     16  N   UNL     1      47.570   6.443  13.348  0.00  0.00    +0.000 N 
ATOM     17  C   UNL     1      47.564   7.816  13.310  0.00  0.00    +0.000 C 
ATOM     18  O   UNL     1      46.559   8.483  13.534  0.00  0.00    +0.000 OA
ATOM     19  H   UNL     1      48.322   5.960  12.866  0.00  0.00    +0.000 HD
BRANCH  17  20
ATOM     20  C   UNL     1      48.853   8.465  13.050  0.00  0.00    +0.000 A 
ATOM     21  C   UNL     1      48.953   9.406  12.035  0.00  0.00    +0.000 A 
ATOM     22  S   UNL     1      50.517  10.064  11.868  0.00  0.00    +0.000 S 
ATOM     23  C   UNL     1      51.123   9.083  13.118  0.00  0.00    +0.000 A 
ATOM     24  N   UNL     1      52.438   9.122  13.463  0.00  0.00    +0.000 NA
ATOM     25  C   UNL     1      52.765   8.300  14.405  0.00  0.00    +0.000 A 
ATOM     26  N   UNL     1      51.895   7.455  15.042  0.00  0.00    +0.000 N 
ATOM     27  C   UNL     1      50.551   7.406  14.750  0.00  0.00    +0.000 A 
ATOM     28  O   UNL     1      49.784   6.679  15.372  0.00  0.00    +0.000 OA
ATOM     29  C   UNL     1      50.138   8.289  13.677  0.00  0.00    +0.000 A 
ATOM     30  H   UNL     1      52.211   6.849  15.786  0.00  0.00    +0.000 HD
ENDBRANCH  17  20
ENDBRANCH   2  16
TORSDOF 5
ENDMDL
MODEL 5
REMARK VINA RESULT:    -7.485      3.064      7.758
REMARK INTER + INTRA:         -10.443
REMARK INTER:                  -9.417
REMARK INTRA:                  -1.027
REMARK UNBOUND:                -0.770
REMARK  Name = 
REMARK  6 active torsions:
REMARK  status: ('A' for Active; 'I' for Inactive)
REMARK    1  A    between atoms: C_1  and  C_2
REMARK    2  A    between atoms: C_2  and  N_3
REMARK    3  A    between atoms: C_2  and  C_16
REMARK    4  A    between atoms: C_4  and  C_6
REMARK    5  A    between atoms: C_19  and  C_20
REMARK    6  A    between atoms: C_20  and  C_21
REMARK                            x       y       z     vdW  Elec       q    Type
REMARK                         _______ _______ _______ _____ _____    ______ ____
ROOT
ATOM      1  C   UNL     1      49.896   8.016  12.074  0.00  0.00    +0.000 C 
ATOM      2  C   UNL     1      48.628   7.607  12.837  0.00  0.00    +0.000 C 
ENDROOT
BRANCH   2   3
ATOM      3  C   UNL     1      49.000   7.063  14.209  0.00  0.00    +0.000 A 
ATOM      4  C   UNL     1      50.246   7.362  14.774  0.00  0.00    +0.000 A 
ATOM      5  C   UNL     1      50.615   6.822  16.010  0.00  0.00    +0.000 A 
ATOM      6  C   UNL     1      49.741   5.984  16.717  0.00  0.00    +0.000 A 
ATOM      7  C   UNL     1      48.481   5.712  16.170  0.00  0.00    +0.000 A 
ATOM      8  C   UNL     1      48.117   6.243  14.930  0.00  0.00    +0.000 A 
BRANCH   6   9
ATOM      9  C   UNL     1      50.152   5.361  18.032  0.00  0.00    +0.000 C 
BRANCH   9  10
ATOM     10  C   UNL     1      50.822   4.007  17.945  0.00  0.00    +0.000 A 
ATOM     11  C   UNL     1      52.138   3.828  18.372  0.00  0.00    +0.000 A 
ATOM     12  C   UNL     1      52.759   2.600  18.158  0.00  0.00    +0.000 A 
ATOM     13  C   UNL     1      52.057   1.582  17.528  0.00  0.00    +0.000 A 
ATOM     14  C   UNL     1      50.750   1.831  17.148  0.00  0.00    +0.000 A 
ATOM     15  N   UNL     1      50.122   3.013  17.340  0.00  0.00    +0.000 NA
ENDBRANCH   9  10
ENDBRANCH   6   9
ENDBRANCH   2   3
BRANCH   2  16
ATOM     16  N   UNL     1      47.831   6.627  12.119  0.00  0.00    +0.000 N 
ATOM     17  C   UNL     1      46.529   6.862  11.750  0.00  0.00    +0.000 C 
ATOM     18  O   UNL     1      45.965   7.934  11.947  0.00  0.00    +0.000 OA
ATOM     19  H   UNL     1      48.130   5.660  12.209  0.00  0.00    +0.000 HD
BRANCH  17  20
ATOM     20  C   UNL     1      45.850   5.777  11.034  0.00  0.00    +0.000 A 
ATOM     21  C   UNL     1      45.965   5.691   9.653  0.00  0.00    +0.000 A 
ATOM     22  S   UNL     1      45.119   4.373   8.980  0.00  0.00    +0.000 S 
ATOM     23  C   UNL     1      44.535   3.898  10.505  0.00  0.00    +0.000 A 
ATOM     24  N   UNL     1      43.695   2.836  10.633  0.00  0.00    +0.000 NA
ATOM     25  C   UNL     1      43.305   2.610  11.844  0.00  0.00    +0.000 A 
ATOM     26  N   UNL     1      43.689   3.339  12.938  0.00  0.00    +0.000 N 
ATOM     27  C   UNL     1      44.563   4.400  12.861  0.00  0.00    +0.000 A 
ATOM     28  O   UNL     1      44.933   5.002  13.863  0.00  0.00    +0.000 OA
ATOM     29  C   UNL     1      45.007   4.713  11.517  0.00  0.00    +0.000 A 
ATOM     30  H   UNL     1      43.363   3.098  13.863  0.00  0.00    +0.000 HD
ENDBRANCH  17  20
ENDBRANCH   2  16
TORSDOF 5
ENDMDL
MODEL 6
REMARK VINA RESULT:    -7.283      1.897      2.677
REMARK INTER + INTRA:         -10.182
REMARK INTER:                  -9.361
REMARK INTRA:                  -0.820
REMARK UNBOUND:                -0.770
REMARK  Name = 
REMARK  6 active torsions:
REMARK  status: ('A' for Active; 'I' for Inactive)
REMARK    1  A    between atoms: C_1  and  C_2
REMARK    2  A    between atoms: C_2  and  N_3
REMARK    3  A    between atoms: C_2  and  C_16
REMARK    4  A    between atoms: C_4  and  C_6
REMARK    5  A    between atoms: C_19  and  C_20
REMARK    6  A    between atoms: C_20  and  C_21
REMARK                            x       y       z     vdW  Elec       q    Type
REMARK                         _______ _______ _______ _____ _____    ______ ____
ROOT
ATOM      1  C   UNL     1      48.226   9.782  13.421  0.00  0.00    +0.000 C 
ATOM      2  C   UNL     1      48.321   8.291  13.774  0.00  0.00    +0.000 C 
ENDROOT
BRANCH   2   3
ATOM      3  C   UNL     1      47.295   7.501  12.972  0.00  0.00    +0.000 A 
ATOM      4  C   UNL     1      46.190   8.149  12.406  0.00  0.00    +0.000 A 
ATOM      5  C   UNL     1      45.218   7.421  11.712  0.00  0.00    +0.000 A 
ATOM      6  C   UNL     1      45.334   6.032  11.557  0.00  0.00    +0.000 A 
ATOM      7  C   UNL     1      46.456   5.388  12.093  0.00  0.00    +0.000 A 
ATOM      8  C   UNL     1      47.422   6.114  12.795  0.00  0.00    +0.000 A 
BRANCH   6   9
ATOM      9  C   UNL     1      44.263   5.235  10.849  0.00  0.00    +0.000 C 
BRANCH   9  10
ATOM     10  C   UNL     1      44.745   4.256   9.802  0.00  0.00    +0.000 A 
ATOM     11  C   UNL     1      44.558   2.884   9.961  0.00  0.00    +0.000 A 
ATOM     12  C   UNL     1      45.128   2.010   9.038  0.00  0.00    +0.000 A 
ATOM     13  C   UNL     1      45.867   2.523   7.981  0.00  0.00    +0.000 A 
ATOM     14  C   UNL     1      45.994   3.897   7.881  0.00  0.00    +0.000 A 
ATOM     15  N   UNL     1      45.455   4.769   8.763  0.00  0.00    +0.000 NA
ENDBRANCH   9  10
ENDBRANCH   6   9
ENDBRANCH   2   3
BRANCH   2  16
ATOM     16  N   UNL     1      48.137   8.036  15.193  0.00  0.00    +0.000 N 
ATOM     17  C   UNL     1      48.978   7.223  15.912  0.00  0.00    +0.000 C 
ATOM     18  O   UNL     1      49.976   6.701  15.424  0.00  0.00    +0.000 OA
ATOM     19  H   UNL     1      47.197   8.178  15.551  0.00  0.00    +0.000 HD
BRANCH  17  20
ATOM     20  C   UNL     1      48.664   7.057  17.335  0.00  0.00    +0.000 A 
ATOM     21  C   UNL     1      48.284   8.162  18.085  0.00  0.00    +0.000 A 
ATOM     22  S   UNL     1      47.952   7.795  19.717  0.00  0.00    +0.000 S 
ATOM     23  C   UNL     1      48.345   6.157  19.486  0.00  0.00    +0.000 A 
ATOM     24  N   UNL     1      48.311   5.276  20.521  0.00  0.00    +0.000 NA
ATOM     25  C   UNL     1      48.665   4.073  20.209  0.00  0.00    +0.000 A 
ATOM     26  N   UNL     1      49.037   3.669  18.953  0.00  0.00    +0.000 N 
ATOM     27  C   UNL     1      49.054   4.516  17.869  0.00  0.00    +0.000 A 
ATOM     28  O   UNL     1      49.337   4.117  16.745  0.00  0.00    +0.000 OA
ATOM     29  C   UNL     1      48.692   5.886  18.174  0.00  0.00    +0.000 A 
ATOM     30  H   UNL     1      49.285   2.707  18.770  0.00  0.00    +0.000 HD
ENDBRANCH  17  20
ENDBRANCH   2  16
TORSDOF 5
ENDMDL
MODEL 7
REMARK VINA RESULT:    -7.120      2.865      4.425
REMARK INTER + INTRA:          -9.972
REMARK INTER:                  -8.789
REMARK INTRA:                  -1.182
REMARK UNBOUND:                -0.770
REMARK  Name = 
REMARK  6 active torsions:
REMARK  status: ('A' for Active; 'I' for Inactive)
REMARK    1  A    between atoms: C_1  and  C_2
REMARK    2  A    between atoms: C_2  and  N_3
REMARK    3  A    between atoms: C_2  and  C_16
REMARK    4  A    between atoms: C_4  and  C_6
REMARK    5  A    between atoms: C_19  and  C_20
REMARK    6  A    between atoms: C_20  and  C_21
REMARK                            x       y       z     vdW  Elec       q    Type
REMARK                         _______ _______ _______ _____ _____    ______ ____
ROOT
ATOM      1  C   UNL     1      47.473   4.635  15.477  0.00  0.00    +0.000 C 
ATOM      2  C   UNL     1      47.318   5.864  14.571  0.00  0.00    +0.000 C 
ENDROOT
BRANCH   2   3
ATOM      3  C   UNL     1      46.538   5.493  13.318  0.00  0.00    +0.000 A 
ATOM      4  C   UNL     1      45.954   4.225  13.199  0.00  0.00    +0.000 A 
ATOM      5  C   UNL     1      45.281   3.859  12.029  0.00  0.00    +0.000 A 
ATOM      6  C   UNL     1      45.162   4.756  10.958  0.00  0.00    +0.000 A 
ATOM      7  C   UNL     1      45.715   6.035  11.089  0.00  0.00    +0.000 A 
ATOM      8  C   UNL     1      46.397   6.397  12.253  0.00  0.00    +0.000 A 
BRANCH   6   9
ATOM      9  C   UNL     1      44.476   4.349   9.674  0.00  0.00    +0.000 C 
BRANCH   9  10
ATOM     10  C   UNL     1      45.313   3.555   8.696  0.00  0.00    +0.000 A 
ATOM     11  C   UNL     1      45.455   2.174   8.828  0.00  0.00    +0.000 A 
ATOM     12  C   UNL     1      46.335   1.500   7.984  0.00  0.00    +0.000 A 
ATOM     13  C   UNL     1      47.047   2.213   7.031  0.00  0.00    +0.000 A 
ATOM     14  C   UNL     1      46.839   3.578   6.950  0.00  0.00    +0.000 A 
ATOM     15  N   UNL     1      45.994   4.261   7.757  0.00  0.00    +0.000 NA
ENDBRANCH   9  10
ENDBRANCH   6   9
ENDBRANCH   2   3
BRANCH   2  16
ATOM     16  N   UNL     1      48.595   6.453  14.198  0.00  0.00    +0.000 N 
ATOM     17  C   UNL     1      48.920   7.755  14.488  0.00  0.00    +0.000 C 
ATOM     18  O   UNL     1      48.182   8.497  15.131  0.00  0.00    +0.000 OA
ATOM     19  H   UNL     1      49.082   6.004  13.429  0.00  0.00    +0.000 HD
BRANCH  17  20
ATOM     20  C   UNL     1      50.241   8.210  14.045  0.00  0.00    +0.000 A 
ATOM     21  C   UNL     1      51.111   8.782  14.964  0.00  0.00    +0.000 A 
ATOM     22  S   UNL     1      52.604   9.252  14.287  0.00  0.00    +0.000 S 
ATOM     23  C   UNL     1      52.122   8.747  12.736  0.00  0.00    +0.000 A 
ATOM     24  N   UNL     1      52.940   8.909  11.662  0.00  0.00    +0.000 NA
ATOM     25  C   UNL     1      52.432   8.510  10.542  0.00  0.00    +0.000 A 
ATOM     26  N   UNL     1      51.189   7.952  10.402  0.00  0.00    +0.000 N 
ATOM     27  C   UNL     1      50.342   7.737  11.465  0.00  0.00    +0.000 A 
ATOM     28  O   UNL     1      49.256   7.186  11.321  0.00  0.00    +0.000 OA
ATOM     29  C   UNL     1      50.854   8.195  12.741  0.00  0.00    +0.000 A 
ATOM     30  H   UNL     1      50.858   7.643   9.500  0.00  0.00    +0.000 HD
ENDBRANCH  17  20
ENDBRANCH   2  16
TORSDOF 5
ENDMDL
MODEL 8
REMARK VINA RESULT:    -7.062      2.910      8.644
REMARK INTER + INTRA:          -9.896
REMARK INTER:                  -8.906
REMARK INTRA:                  -0.989
REMARK UNBOUND:                -0.770
REMARK  Name = 
REMARK  6 active torsions:
REMARK  status: ('A' for Active; 'I' for Inactive)
REMARK    1  A    between atoms: C_1  and  C_2
REMARK    2  A    between atoms: C_2  and  N_3
REMARK    3  A    between atoms: C_2  and  C_16
REMARK    4  A    between atoms: C_4  and  C_6
REMARK    5  A    between atoms: C_19  and  C_20
REMARK    6  A    between atoms: C_20  and  C_21
REMARK                            x       y       z     vdW  Elec       q    Type
REMARK                         _______ _______ _______ _____ _____    ______ ____
ROOT
ATOM      1  C   UNL     1      48.888   7.870  11.518  0.00  0.00    +0.000 C 
ATOM      2  C   UNL     1      47.647   7.751  12.414  0.00  0.00    +0.000 C 
ENDROOT
BRANCH   2   3
ATOM      3  C   UNL     1      48.056   7.816  13.879  0.00  0.00    +0.000 A 
ATOM      4  C   UNL     1      47.923   9.012  14.597  0.00  0.00    +0.000 A 
ATOM      5  C   UNL     1      48.344   9.093  15.928  0.00  0.00    +0.000 A 
ATOM      6  C   UNL     1      48.894   7.978  16.576  0.00  0.00    +0.000 A 
ATOM      7  C   UNL     1      48.996   6.773  15.871  0.00  0.00    +0.000 A 
ATOM      8  C   UNL     1      48.584   6.695  14.537  0.00  0.00    +0.000 A 
BRANCH   6   9
ATOM      9  C   UNL     1      49.394   8.073  18.000  0.00  0.00    +0.000 C 
BRANCH   9  10
ATOM     10  C   UNL     1      48.906   7.000  18.948  0.00  0.00    +0.000 A 
ATOM     11  C   UNL     1      47.665   7.107  19.575  0.00  0.00    +0.000 A 
ATOM     12  C   UNL     1      47.308   6.165  20.537  0.00  0.00    +0.000 A 
ATOM     13  C   UNL     1      48.192   5.141  20.849  0.00  0.00    +0.000 A 
ATOM     14  C   UNL     1      49.397   5.093  20.172  0.00  0.00    +0.000 A 
ATOM     15  N   UNL     1      49.772   5.995  19.236  0.00  0.00    +0.000 NA
ENDBRANCH   9  10
ENDBRANCH   6   9
ENDBRANCH   2   3
BRANCH   2  16
ATOM     16  N   UNL     1      46.891   6.534  12.168  0.00  0.00    +0.000 N 
ATOM     17  C   UNL     1      45.585   6.550  11.745  0.00  0.00    +0.000 C 
ATOM     18  O   UNL     1      44.982   7.587  11.488  0.00  0.00    +0.000 OA
ATOM     19  H   UNL     1      47.223   5.702  12.646  0.00  0.00    +0.000 HD
BRANCH  17  20
ATOM     20  C   UNL     1      44.951   5.243  11.544  0.00  0.00    +0.000 A 
ATOM     21  C   UNL     1      44.252   4.654  12.590  0.00  0.00    +0.000 A 
ATOM     22  S   UNL     1      43.575   3.141  12.189  0.00  0.00    +0.000 S 
ATOM     23  C   UNL     1      44.229   3.202  10.620  0.00  0.00    +0.000 A 
ATOM     24  N   UNL     1      44.055   2.172   9.749  0.00  0.00    +0.000 NA
ATOM     25  C   UNL     1      44.634   2.340   8.606  0.00  0.00    +0.000 A 
ATOM     26  N   UNL     1      45.358   3.447   8.251  0.00  0.00    +0.000 N 
ATOM     27  C   UNL     1      45.531   4.527   9.086  0.00  0.00    +0.000 A 
ATOM     28  O   UNL     1      46.137   5.529   8.724  0.00  0.00    +0.000 OA
ATOM     29  C   UNL     1      44.925   4.376  10.394  0.00  0.00    +0.000 A 
ATOM     30  H   UNL     1      45.770   3.525   7.332  0.00  0.00    +0.000 HD
ENDBRANCH  17  20
ENDBRANCH   2  16
TORSDOF 5
ENDMDL
MODEL 9
REMARK VINA RESULT:    -6.905      4.036      8.602
REMARK INTER + INTRA:          -9.694
REMARK INTER:                  -9.228
REMARK INTRA:                  -0.465
REMARK UNBOUND:                -0.770
REMARK  Name = 
REMARK  6 active torsions:
REMARK  status: ('A' for Active; 'I' for Inactive)
REMARK    1  A    between atoms: C_1  and  C_2
REMARK    2  A    between atoms: C_2  and  N_3
REMARK    3  A    between atoms: C_2  and  C_16
REMARK    4  A    between atoms: C_4  and  C_6
REMARK    5  A    between atoms: C_19  and  C_20
REMARK    6  A    between atoms: C_20  and  C_21
REMARK                            x       y       z     vdW  Elec       q    Type
REMARK                         _______ _______ _______ _____ _____    ______ ____
ROOT
ATOM      1  C   UNL     1      47.176   4.784  18.490  0.00  0.00    +0.000 C 
ATOM      2  C   UNL     1      47.738   4.086  17.243  0.00  0.00    +0.000 C 
ENDROOT
BRANCH   2   3
ATOM      3  C   UNL     1      49.236   3.867  17.400  0.00  0.00    +0.000 A 
ATOM      4  C   UNL     1      49.778   2.579  17.289  0.00  0.00    +0.000 A 
ATOM      5  C   UNL     1      51.145   2.364  17.483  0.00  0.00    +0.000 A 
ATOM      6  C   UNL     1      52.006   3.431  17.779  0.00  0.00    +0.000 A 
ATOM      7  C   UNL     1      51.472   4.723  17.857  0.00  0.00    +0.000 A 
ATOM      8  C   UNL     1      50.103   4.937  17.672  0.00  0.00    +0.000 A 
BRANCH   6   9
ATOM      9  C   UNL     1      53.477   3.197  18.036  0.00  0.00    +0.000 C 
BRANCH   9  10
ATOM     10  C   UNL     1      53.979   1.792  17.791  0.00  0.00    +0.000 A 
ATOM     11  C   UNL     1      54.755   1.491  16.672  0.00  0.00    +0.000 A 
ATOM     12  C   UNL     1      55.090   0.163  16.416  0.00  0.00    +0.000 A 
ATOM     13  C   UNL     1      54.648  -0.830  17.279  0.00  0.00    +0.000 A 
ATOM     14  C   UNL     1      53.896  -0.450  18.376  0.00  0.00    +0.000 A 
ATOM     15  N   UNL     1      53.553   0.829  18.649  0.00  0.00    +0.000 NA
ENDBRANCH   9  10
ENDBRANCH   6   9
ENDBRANCH   2   3
BRANCH   2  16
ATOM     16  N   UNL     1      47.475   4.824  16.019  0.00  0.00    +0.000 N 
ATOM     17  C   UNL     1      47.406   4.214  14.790  0.00  0.00    +0.000 C 
ATOM     18  O   UNL     1      47.504   2.999  14.644  0.00  0.00    +0.000 OA
ATOM     19  H   UNL     1      47.693   5.815  16.043  0.00  0.00    +0.000 HD
BRANCH  17  20
ATOM     20  C   UNL     1      47.139   5.089  13.644  0.00  0.00    +0.000 A 
ATOM     21  C   UNL     1      47.832   6.286  13.520  0.00  0.00    +0.000 A 
ATOM     22  S   UNL     1      47.404   7.180  12.133  0.00  0.00    +0.000 S 
ATOM     23  C   UNL     1      46.248   6.021  11.675  0.00  0.00    +0.000 A 
ATOM     24  N   UNL     1      45.476   6.201  10.570  0.00  0.00    +0.000 NA
ATOM     25  C   UNL     1      44.618   5.257  10.361  0.00  0.00    +0.000 A 
ATOM     26  N   UNL     1      44.472   4.145  11.147  0.00  0.00    +0.000 N 
ATOM     27  C   UNL     1      45.253   3.904  12.254  0.00  0.00    +0.000 A 
ATOM     28  O   UNL     1      45.139   2.874  12.910  0.00  0.00    +0.000 OA
ATOM     29  C   UNL     1      46.213   4.950  12.549  0.00  0.00    +0.000 A 
ATOM     30  H   UNL     1      43.794   3.433  10.918  0.00  0.00    +0.000 HD
ENDBRANCH  17  20
ENDBRANCH   2  16
TORSDOF 5
ENDMDL
