MODEL 1
REMARK VINA RESULT:    -7.318      0.000      0.000
REMARK INTER + INTRA:         -12.965
REMARK INTER:                 -11.596
REMARK INTRA:                  -1.368
REMARK UNBOUND:                -1.368
REMARK  Name = 
REMARK  11 active torsions:
REMARK  status: ('A' for Active; 'I' for Inactive)
REMARK    1  A    between atoms: N_1  and  C_2
REMARK    2  A    between atoms: C_2  and  C_3
REMARK    3  A    between atoms: C_3  and  C_4
REMARK    4  A    between atoms: C_4  and  C_5
REMARK    5  A    between atoms: C_5  and  C_6
REMARK    6  A    between atoms: C_6  and  C_7
REMARK    7  A    between atoms: C_7  and  N_8
REMARK    8  A    between atoms: C_7  and  C_9
REMARK    9  A    between atoms: C_13  and  O_14
REMARK   10  A    between atoms: O_14  and  C_15
REMARK   11  A    between atoms: C_15  and  C_16
REMARK                            x       y       z     vdW  Elec       q    Type
REMARK                         _______ _______ _______ _____ _____    ______ ____
ROOT
ATOM      1  C   UNL     1      44.395   5.985  11.694  0.00  0.00    +0.000 A 
ATOM      2  C   UNL     1      43.642   5.477  12.763  0.00  0.00    +0.000 A 
ATOM      3  C   UNL     1      43.166   4.160  12.737  0.00  0.00    +0.000 A 
ATOM      4  C   UNL     1      43.405   3.345  11.633  0.00  0.00    +0.000 A 
ATOM      5  C   UNL     1      44.092   3.851  10.536  0.00  0.00    +0.000 A 
ATOM      6  C   UNL     1      44.588   5.151  10.579  0.00  0.00    +0.000 A 
ENDROOT
BRANCH   1   7
ATOM      7  C   UNL     1      44.975   7.387  11.620  0.00  0.00    +0.000 C 
BRANCH   7   8
ATOM      8  N   UNL     1      43.915   8.342  11.271  0.00  0.00    +0.000 NA
ATOM      9  H   UNL     1      43.310   7.922  10.565  0.00  0.00    +0.000 HD
ATOM     10  H   UNL     1      44.327   9.163  10.832  0.00  0.00    +0.000 HD
ENDBRANCH   7   8
BRANCH   7  11
ATOM     11  C   UNL     1      45.701   7.931  12.859  0.00  0.00    +0.000 C 
BRANCH  11  12
ATOM     12  C   UNL     1      47.215   7.728  12.909  0.00  0.00    +0.000 C 
BRANCH  12  13
ATOM     13  C   UNL     1      47.727   6.289  12.766  0.00  0.00    +0.000 C 
BRANCH  13  14
ATOM     14  C   UNL     1      47.228   5.490  13.979  0.00  0.00    +0.000 C 
BRANCH  14  15
ATOM     15  C   UNL     1      46.920   4.030  13.670  0.00  0.00    +0.000 C 
BRANCH  15  16
ATOM     16  N   UNL     1      47.517   3.184  14.702  0.00  0.00    +0.000 NA
ATOM     17  H   UNL     1      47.215   3.496  15.618  0.00  0.00    +0.000 HD
ATOM     18  H   UNL     1      48.535   3.283  14.680  0.00  0.00    +0.000 HD
ENDBRANCH  15  16
ENDBRANCH  14  15
ENDBRANCH  13  14
ENDBRANCH  12  13
ENDBRANCH  11  12
ENDBRANCH   7  11
ENDBRANCH   1   7
BRANCH   5  19
ATOM     19  O   UNL     1      44.242   3.011   9.464  0.00  0.00    +0.000 OA
BRANCH  19  20
ATOM     20  C   UNL     1      44.729   3.650   8.276  0.00  0.00    +0.000 C 
BRANCH  20  21
ATOM     21  C   UNL     1      45.844   2.828   7.697  0.00  0.00    +0.000 A 
ATOM     22  C   UNL     1      46.074   1.536   8.173  0.00  0.00    +0.000 A 
ATOM     23  C   UNL     1      47.097   0.796   7.607  0.00  0.00    +0.000 A 
ATOM     24  N   UNL     1      47.881   1.245   6.602  0.00  0.00    +0.000 NA
ATOM     25  C   UNL     1      47.629   2.493   6.149  0.00  0.00    +0.000 A 
ATOM     26  C   UNL     1      46.634   3.310   6.652  0.00  0.00    +0.000 A 
ENDBRANCH  20  21
ENDBRANCH  19  20
ENDBRANCH   5  19
TORSDOF 11
ENDMDL
MODEL 2
REMARK VINA RESULT:    -7.118      1.125      1.316
REMARK INTER + INTRA:         -12.648
REMARK INTER:                 -11.526
REMARK INTRA:                  -1.121
REMARK UNBOUND:                -1.368
REMARK  Name = 
REMARK  11 active torsions:
REMARK  status: ('A' for Active; 'I' for Inactive)
REMARK    1  A    between atoms: N_1  and  C_2
REMARK    2  A    between atoms: C_2  and  C_3
REMARK    3  A    between atoms: C_3  and  C_4
REMARK    4  A    between atoms: C_4  and  C_5
REMARK    5  A    between atoms: C_5  and  C_6
REMARK    6  A    between atoms: C_6  and  C_7
REMARK    7  A    between atoms: C_7  and  N_8
REMARK    8  A    between atoms: C_7  and  C_9
REMARK    9  A    between atoms: C_13  and  O_14
REMARK   10  A    between atoms: O_14  and  C_15
REMARK   11  A    between atoms: C_15  and  C_16
REMARK                            x       y       z     vdW  Elec       q    Type
REMARK                         _______ _______ _______ _____ _____    ______ ____
ROOT
ATOM      1  C   UNL     1      44.852   5.635  11.878  0.00  0.00    +0.000 A 
ATOM      2  C   UNL     1      44.050   5.122  12.909  0.00  0.00    +0.000 A 
ATOM      3  C   UNL     1      43.380   3.902  12.750  0.00  0.00    +0.000 A 
ATOM      4  C   UNL     1      43.472   3.197  11.552  0.00  0.00    +0.000 A 
ATOM      5  C   UNL     1      44.208   3.721  10.497  0.00  0.00    +0.000 A 
ATOM      6  C   UNL     1      44.896   4.920  10.669  0.00  0.00    +0.000 A 
ENDROOT
BRANCH   1   7
ATOM      7  C   UNL     1      45.635   6.934  11.944  0.00  0.00    +0.000 C 
BRANCH   7   8
ATOM      8  N   UNL     1      44.919   7.901  12.787  0.00  0.00    +0.000 NA
ATOM      9  H   UNL     1      44.023   8.119  12.352  0.00  0.00    +0.000 HD
ATOM     10  H   UNL     1      45.436   8.777  12.815  0.00  0.00    +0.000 HD
ENDBRANCH   7   8
BRANCH   7  11
ATOM     11  C   UNL     1      47.088   6.874  12.437  0.00  0.00    +0.000 C 
BRANCH  11  12
ATOM     12  C   UNL     1      47.508   5.603  13.175  0.00  0.00    +0.000 C 
BRANCH  12  13
ATOM     13  C   UNL     1      47.658   5.703  14.698  0.00  0.00    +0.000 C 
BRANCH  13  14
ATOM     14  C   UNL     1      47.120   4.401  15.310  0.00  0.00    +0.000 C 
BRANCH  14  15
ATOM     15  C   UNL     1      47.470   4.222  16.782  0.00  0.00    +0.000 C 
BRANCH  15  16
ATOM     16  N   UNL     1      46.632   3.167  17.350  0.00  0.00    +0.000 NA
ATOM     17  H   UNL     1      46.031   2.782  16.631  0.00  0.00    +0.000 HD
ATOM     18  H   UNL     1      46.017   3.566  18.064  0.00  0.00    +0.000 HD
ENDBRANCH  15  16
ENDBRANCH  14  15
ENDBRANCH  13  14
ENDBRANCH  12  13
ENDBRANCH  11  12
ENDBRANCH   7  11
ENDBRANCH   1   7
BRANCH   5  19
ATOM     19  O   UNL     1      44.209   3.001   9.330  0.00  0.00    +0.000 OA
BRANCH  19  20
ATOM     20  C   UNL     1      44.764   3.696   8.207  0.00  0.00    +0.000 C 
BRANCH  20  21
ATOM     21  C   UNL     1      45.881   2.880   7.624  0.00  0.00    +0.000 A 
ATOM     22  C   UNL     1      46.140   1.602   8.123  0.00  0.00    +0.000 A 
ATOM     23  C   UNL     1      47.164   0.865   7.554  0.00  0.00    +0.000 A 
ATOM     24  N   UNL     1      47.923   1.305   6.526  0.00  0.00    +0.000 NA
ATOM     25  C   UNL     1      47.643   2.539   6.051  0.00  0.00    +0.000 A 
ATOM     26  C   UNL     1      46.644   3.351   6.554  0.00  0.00    +0.000 A 
ENDBRANCH  20  21
ENDBRANCH  19  20
ENDBRANCH   5  19
TORSDOF 11
ENDMDL
MODEL 3
REMARK VINA RESULT:    -7.091      1.017      3.001
REMARK INTER + INTRA:         -12.605
REMARK INTER:                 -11.356
REMARK INTRA:                  -1.249
REMARK UNBOUND:                -1.368
REMARK  Name = 
REMARK  11 active torsions:
REMARK  status: ('A' for Active; 'I' for Inactive)
REMARK    1  A    between atoms: N_1  and  C_2
REMARK    2  A    between atoms: C_2  and  C_3
REMARK    3  A    between atoms: C_3  and  C_4
REMARK    4  A    between atoms: C_4  and  C_5
REMARK    5  A    between atoms: C_5  and  C_6
REMARK    6  A    between atoms: C_6  and  C_7
REMARK    7  A    between atoms: C_7  and  N_8
REMARK    8  A    between atoms: C_7  and  C_9
REMARK    9  A    between atoms: C_13  and  O_14
REMARK   10  A    between atoms: O_14  and  C_15
REMARK   11  A    between atoms: C_15  and  C_16
REMARK                            x       y       z     vdW  Elec       q    Type
REMARK                         _______ _______ _______ _____ _____    ______ ____
ROOT
ATOM      1  C   UNL     1      45.264   4.442  13.056  0.00  0.00    +0.000 A 
ATOM      2  C   UNL     1      44.060   5.132  13.263  0.00  0.00    +0.000 A 
ATOM      3  C   UNL     1      42.967   4.928  12.411  0.00  0.00    +0.000 A 
ATOM      4  C   UNL     1      43.071   4.063  11.324  0.00  0.00    +0.000 A 
ATOM      5  C   UNL     1      44.275   3.421  11.064  0.00  0.00    +0.000 A 
ATOM      6  C   UNL     1      45.350   3.604  11.931  0.00  0.00    +0.000 A 
ENDROOT
BRANCH   1   7
ATOM      7  C   UNL     1      46.505   4.570  13.922  0.00  0.00    +0.000 C 
BRANCH   7   8
ATOM      8  N   UNL     1      47.140   3.253  14.073  0.00  0.00    +0.000 NA
ATOM      9  H   UNL     1      46.466   2.531  13.821  0.00  0.00    +0.000 HD
ATOM     10  H   UNL     1      47.366   3.095  15.053  0.00  0.00    +0.000 HD
ENDBRANCH   7   8
BRANCH   7  11
ATOM     11  C   UNL     1      47.591   5.561  13.481  0.00  0.00    +0.000 C 
BRANCH  11  12
ATOM     12  C   UNL     1      47.135   6.992  13.192  0.00  0.00    +0.000 C 
BRANCH  12  13
ATOM     13  C   UNL     1      46.756   7.320  11.743  0.00  0.00    +0.000 C 
BRANCH  13  14
ATOM     14  C   UNL     1      45.440   8.110  11.769  0.00  0.00    +0.000 C 
BRANCH  14  15
ATOM     15  C   UNL     1      45.541   9.448  12.491  0.00  0.00    +0.000 C 
BRANCH  15  16
ATOM     16  N   UNL     1      44.232  10.100  12.479  0.00  0.00    +0.000 NA
ATOM     17  H   UNL     1      43.500   9.398  12.488  0.00  0.00    +0.000 HD
ATOM     18  H   UNL     1      44.120  10.629  11.610  0.00  0.00    +0.000 HD
ENDBRANCH  15  16
ENDBRANCH  14  15
ENDBRANCH  13  14
ENDBRANCH  12  13
ENDBRANCH  11  12
ENDBRANCH   7  11
ENDBRANCH   1   7
BRANCH   5  19
ATOM     19  O   UNL     1      44.322   2.629   9.947  0.00  0.00    +0.000 OA
BRANCH  19  20
ATOM     20  C   UNL     1      44.633   3.330   8.737  0.00  0.00    +0.000 C 
BRANCH  20  21
ATOM     21  C   UNL     1      45.797   2.662   8.064  0.00  0.00    +0.000 A 
ATOM     22  C   UNL     1      45.988   1.286   8.213  0.00  0.00    +0.000 A 
ATOM     23  C   UNL     1      47.059   0.695   7.566  0.00  0.00    +0.000 A 
ATOM     24  N   UNL     1      47.927   1.369   6.781  0.00  0.00    +0.000 NA
ATOM     25  C   UNL     1      47.713   2.696   6.642  0.00  0.00    +0.000 A 
ATOM     26  C   UNL     1      46.675   3.378   7.249  0.00  0.00    +0.000 A 
ENDBRANCH  20  21
ENDBRANCH  19  20
ENDBRANCH   5  19
TORSDOF 11
ENDMDL
MODEL 4
REMARK VINA RESULT:    -6.730      3.086      7.469
REMARK INTER + INTRA:         -12.032
REMARK INTER:                 -11.178
REMARK INTRA:                  -0.854
REMARK UNBOUND:                -1.368
REMARK  Name = 
REMARK  11 active torsions:
REMARK  status: ('A' for Active; 'I' for Inactive)
REMARK    1  A    between atoms: N_1  and  C_2
REMARK    2  A    between atoms: C_2  and  C_3
REMARK    3  A    between atoms: C_3  and  C_4
REMARK    4  A    between atoms: C_4  and  C_5
REMARK    5  A    between atoms: C_5  and  C_6
REMARK    6  A    between atoms: C_6  and  C_7
REMARK    7  A    between atoms: C_7  and  N_8
REMARK    8  A    between atoms: C_7  and  C_9
REMARK    9  A    between atoms: C_13  and  O_14
REMARK   10  A    between atoms: O_14  and  C_15
REMARK   11  A    between atoms: C_15  and  C_16
REMARK                            x       y       z     vdW  Elec       q    Type
REMARK                         _______ _______ _______ _____ _____    ______ ____
ROOT
ATOM      1  C   UNL     1      45.301   4.168  11.782  0.00  0.00    +0.000 A 
ATOM      2  C   UNL     1      45.563   5.546  11.811  0.00  0.00    +0.000 A 
ATOM      3  C   UNL     1      46.466   6.080  12.740  0.00  0.00    +0.000 A 
ATOM      4  C   UNL     1      47.091   5.254  13.671  0.00  0.00    +0.000 A 
ATOM      5  C   UNL     1      46.795   3.897  13.700  0.00  0.00    +0.000 A 
ATOM      6  C   UNL     1      45.918   3.366  12.757  0.00  0.00    +0.000 A 
ENDROOT
BRANCH   1   7
ATOM      7  C   UNL     1      44.357   3.478  10.812  0.00  0.00    +0.000 C 
BRANCH   7   8
ATOM      8  N   UNL     1      43.095   3.158  11.493  0.00  0.00    +0.000 NA
ATOM      9  H   UNL     1      42.666   2.355  11.035  0.00  0.00    +0.000 HD
ATOM     10  H   UNL     1      42.441   3.929  11.377  0.00  0.00    +0.000 HD
ENDBRANCH   7   8
BRANCH   7  11
ATOM     11  C   UNL     1      44.009   4.206   9.506  0.00  0.00    +0.000 C 
BRANCH  11  12
ATOM     12  C   UNL     1      45.024   4.096   8.369  0.00  0.00    +0.000 C 
BRANCH  12  13
ATOM     13  C   UNL     1      45.701   2.734   8.173  0.00  0.00    +0.000 C 
BRANCH  13  14
ATOM     14  C   UNL     1      46.860   2.923   7.183  0.00  0.00    +0.000 C 
BRANCH  14  15
ATOM     15  C   UNL     1      47.663   1.654   6.926  0.00  0.00    +0.000 C 
BRANCH  15  16
ATOM     16  N   UNL     1      48.469   1.832   5.719  0.00  0.00    +0.000 NA
ATOM     17  H   UNL     1      49.309   2.355   5.942  0.00  0.00    +0.000 HD
ATOM     18  H   UNL     1      47.948   2.390   5.039  0.00  0.00    +0.000 HD
ENDBRANCH  15  16
ENDBRANCH  14  15
ENDBRANCH  13  14
ENDBRANCH  12  13
ENDBRANCH  11  12
ENDBRANCH   7  11
ENDBRANCH   1   7
BRANCH   5  19
ATOM     19  O   UNL     1      47.404   3.155  14.678  0.00  0.00    +0.000 OA
BRANCH  19  20
ATOM     20  C   UNL     1      47.296   3.709  15.996  0.00  0.00    +0.000 C 
BRANCH  20  21
ATOM     21  C   UNL     1      48.631   3.626  16.677  0.00  0.00    +0.000 A 
ATOM     22  C   UNL     1      49.202   4.776  17.226  0.00  0.00    +0.000 A 
ATOM     23  C   UNL     1      50.425   4.665  17.865  0.00  0.00    +0.000 A 
ATOM     24  N   UNL     1      51.096   3.501  18.004  0.00  0.00    +0.000 NA
ATOM     25  C   UNL     1      50.516   2.401  17.476  0.00  0.00    +0.000 A 
ATOM     26  C   UNL     1      49.300   2.409  16.818  0.00  0.00    +0.000 A 
ENDBRANCH  20  21
ENDBRANCH  19  20
ENDBRANCH   5  19
TORSDOF 11
ENDMDL
MODEL 5
REMARK VINA RESULT:    -6.555      1.711      2.925
REMARK INTER + INTRA:         -11.756
REMARK INTER:                 -10.896
REMARK INTRA:                  -0.860
REMARK UNBOUND:                -1.368
REMARK  Name = 
REMARK  11 active torsions:
REMARK  status: ('A' for Active; 'I' for Inactive)
REMARK    1  A    between atoms: N_1  and  C_2
REMARK    2  A    between atoms: C_2  and  C_3
REMARK    3  A    between atoms: C_3  and  C_4
REMARK    4  A    between atoms: C_4  and  C_5
REMARK    5  A    between atoms: C_5  and  C_6
REMARK    6  A    between atoms: C_6  and  C_7
REMARK    7  A    between atoms: C_7  and  N_8
REMARK    8  A    between atoms: C_7  and  C_9
REMARK    9  A    between atoms: C_13  and  O_14
REMARK   10  A    between atoms: O_14  and  C_15
REMARK   11  A    between atoms: C_15  and  C_16
REMARK                            x       y       z     vdW  Elec       q    Type
REMARK                         _______ _______ _______ _____ _____    ______ ____
ROOT
ATOM      1  C   UNL     1      45.362   4.776  13.023  0.00  0.00    +0.000 A 
ATOM      2  C   UNL     1      44.372   5.769  12.976  0.00  0.00    +0.000 A 
ATOM      3  C   UNL     1      43.381   5.741  11.986  0.00  0.00    +0.000 A 
ATOM      4  C   UNL     1      43.386   4.746  11.011  0.00  0.00    +0.000 A 
ATOM      5  C   UNL     1      44.395   3.792  11.002  0.00  0.00    +0.000 A 
ATOM      6  C   UNL     1      45.361   3.806  12.005  0.00  0.00    +0.000 A 
ENDROOT
BRANCH   1   7
ATOM      7  C   UNL     1      46.472   4.696  14.057  0.00  0.00    +0.000 C 
BRANCH   7   8
ATOM      8  N   UNL     1      47.082   3.359  14.024  0.00  0.00    +0.000 NA
ATOM      9  H   UNL     1      47.616   3.261  13.161  0.00  0.00    +0.000 HD
ATOM     10  H   UNL     1      46.351   2.653  13.981  0.00  0.00    +0.000 HD
ENDBRANCH   7   8
BRANCH   7  11
ATOM     11  C   UNL     1      47.607   5.726  13.975  0.00  0.00    +0.000 C 
BRANCH  11  12
ATOM     12  C   UNL     1      47.290   7.038  13.257  0.00  0.00    +0.000 C 
BRANCH  12  13
ATOM     13  C   UNL     1      47.766   7.166  11.804  0.00  0.00    +0.000 C 
BRANCH  13  14
ATOM     14  C   UNL     1      48.659   8.411  11.711  0.00  0.00    +0.000 C 
BRANCH  14  15
ATOM     15  C   UNL     1      49.657   8.539  12.856  0.00  0.00    +0.000 C 
BRANCH  15  16
ATOM     16  N   UNL     1      50.836   7.727  12.559  0.00  0.00    +0.000 NA
ATOM     17  H   UNL     1      51.609   8.017  13.147  0.00  0.00    +0.000 HD
ATOM     18  H   UNL     1      51.128   7.887  11.591  0.00  0.00    +0.000 HD
ENDBRANCH  15  16
ENDBRANCH  14  15
ENDBRANCH  13  14
ENDBRANCH  12  13
ENDBRANCH  11  12
ENDBRANCH   7  11
ENDBRANCH   1   7
BRANCH   5  19
ATOM     19  O   UNL     1      44.368   2.876   9.983  0.00  0.00    +0.000 OA
BRANCH  19  20
ATOM     20  C   UNL     1      44.620   3.429   8.684  0.00  0.00    +0.000 C 
BRANCH  20  21
ATOM     21  C   UNL     1      45.764   2.695   8.049  0.00  0.00    +0.000 A 
ATOM     22  C   UNL     1      46.720   3.402   7.315  0.00  0.00    +0.000 A 
ATOM     23  C   UNL     1      47.774   2.700   6.757  0.00  0.00    +0.000 A 
ATOM     24  N   UNL     1      47.945   1.367   6.892  0.00  0.00    +0.000 NA
ATOM     25  C   UNL     1      47.014   0.708   7.618  0.00  0.00    +0.000 A 
ATOM     26  C   UNL     1      45.925   1.318   8.212  0.00  0.00    +0.000 A 
ENDBRANCH  20  21
ENDBRANCH  19  20
ENDBRANCH   5  19
TORSDOF 11
ENDMDL
MODEL 6
REMARK VINA RESULT:    -6.384      1.594      2.637
REMARK INTER + INTRA:         -11.485
REMARK INTER:                 -10.286
REMARK INTRA:                  -1.199
REMARK UNBOUND:                -1.368
REMARK  Name = 
REMARK  11 active torsions:
REMARK  status: ('A' for Active; 'I' for Inactive)
REMARK    1  A    between atoms: N_1  and  C_2
REMARK    2  A    between atoms: C_2  and  C_3
REMARK    3  A    between atoms: C_3  and  C_4
REMARK    4  A    between atoms: C_4  and  C_5
REMARK    5  A    between atoms: C_5  and  C_6
REMARK    6  A    between atoms: C_6  and  C_7
REMARK    7  A    between atoms: C_7  and  N_8
REMARK    8  A    between atoms: C_7  and  C_9
REMARK    9  A    between atoms: C_13  and  O_14
REMARK   10  A    between atoms: O_14  and  C_15
REMARK   11  A    between atoms: C_15  and  C_16
REMARK                            x       y       z     vdW  Elec       q    Type
REMARK                         _______ _______ _______ _____ _____    ______ ____
ROOT
ATOM      1  C   UNL     1      45.034   5.777  11.946  0.00  0.00    +0.000 A 
ATOM      2  C   UNL     1      44.228   5.315  12.998  0.00  0.00    +0.000 A 
ATOM      3  C   UNL     1      43.474   4.143  12.856  0.00  0.00    +0.000 A 
ATOM      4  C   UNL     1      43.486   3.438  11.655  0.00  0.00    +0.000 A 
ATOM      5  C   UNL     1      44.226   3.914  10.580  0.00  0.00    +0.000 A 
ATOM      6  C   UNL     1      44.997   5.064  10.735  0.00  0.00    +0.000 A 
ENDROOT
BRANCH   1   7
ATOM      7  C   UNL     1      45.904   7.021  11.992  0.00  0.00    +0.000 C 
BRANCH   7   8
ATOM      8  N   UNL     1      45.270   8.036  12.843  0.00  0.00    +0.000 NA
ATOM      9  H   UNL     1      45.565   7.890  13.808  0.00  0.00    +0.000 HD
ATOM     10  H   UNL     1      44.261   7.904  12.837  0.00  0.00    +0.000 HD
ENDBRANCH   7   8
BRANCH   7  11
ATOM     11  C   UNL     1      47.358   6.864  12.460  0.00  0.00    +0.000 C 
BRANCH  11  12
ATOM     12  C   UNL     1      48.441   7.375  11.510  0.00  0.00    +0.000 C 
BRANCH  12  13
ATOM     13  C   UNL     1      49.308   8.539  12.008  0.00  0.00    +0.000 C 
BRANCH  13  14
ATOM     14  C   UNL     1      49.088   8.674  13.521  0.00  0.00    +0.000 C 
BRANCH  14  15
ATOM     15  C   UNL     1      48.612  10.057  13.953  0.00  0.00    +0.000 C 
BRANCH  15  16
ATOM     16  N   UNL     1      47.455  10.440  13.145  0.00  0.00    +0.000 NA
ATOM     17  H   UNL     1      46.739   9.724  13.210  0.00  0.00    +0.000 HD
ATOM     18  H   UNL     1      47.727  10.494  12.161  0.00  0.00    +0.000 HD
ENDBRANCH  15  16
ENDBRANCH  14  15
ENDBRANCH  13  14
ENDBRANCH  12  13
ENDBRANCH  11  12
ENDBRANCH   7  11
ENDBRANCH   1   7
BRANCH   5  19
ATOM     19  O   UNL     1      44.148   3.200   9.413  0.00  0.00    +0.000 OA
BRANCH  19  20
ATOM     20  C   UNL     1      44.793   3.821   8.295  0.00  0.00    +0.000 C 
BRANCH  20  21
ATOM     21  C   UNL     1      45.847   2.897   7.758  0.00  0.00    +0.000 A 
ATOM     22  C   UNL     1      46.778   3.370   6.830  0.00  0.00    +0.000 A 
ATOM     23  C   UNL     1      47.749   2.500   6.367  0.00  0.00    +0.000 A 
ATOM     24  N   UNL     1      47.863   1.216   6.773  0.00  0.00    +0.000 NA
ATOM     25  C   UNL     1      46.959   0.786   7.682  0.00  0.00    +0.000 A 
ATOM     26  C   UNL     1      45.951   1.577   8.201  0.00  0.00    +0.000 A 
ENDBRANCH  20  21
ENDBRANCH  19  20
ENDBRANCH   5  19
TORSDOF 11
ENDMDL
MODEL 7
REMARK VINA RESULT:    -6.280      2.211      3.575
REMARK INTER + INTRA:         -11.319
REMARK INTER:                 -10.418
REMARK INTRA:                  -0.902
REMARK UNBOUND:                -1.368
REMARK  Name = 
REMARK  11 active torsions:
REMARK  status: ('A' for Active; 'I' for Inactive)
REMARK    1  A    between atoms: N_1  and  C_2
REMARK    2  A    between atoms: C_2  and  C_3
REMARK    3  A    between atoms: C_3  and  C_4
REMARK    4  A    between atoms: C_4  and  C_5
REMARK    5  A    between atoms: C_5  and  C_6
REMARK    6  A    between atoms: C_6  and  C_7
REMARK    7  A    between atoms: C_7  and  N_8
REMARK    8  A    between atoms: C_7  and  C_9
REMARK    9  A    between atoms: C_13  and  O_14
REMARK   10  A    between atoms: O_14  and  C_15
REMARK   11  A    between atoms: C_15  and  C_16
REMARK                            x       y       z     vdW  Elec       q    Type
REMARK                         _______ _______ _______ _____ _____    ______ ____
ROOT
ATOM      1  C   UNL     1      46.217   4.868  13.049  0.00  0.00    +0.000 A 
ATOM      2  C   UNL     1      46.371   6.159  12.520  0.00  0.00    +0.000 A 
ATOM      3  C   UNL     1      45.891   6.466  11.240  0.00  0.00    +0.000 A 
ATOM      4  C   UNL     1      45.285   5.484  10.459  0.00  0.00    +0.000 A 
ATOM      5  C   UNL     1      45.183   4.185  10.939  0.00  0.00    +0.000 A 
ATOM      6  C   UNL     1      45.635   3.891  12.224  0.00  0.00    +0.000 A 
ENDROOT
BRANCH   1   7
ATOM      7  C   UNL     1      46.681   4.426  14.426  0.00  0.00    +0.000 C 
BRANCH   7   8
ATOM      8  N   UNL     1      47.343   3.118  14.328  0.00  0.00    +0.000 NA
ATOM      9  H   UNL     1      47.087   2.684  13.442  0.00  0.00    +0.000 HD
ATOM     10  H   UNL     1      46.987   2.502  15.055  0.00  0.00    +0.000 HD
ENDBRANCH   7   8
BRANCH   7  11
ATOM     11  C   UNL     1      47.615   5.363  15.205  0.00  0.00    +0.000 C 
BRANCH  11  12
ATOM     12  C   UNL     1      47.992   4.931  16.621  0.00  0.00    +0.000 C 
BRANCH  12  13
ATOM     13  C   UNL     1      48.890   5.883  17.422  0.00  0.00    +0.000 C 
BRANCH  13  14
ATOM     14  C   UNL     1      49.149   7.123  16.555  0.00  0.00    +0.000 C 
BRANCH  14  15
ATOM     15  C   UNL     1      48.576   8.411  17.135  0.00  0.00    +0.000 C 
BRANCH  15  16
ATOM     16  N   UNL     1      47.677   9.020  16.155  0.00  0.00    +0.000 NA
ATOM     17  H   UNL     1      47.568   8.402  15.359  0.00  0.00    +0.000 HD
ATOM     18  H   UNL     1      48.093   9.885  15.801  0.00  0.00    +0.000 HD
ENDBRANCH  15  16
ENDBRANCH  14  15
ENDBRANCH  13  14
ENDBRANCH  12  13
ENDBRANCH  11  12
ENDBRANCH   7  11
ENDBRANCH   1   7
BRANCH   5  19
ATOM     19  O   UNL     1      44.626   3.259  10.096  0.00  0.00    +0.000 OA
BRANCH  19  20
ATOM     20  C   UNL     1      44.696   3.606   8.707  0.00  0.00    +0.000 C 
BRANCH  20  21
ATOM     21  C   UNL     1      45.786   2.808   8.053  0.00  0.00    +0.000 A 
ATOM     22  C   UNL     1      46.726   3.451   7.244  0.00  0.00    +0.000 A 
ATOM     23  C   UNL     1      47.731   2.692   6.669  0.00  0.00    +0.000 A 
ATOM     24  N   UNL     1      47.869   1.362   6.859  0.00  0.00    +0.000 NA
ATOM     25  C   UNL     1      46.955   0.766   7.657  0.00  0.00    +0.000 A 
ATOM     26  C   UNL     1      45.915   1.436   8.273  0.00  0.00    +0.000 A 
ENDBRANCH  20  21
ENDBRANCH  19  20
ENDBRANCH   5  19
TORSDOF 11
ENDMDL
MODEL 8
REMARK VINA RESULT:    -6.259      2.381      7.047
REMARK INTER + INTRA:         -11.286
REMARK INTER:                 -10.298
REMARK INTRA:                  -0.988
REMARK UNBOUND:                -1.368
REMARK  Name = 
REMARK  11 active torsions:
REMARK  status: ('A' for Active; 'I' for Inactive)
REMARK    1  A    between atoms: N_1  and  C_2
REMARK    2  A    between atoms: C_2  and  C_3
REMARK    3  A    between atoms: C_3  and  C_4
REMARK    4  A    between atoms: C_4  and  C_5
REMARK    5  A    between atoms: C_5  and  C_6
REMARK    6  A    between atoms: C_6  and  C_7
REMARK    7  A    between atoms: C_7  and  N_8
REMARK    8  A    between atoms: C_7  and  C_9
REMARK    9  A    between atoms: C_13  and  O_14
REMARK   10  A    between atoms: O_14  and  C_15
REMARK   11  A    between atoms: C_15  and  C_16
REMARK                            x       y       z     vdW  Elec       q    Type
REMARK                         _______ _______ _______ _____ _____    ______ ____
ROOT
ATOM      1  C   UNL     1      45.064   4.306  11.461  0.00  0.00    +0.000 A 
ATOM      2  C   UNL     1      45.306   3.735  12.720  0.00  0.00    +0.000 A 
ATOM      3  C   UNL     1      46.174   4.354  13.628  0.00  0.00    +0.000 A 
ATOM      4  C   UNL     1      46.837   5.529  13.282  0.00  0.00    +0.000 A 
ATOM      5  C   UNL     1      46.661   6.075  12.016  0.00  0.00    +0.000 A 
ATOM      6  C   UNL     1      45.775   5.471  11.127  0.00  0.00    +0.000 A 
ENDROOT
BRANCH   1   7
ATOM      7  C   UNL     1      44.134   3.734  10.406  0.00  0.00    +0.000 C 
BRANCH   7   8
ATOM      8  N   UNL     1      43.520   4.829   9.643  0.00  0.00    +0.000 NA
ATOM      9  H   UNL     1      44.219   5.229   9.017  0.00  0.00    +0.000 HD
ATOM     10  H   UNL     1      43.253   5.579  10.278  0.00  0.00    +0.000 HD
ENDBRANCH   7   8
BRANCH   7  11
ATOM     11  C   UNL     1      44.718   2.736   9.397  0.00  0.00    +0.000 C 
BRANCH  11  12
ATOM     12  C   UNL     1      44.871   3.227   7.958  0.00  0.00    +0.000 C 
BRANCH  12  13
ATOM     13  C   UNL     1      46.199   3.904   7.594  0.00  0.00    +0.000 C 
BRANCH  13  14
ATOM     14  C   UNL     1      46.705   3.273   6.288  0.00  0.00    +0.000 C 
BRANCH  14  15
ATOM     15  C   UNL     1      47.228   1.852   6.453  0.00  0.00    +0.000 C 
BRANCH  15  16
ATOM     16  N   UNL     1      48.509   1.727   5.760  0.00  0.00    +0.000 NA
ATOM     17  H   UNL     1      48.858   0.780   5.853  0.00  0.00    +0.000 HD
ATOM     18  H   UNL     1      49.199   2.339   6.203  0.00  0.00    +0.000 HD
ENDBRANCH  15  16
ENDBRANCH  14  15
ENDBRANCH  13  14
ENDBRANCH  12  13
ENDBRANCH  11  12
ENDBRANCH   7  11
ENDBRANCH   1   7
BRANCH   5  19
ATOM     19  O   UNL     1      47.387   7.200  11.725  0.00  0.00    +0.000 OA
BRANCH  19  20
ATOM     20  C   UNL     1      47.351   8.208  12.743  0.00  0.00    +0.000 C 
BRANCH  20  21
ATOM     21  C   UNL     1      46.513   9.359  12.268  0.00  0.00    +0.000 A 
ATOM     22  C   UNL     1      47.128  10.477  11.700  0.00  0.00    +0.000 A 
ATOM     23  C   UNL     1      46.328  11.515  11.254  0.00  0.00    +0.000 A 
ATOM     24  N   UNL     1      44.979  11.506  11.321  0.00  0.00    +0.000 NA
ATOM     25  C   UNL     1      44.407  10.407  11.862  0.00  0.00    +0.000 A 
ATOM     26  C   UNL     1      45.119   9.321  12.337  0.00  0.00    +0.000 A 
ENDBRANCH  20  21
ENDBRANCH  19  20
ENDBRANCH   5  19
TORSDOF 11
ENDMDL
MODEL 9
REMARK VINA RESULT:    -6.253      1.841      3.760
REMARK INTER + INTRA:         -11.277
REMARK INTER:                 -10.547
REMARK INTRA:                  -0.730
REMARK UNBOUND:                -1.368
REMARK  Name = 
REMARK  11 active torsions:
REMARK  status: ('A' for Active; 'I' for Inactive)
REMARK    1  A    between atoms: N_1  and  C_2
REMARK    2  A    between atoms: C_2  and  C_3
REMARK    3  A    between atoms: C_3  and  C_4
REMARK    4  A    between atoms: C_4  and  C_5
REMARK    5  A    between atoms: C_5  and  C_6
REMARK    6  A    between atoms: C_6  and  C_7
REMARK    7  A    between atoms: C_7  and  N_8
REMARK    8  A    between atoms: C_7  and  C_9
REMARK    9  A    between atoms: C_13  and  O_14
REMARK   10  A    between atoms: O_14  and  C_15
REMARK   11  A    between atoms: C_15  and  C_16
REMARK                            x       y       z     vdW  Elec       q    Type
REMARK                         _______ _______ _______ _____ _____    ______ ____
ROOT
ATOM      1  C   UNL     1      44.679   5.304  12.295  0.00  0.00    +0.000 A 
ATOM      2  C   UNL     1      44.021   4.359  13.097  0.00  0.00    +0.000 A 
ATOM      3  C   UNL     1      43.513   3.180  12.537  0.00  0.00    +0.000 A 
ATOM      4  C   UNL     1      43.623   2.944  11.169  0.00  0.00    +0.000 A 
ATOM      5  C   UNL     1      44.213   3.897  10.348  0.00  0.00    +0.000 A 
ATOM      6  C   UNL     1      44.742   5.055  10.913  0.00  0.00    +0.000 A 
ENDROOT
BRANCH   1   7
ATOM      7  C   UNL     1      45.282   6.606  12.793  0.00  0.00    +0.000 C 
BRANCH   7   8
ATOM      8  N   UNL     1      46.527   6.326  13.521  0.00  0.00    +0.000 NA
ATOM      9  H   UNL     1      47.305   6.759  13.024  0.00  0.00    +0.000 HD
ATOM     10  H   UNL     1      46.711   5.325  13.509  0.00  0.00    +0.000 HD
ENDBRANCH   7   8
BRANCH   7  11
ATOM     11  C   UNL     1      45.583   7.700  11.760  0.00  0.00    +0.000 C 
BRANCH  11  12
ATOM     12  C   UNL     1      44.402   8.559  11.308  0.00  0.00    +0.000 C 
BRANCH  12  13
ATOM     13  C   UNL     1      44.620  10.077  11.276  0.00  0.00    +0.000 C 
BRANCH  13  14
ATOM     14  C   UNL     1      43.603  10.676  10.294  0.00  0.00    +0.000 C 
BRANCH  14  15
ATOM     15  C   UNL     1      42.173  10.687  10.819  0.00  0.00    +0.000 C 
BRANCH  15  16
ATOM     16  N   UNL     1      42.176  11.130  12.213  0.00  0.00    +0.000 NA
ATOM     17  H   UNL     1      41.278  11.540  12.444  0.00  0.00    +0.000 HD
ATOM     18  H   UNL     1      42.875  11.866  12.336  0.00  0.00    +0.000 HD
ENDBRANCH  15  16
ENDBRANCH  14  15
ENDBRANCH  13  14
ENDBRANCH  12  13
ENDBRANCH  11  12
ENDBRANCH   7  11
ENDBRANCH   1   7
BRANCH   5  19
ATOM     19  O   UNL     1      44.237   3.623   9.006  0.00  0.00    +0.000 OA
BRANCH  19  20
ATOM     20  C   UNL     1      45.343   4.203   8.303  0.00  0.00    +0.000 C 
BRANCH  20  21
ATOM     21  C   UNL     1      46.150   3.111   7.665  0.00  0.00    +0.000 A 
ATOM     22  C   UNL     1      46.922   3.388   6.534  0.00  0.00    +0.000 A 
ATOM     23  C   UNL     1      47.670   2.365   5.978  0.00  0.00    +0.000 A 
ATOM     24  N   UNL     1      47.712   1.110   6.476  0.00  0.00    +0.000 NA
ATOM     25  C   UNL     1      46.968   0.870   7.578  0.00  0.00    +0.000 A 
ATOM     26  C   UNL     1      46.186   1.824   8.204  0.00  0.00    +0.000 A 
ENDBRANCH  20  21
ENDBRANCH  19  20
ENDBRANCH   5  19
TORSDOF 11
ENDMDL
