MODEL 1
REMARK VINA RESULT:    -8.596      0.000      0.000
REMARK INTER + INTRA:         -11.790
REMARK INTER:                 -11.109
REMARK INTRA:                  -0.681
REMARK UNBOUND:                -0.681
REMARK  Name = 
REMARK  5 active torsions:
REMARK  status: ('A' for Active; 'I' for Inactive)
REMARK    1  A    between atoms: C_2  and  C_4
REMARK    2  A    between atoms: C_7  and  O_8
REMARK    3  A    between atoms: O_8  and  C_9
REMARK    4  A    between atoms: C_9  and  C_10
REMARK    5  A    between atoms: C_14  and  C_15
REMARK                            x       y       z     vdW  Elec       q    Type
REMARK                         _______ _______ _______ _____ _____    ______ ____
ROOT
ATOM      1  C   UNL     1      43.744   3.494  11.749  0.00  0.00    +0.000 C 
ENDROOT
BRANCH   1   2
ATOM      2  C   UNL     1      44.962   4.156  12.356  0.00  0.00    +0.000 A 
ATOM      3  N   UNL     1      45.786   3.392  13.100  0.00  0.00    +0.000 NA
ATOM      4  C   UNL     1      46.838   4.012  13.654  0.00  0.00    +0.000 A 
ATOM      5  C   UNL     1      47.099   5.352  13.495  0.00  0.00    +0.000 A 
ATOM      6  C   UNL     1      46.208   6.070  12.717  0.00  0.00    +0.000 A 
ATOM      7  N   UNL     1      45.129   5.481  12.154  0.00  0.00    +0.000 NA
BRANCH   6   8
ATOM      8  C   UNL     1      46.360   7.513  12.464  0.00  0.00    +0.000 A 
ATOM      9  C   UNL     1      47.611   8.145  12.374  0.00  0.00    +0.000 A 
ATOM     10  C   UNL     1      47.701   9.519  12.158  0.00  0.00    +0.000 A 
ATOM     11  C   UNL     1      46.529  10.243  12.031  0.00  0.00    +0.000 A 
ATOM     12  N   UNL     1      45.303   9.688  12.098  0.00  0.00    +0.000 NA
ATOM     13  C   UNL     1      45.251   8.346  12.302  0.00  0.00    +0.000 A 
ENDBRANCH   6   8
ENDBRANCH   1   2
BRANCH   1  14
ATOM     14  O   UNL     1      43.585   3.890  10.382  0.00  0.00    +0.000 OA
BRANCH  14  18
ATOM     15  C   UNL     1      46.409   2.647   7.572  0.00  0.00    +0.000 A 
ATOM     16  C   UNL     1      45.810   1.680   8.387  0.00  0.00    +0.000 A 
ATOM     17  C   UNL     1      44.860   2.057   9.343  0.00  0.00    +0.000 A 
ATOM     18  C   UNL     1      44.503   3.400   9.493  0.00  0.00    +0.000 A 
ATOM     19  C   UNL     1      45.116   4.363   8.689  0.00  0.00    +0.000 A 
ATOM     20  C   UNL     1      46.072   3.993   7.736  0.00  0.00    +0.000 A 
BRANCH  15  22
ATOM     21  N   UNL     1      47.370   2.959   5.358  0.00  0.00    +0.000 N 
ATOM     22  C   UNL     1      47.418   2.282   6.546  0.00  0.00    +0.000 C 
ATOM     23  O   UNL     1      48.284   1.444   6.761  0.00  0.00    +0.000 OA
ATOM     24  H   UNL     1      48.131   2.786   4.715  0.00  0.00    +0.000 HD
ATOM     25  H   UNL     1      46.855   3.823   5.253  0.00  0.00    +0.000 HD
ENDBRANCH  15  22
ENDBRANCH  14  18
ENDBRANCH   1  14
TORSDOF 5
ENDMDL
MODEL 2
REMARK VINA RESULT:    -8.223      1.596      2.504
REMARK INTER + INTRA:         -11.307
REMARK INTER:                 -10.691
REMARK INTRA:                  -0.616
REMARK UNBOUND:                -0.681
REMARK  Name = 
REMARK  5 active torsions:
REMARK  status: ('A' for Active; 'I' for Inactive)
REMARK    1  A    between atoms: C_2  and  C_4
REMARK    2  A    between atoms: C_7  and  O_8
REMARK    3  A    between atoms: O_8  and  C_9
REMARK    4  A    between atoms: C_9  and  C_10
REMARK    5  A    between atoms: C_14  and  C_15
REMARK                            x       y       z     vdW  Elec       q    Type
REMARK                         _______ _______ _______ _____ _____    ______ ____
ROOT
ATOM      1  C   UNL     1      44.095   3.088  11.592  0.00  0.00    +0.000 C 
ENDROOT
BRANCH   1   2
ATOM      2  C   UNL     1      44.361   4.575  11.685  0.00  0.00    +0.000 A 
ATOM      3  N   UNL     1      43.346   5.413  11.397  0.00  0.00    +0.000 NA
ATOM      4  C   UNL     1      43.620   6.725  11.454  0.00  0.00    +0.000 A 
ATOM      5  C   UNL     1      44.856   7.228  11.785  0.00  0.00    +0.000 A 
ATOM      6  C   UNL     1      45.847   6.305  12.067  0.00  0.00    +0.000 A 
ATOM      7  N   UNL     1      45.611   4.976  12.007  0.00  0.00    +0.000 NA
BRANCH   6   8
ATOM      8  C   UNL     1      47.218   6.700  12.432  0.00  0.00    +0.000 A 
ATOM      9  C   UNL     1      48.028   7.497  11.607  0.00  0.00    +0.000 A 
ATOM     10  C   UNL     1      49.329   7.823  11.987  0.00  0.00    +0.000 A 
ATOM     11  C   UNL     1      49.800   7.346  13.196  0.00  0.00    +0.000 A 
ATOM     12  N   UNL     1      49.064   6.587  14.032  0.00  0.00    +0.000 NA
ATOM     13  C   UNL     1      47.799   6.293  13.636  0.00  0.00    +0.000 A 
ENDBRANCH   6   8
ENDBRANCH   1   2
BRANCH   1  14
ATOM     14  O   UNL     1      43.606   2.745  10.291  0.00  0.00    +0.000 OA
BRANCH  14  18
ATOM     15  C   UNL     1      46.473   2.500   7.267  0.00  0.00    +0.000 A 
ATOM     16  C   UNL     1      45.767   3.698   7.420  0.00  0.00    +0.000 A 
ATOM     17  C   UNL     1      44.795   3.820   8.421  0.00  0.00    +0.000 A 
ATOM     18  C   UNL     1      44.522   2.747   9.274  0.00  0.00    +0.000 A 
ATOM     19  C   UNL     1      45.218   1.548   9.105  0.00  0.00    +0.000 A 
ATOM     20  C   UNL     1      46.184   1.418   8.103  0.00  0.00    +0.000 A 
BRANCH  15  22
ATOM     21  N   UNL     1      47.483   3.224   5.175  0.00  0.00    +0.000 N 
ATOM     22  C   UNL     1      47.511   2.339   6.218  0.00  0.00    +0.000 C 
ATOM     23  O   UNL     1      48.381   1.482   6.297  0.00  0.00    +0.000 OA
ATOM     24  H   UNL     1      48.262   3.179   4.531  0.00  0.00    +0.000 HD
ATOM     25  H   UNL     1      46.961   4.088   5.218  0.00  0.00    +0.000 HD
ENDBRANCH  15  22
ENDBRANCH  14  18
ENDBRANCH   1  14
TORSDOF 5
ENDMDL
MODEL 3
REMARK VINA RESULT:    -8.080      1.732      3.762
REMARK INTER + INTRA:         -11.123
REMARK INTER:                 -10.573
REMARK INTRA:                  -0.550
REMARK UNBOUND:                -0.681
REMARK  Name = 
REMARK  5 active torsions:
REMARK  status: ('A' for Active; 'I' for Inactive)
REMARK    1  A    between atoms: C_2  and  C_4
REMARK    2  A    between atoms: C_7  and  O_8
REMARK    3  A    between atoms: O_8  and  C_9
REMARK    4  A    between atoms: C_9  and  C_10
REMARK    5  A    between atoms: C_14  and  C_15
REMARK                            x       y       z     vdW  Elec       q    Type
REMARK                         _______ _______ _______ _____ _____    ______ ____
ROOT
ATOM      1  C   UNL     1      43.905   3.395  11.805  0.00  0.00    +0.000 C 
ENDROOT
BRANCH   1   2
ATOM      2  C   UNL     1      44.847   4.374  12.472  0.00  0.00    +0.000 A 
ATOM      3  N   UNL     1      44.893   5.630  11.985  0.00  0.00    +0.000 NA
ATOM      4  C   UNL     1      45.761   6.467  12.573  0.00  0.00    +0.000 A 
ATOM      5  C   UNL     1      46.576   6.103  13.617  0.00  0.00    +0.000 A 
ATOM      6  C   UNL     1      46.472   4.797  14.061  0.00  0.00    +0.000 A 
ATOM      7  N   UNL     1      45.618   3.922  13.484  0.00  0.00    +0.000 NA
BRANCH   6   8
ATOM      8  C   UNL     1      47.286   4.268  15.169  0.00  0.00    +0.000 A 
ATOM      9  C   UNL     1      47.622   5.028  16.301  0.00  0.00    +0.000 A 
ATOM     10  C   UNL     1      48.416   4.489  17.312  0.00  0.00    +0.000 A 
ATOM     11  C   UNL     1      48.862   3.188  17.173  0.00  0.00    +0.000 A 
ATOM     12  N   UNL     1      48.563   2.409  16.114  0.00  0.00    +0.000 NA
ATOM     13  C   UNL     1      47.781   2.962  15.152  0.00  0.00    +0.000 A 
ENDBRANCH   6   8
ENDBRANCH   1   2
BRANCH   1  14
ATOM     14  O   UNL     1      43.679   3.764  10.441  0.00  0.00    +0.000 OA
BRANCH  14  18
ATOM     15  C   UNL     1      46.455   2.596   7.550  0.00  0.00    +0.000 A 
ATOM     16  C   UNL     1      45.873   1.609   8.352  0.00  0.00    +0.000 A 
ATOM     17  C   UNL     1      44.939   1.960   9.334  0.00  0.00    +0.000 A 
ATOM     18  C   UNL     1      44.581   3.297   9.524  0.00  0.00    +0.000 A 
ATOM     19  C   UNL     1      45.178   4.281   8.731  0.00  0.00    +0.000 A 
ATOM     20  C   UNL     1      46.117   3.937   7.753  0.00  0.00    +0.000 A 
BRANCH  15  22
ATOM     21  N   UNL     1      47.370   2.959   5.325  0.00  0.00    +0.000 N 
ATOM     22  C   UNL     1      47.446   2.259   6.498  0.00  0.00    +0.000 C 
ATOM     23  O   UNL     1      48.321   1.422   6.679  0.00  0.00    +0.000 OA
ATOM     24  H   UNL     1      48.119   2.804   4.664  0.00  0.00    +0.000 HD
ATOM     25  H   UNL     1      46.848   3.821   5.247  0.00  0.00    +0.000 HD
ENDBRANCH  15  22
ENDBRANCH  14  18
ENDBRANCH   1  14
TORSDOF 5
ENDMDL
MODEL 4
REMARK VINA RESULT:    -7.408      2.661      6.613
REMARK INTER + INTRA:         -10.255
REMARK INTER:                  -9.594
REMARK INTRA:                  -0.661
REMARK UNBOUND:                -0.681
REMARK  Name = 
REMARK  5 active torsions:
REMARK  status: ('A' for Active; 'I' for Inactive)
REMARK    1  A    between atoms: C_2  and  C_4
REMARK    2  A    between atoms: C_7  and  O_8
REMARK    3  A    between atoms: O_8  and  C_9
REMARK    4  A    between atoms: C_9  and  C_10
REMARK    5  A    between atoms: C_14  and  C_15
REMARK                            x       y       z     vdW  Elec       q    Type
REMARK                         _______ _______ _______ _____ _____    ______ ____
ROOT
ATOM      1  C   UNL     1      43.338   5.909  10.981  0.00  0.00    +0.000 C 
ENDROOT
BRANCH   1   2
ATOM      2  C   UNL     1      43.644   4.462  10.661  0.00  0.00    +0.000 A 
ATOM      3  N   UNL     1      43.083   3.516  11.440  0.00  0.00    +0.000 NA
ATOM      4  C   UNL     1      43.399   2.243  11.155  0.00  0.00    +0.000 A 
ATOM      5  C   UNL     1      44.243   1.883  10.133  0.00  0.00    +0.000 A 
ATOM      6  C   UNL     1      44.780   2.910   9.378  0.00  0.00    +0.000 A 
ATOM      7  N   UNL     1      44.495   4.204   9.644  0.00  0.00    +0.000 NA
BRANCH   6   8
ATOM      8  C   UNL     1      45.703   2.672   8.255  0.00  0.00    +0.000 A 
ATOM      9  C   UNL     1      45.977   3.638   7.274  0.00  0.00    +0.000 A 
ATOM     10  C   UNL     1      46.840   3.355   6.216  0.00  0.00    +0.000 A 
ATOM     11  C   UNL     1      47.421   2.102   6.159  0.00  0.00    +0.000 A 
ATOM     12  N   UNL     1      47.203   1.140   7.078  0.00  0.00    +0.000 NA
ATOM     13  C   UNL     1      46.363   1.451   8.098  0.00  0.00    +0.000 A 
ENDBRANCH   6   8
ENDBRANCH   1   2
BRANCH   1  14
ATOM     14  O   UNL     1      43.746   6.227  12.316  0.00  0.00    +0.000 OA
BRANCH  14  18
ATOM     15  C   UNL     1      47.816   6.841  13.014  0.00  0.00    +0.000 A 
ATOM     16  C   UNL     1      47.097   7.837  12.345  0.00  0.00    +0.000 A 
ATOM     17  C   UNL     1      45.731   7.669  12.090  0.00  0.00    +0.000 A 
ATOM     18  C   UNL     1      45.074   6.504  12.499  0.00  0.00    +0.000 A 
ATOM     19  C   UNL     1      45.801   5.505  13.151  0.00  0.00    +0.000 A 
ATOM     20  C   UNL     1      47.167   5.665  13.402  0.00  0.00    +0.000 A 
BRANCH  15  22
ATOM     21  N   UNL     1      50.087   7.240  12.239  0.00  0.00    +0.000 N 
ATOM     22  C   UNL     1      49.264   6.989  13.303  0.00  0.00    +0.000 C 
ATOM     23  O   UNL     1      49.704   6.933  14.444  0.00  0.00    +0.000 OA
ATOM     24  H   UNL     1      51.051   7.455  12.462  0.00  0.00    +0.000 HD
ATOM     25  H   UNL     1      49.732   7.555  11.347  0.00  0.00    +0.000 HD
ENDBRANCH  15  22
ENDBRANCH  14  18
ENDBRANCH   1  14
TORSDOF 5
ENDMDL
MODEL 5
REMARK VINA RESULT:    -7.269      2.808      7.285
REMARK INTER + INTRA:         -10.075
REMARK INTER:                  -9.718
REMARK INTRA:                  -0.357
REMARK UNBOUND:                -0.681
REMARK  Name = 
REMARK  5 active torsions:
REMARK  status: ('A' for Active; 'I' for Inactive)
REMARK    1  A    between atoms: C_2  and  C_4
REMARK    2  A    between atoms: C_7  and  O_8
REMARK    3  A    between atoms: O_8  and  C_9
REMARK    4  A    between atoms: C_9  and  C_10
REMARK    5  A    between atoms: C_14  and  C_15
REMARK                            x       y       z     vdW  Elec       q    Type
REMARK                         _______ _______ _______ _____ _____    ______ ____
ROOT
ATOM      1  C   UNL     1      44.876   6.246  11.293  0.00  0.00    +0.000 C 
ENDROOT
BRANCH   1   2
ATOM      2  C   UNL     1      44.621   4.839  10.796  0.00  0.00    +0.000 A 
ATOM      3  N   UNL     1      43.726   4.089  11.469  0.00  0.00    +0.000 NA
ATOM      4  C   UNL     1      43.546   2.835  11.027  0.00  0.00    +0.000 A 
ATOM      5  C   UNL     1      44.216   2.306   9.951  0.00  0.00    +0.000 A 
ATOM      6  C   UNL     1      45.118   3.138   9.311  0.00  0.00    +0.000 A 
ATOM      7  N   UNL     1      45.336   4.402   9.736  0.00  0.00    +0.000 NA
BRANCH   6   8
ATOM      8  C   UNL     1      45.910   2.704   8.147  0.00  0.00    +0.000 A 
ATOM      9  C   UNL     1      46.185   3.544   7.056  0.00  0.00    +0.000 A 
ATOM     10  C   UNL     1      46.919   3.079   5.966  0.00  0.00    +0.000 A 
ATOM     11  C   UNL     1      47.371   1.772   5.987  0.00  0.00    +0.000 A 
ATOM     12  N   UNL     1      47.145   0.925   7.011  0.00  0.00    +0.000 NA
ATOM     13  C   UNL     1      46.434   1.412   8.060  0.00  0.00    +0.000 A 
ENDBRANCH   6   8
ENDBRANCH   1   2
BRANCH   1  14
ATOM     14  O   UNL     1      46.278   6.467  11.479  0.00  0.00    +0.000 OA
BRANCH  14  18
ATOM     15  C   UNL     1      47.991   5.749  15.217  0.00  0.00    +0.000 A 
ATOM     16  C   UNL     1      47.046   4.839  14.732  0.00  0.00    +0.000 A 
ATOM     17  C   UNL     1      46.447   5.045  13.483  0.00  0.00    +0.000 A 
ATOM     18  C   UNL     1      46.785   6.161  12.713  0.00  0.00    +0.000 A 
ATOM     19  C   UNL     1      47.717   7.075  13.210  0.00  0.00    +0.000 A 
ATOM     20  C   UNL     1      48.314   6.878  14.460  0.00  0.00    +0.000 A 
BRANCH  15  22
ATOM     21  N   UNL     1      47.900   5.834  17.647  0.00  0.00    +0.000 N 
ATOM     22  C   UNL     1      48.648   5.558  16.535  0.00  0.00    +0.000 C 
ATOM     23  O   UNL     1      49.792   5.134  16.631  0.00  0.00    +0.000 OA
ATOM     24  H   UNL     1      48.316   5.589  18.536  0.00  0.00    +0.000 HD
ATOM     25  H   UNL     1      46.894   5.921  17.610  0.00  0.00    +0.000 HD
ENDBRANCH  15  22
ENDBRANCH  14  18
ENDBRANCH   1  14
TORSDOF 5
ENDMDL
MODEL 6
REMARK VINA RESULT:    -7.145      2.720      6.646
REMARK INTER + INTRA:          -9.914
REMARK INTER:                  -9.226
REMARK INTRA:                  -0.688
REMARK UNBOUND:                -0.681
REMARK  Name = 
REMARK  5 active torsions:
REMARK  status: ('A' for Active; 'I' for Inactive)
REMARK    1  A    between atoms: C_2  and  C_4
REMARK    2  A    between atoms: C_7  and  O_8
REMARK    3  A    between atoms: O_8  and  C_9
REMARK    4  A    between atoms: C_9  and  C_10
REMARK    5  A    between atoms: C_14  and  C_15
REMARK                            x       y       z     vdW  Elec       q    Type
REMARK                         _______ _______ _______ _____ _____    ______ ____
ROOT
ATOM      1  C   UNL     1      44.025   6.589  11.574  0.00  0.00    +0.000 C 
ENDROOT
BRANCH   1   2
ATOM      2  C   UNL     1      43.993   5.124  11.193  0.00  0.00    +0.000 A 
ATOM      3  N   UNL     1      43.261   4.292  11.960  0.00  0.00    +0.000 NA
ATOM      4  C   UNL     1      43.279   2.995  11.619  0.00  0.00    +0.000 A 
ATOM      5  C   UNL     1      43.991   2.501  10.553  0.00  0.00    +0.000 A 
ATOM      6  C   UNL     1      44.718   3.417   9.813  0.00  0.00    +0.000 A 
ATOM      7  N   UNL     1      44.734   4.729  10.135  0.00  0.00    +0.000 NA
BRANCH   6   8
ATOM      8  C   UNL     1      45.530   3.029   8.646  0.00  0.00    +0.000 A 
ATOM      9  C   UNL     1      46.009   1.724   8.450  0.00  0.00    +0.000 A 
ATOM     10  C   UNL     1      46.795   1.413   7.341  0.00  0.00    +0.000 A 
ATOM     11  C   UNL     1      47.087   2.420   6.440  0.00  0.00    +0.000 A 
ATOM     12  N   UNL     1      46.646   3.687   6.572  0.00  0.00    +0.000 NA
ATOM     13  C   UNL     1      45.877   3.954   7.659  0.00  0.00    +0.000 A 
ENDBRANCH   6   8
ENDBRANCH   1   2
BRANCH   1  14
ATOM     14  O   UNL     1      44.803   6.783  12.760  0.00  0.00    +0.000 OA
BRANCH  14  18
ATOM     15  C   UNL     1      48.774   7.991  12.316  0.00  0.00    +0.000 A 
ATOM     16  C   UNL     1      47.761   8.921  12.056  0.00  0.00    +0.000 A 
ATOM     17  C   UNL     1      46.417   8.554  12.192  0.00  0.00    +0.000 A 
ATOM     18  C   UNL     1      46.075   7.258  12.585  0.00  0.00    +0.000 A 
ATOM     19  C   UNL     1      47.089   6.328  12.826  0.00  0.00    +0.000 A 
ATOM     20  C   UNL     1      48.434   6.687  12.686  0.00  0.00    +0.000 A 
BRANCH  15  22
ATOM     21  N   UNL     1      51.057   7.872  13.148  0.00  0.00    +0.000 N 
ATOM     22  C   UNL     1      50.209   8.347  12.185  0.00  0.00    +0.000 C 
ATOM     23  O   UNL     1      50.629   9.001  11.239  0.00  0.00    +0.000 OA
ATOM     24  H   UNL     1      52.045   8.021  12.985  0.00  0.00    +0.000 HD
ATOM     25  H   UNL     1      50.794   7.123  13.774  0.00  0.00    +0.000 HD
ENDBRANCH  15  22
ENDBRANCH  14  18
ENDBRANCH   1  14
TORSDOF 5
ENDMDL
MODEL 7
REMARK VINA RESULT:    -7.090      1.618      2.603
REMARK INTER + INTRA:          -9.843
REMARK INTER:                  -9.267
REMARK INTRA:                  -0.576
REMARK UNBOUND:                -0.681
REMARK  Name = 
REMARK  5 active torsions:
REMARK  status: ('A' for Active; 'I' for Inactive)
REMARK    1  A    between atoms: C_2  and  C_4
REMARK    2  A    between atoms: C_7  and  O_8
REMARK    3  A    between atoms: O_8  and  C_9
REMARK    4  A    between atoms: C_9  and  C_10
REMARK    5  A    between atoms: C_14  and  C_15
REMARK                            x       y       z     vdW  Elec       q    Type
REMARK                         _______ _______ _______ _____ _____    ______ ____
ROOT
ATOM      1  C   UNL     1      44.654   4.878  11.645  0.00  0.00    +0.000 C 
ENDROOT
BRANCH   1   2
ATOM      2  C   UNL     1      44.975   6.354  11.732  0.00  0.00    +0.000 A 
ATOM      3  N   UNL     1      43.997   7.228  11.422  0.00  0.00    +0.000 NA
ATOM      4  C   UNL     1      44.319   8.529  11.474  0.00  0.00    +0.000 A 
ATOM      5  C   UNL     1      45.567   8.987  11.821  0.00  0.00    +0.000 A 
ATOM      6  C   UNL     1      46.518   8.030  12.126  0.00  0.00    +0.000 A 
ATOM      7  N   UNL     1      46.233   6.710  12.071  0.00  0.00    +0.000 NA
BRANCH   6   8
ATOM      8  C   UNL     1      47.898   8.376  12.510  0.00  0.00    +0.000 A 
ATOM      9  C   UNL     1      48.999   7.555  12.219  0.00  0.00    +0.000 A 
ATOM     10  C   UNL     1      50.283   7.915  12.626  0.00  0.00    +0.000 A 
ATOM     11  C   UNL     1      50.444   9.101  13.320  0.00  0.00    +0.000 A 
ATOM     12  N   UNL     1      49.426   9.931  13.617  0.00  0.00    +0.000 NA
ATOM     13  C   UNL     1      48.190   9.555  13.201  0.00  0.00    +0.000 A 
ENDBRANCH   6   8
ENDBRANCH   1   2
BRANCH   1  14
ATOM     14  O   UNL     1      44.091   4.559  10.367  0.00  0.00    +0.000 OA
BRANCH  14  18
ATOM     15  C   UNL     1      46.528   2.498   7.677  0.00  0.00    +0.000 A 
ATOM     16  C   UNL     1      45.798   1.760   8.616  0.00  0.00    +0.000 A 
ATOM     17  C   UNL     1      44.971   2.414   9.536  0.00  0.00    +0.000 A 
ATOM     18  C   UNL     1      44.869   3.808   9.528  0.00  0.00    +0.000 A 
ATOM     19  C   UNL     1      45.612   4.540   8.600  0.00  0.00    +0.000 A 
ATOM     20  C   UNL     1      46.446   3.893   7.682  0.00  0.00    +0.000 A 
BRANCH  15  22
ATOM     21  N   UNL     1      48.573   2.481   6.360  0.00  0.00    +0.000 N 
ATOM     22  C   UNL     1      47.411   1.835   6.685  0.00  0.00    +0.000 C 
ATOM     23  O   UNL     1      47.140   0.742   6.207  0.00  0.00    +0.000 OA
ATOM     24  H   UNL     1      49.220   1.967   5.775  0.00  0.00    +0.000 HD
ATOM     25  H   UNL     1      48.947   3.231   6.924  0.00  0.00    +0.000 HD
ENDBRANCH  15  22
ENDBRANCH  14  18
ENDBRANCH   1  14
TORSDOF 5
ENDMDL
MODEL 8
REMARK VINA RESULT:    -6.911      3.999      7.845
REMARK INTER + INTRA:          -9.612
REMARK INTER:                  -9.165
REMARK INTRA:                  -0.448
REMARK UNBOUND:                -0.681
REMARK  Name = 
REMARK  5 active torsions:
REMARK  status: ('A' for Active; 'I' for Inactive)
REMARK    1  A    between atoms: C_2  and  C_4
REMARK    2  A    between atoms: C_7  and  O_8
REMARK    3  A    between atoms: O_8  and  C_9
REMARK    4  A    between atoms: C_9  and  C_10
REMARK    5  A    between atoms: C_14  and  C_15
REMARK                            x       y       z     vdW  Elec       q    Type
REMARK                         _______ _______ _______ _____ _____    ______ ____
ROOT
ATOM      1  C   UNL     1      46.273   5.196  14.082  0.00  0.00    +0.000 C 
ENDROOT
BRANCH   1   2
ATOM      2  C   UNL     1      45.238   4.973  13.001  0.00  0.00    +0.000 A 
ATOM      3  N   UNL     1      43.951   5.240  13.300  0.00  0.00    +0.000 NA
ATOM      4  C   UNL     1      43.051   5.001  12.334  0.00  0.00    +0.000 A 
ATOM      5  C   UNL     1      43.382   4.512  11.094  0.00  0.00    +0.000 A 
ATOM      6  C   UNL     1      44.723   4.262  10.862  0.00  0.00    +0.000 A 
ATOM      7  N   UNL     1      45.656   4.478  11.816  0.00  0.00    +0.000 NA
BRANCH   6   8
ATOM      8  C   UNL     1      45.222   3.732   9.581  0.00  0.00    +0.000 A 
ATOM      9  C   UNL     1      45.315   2.358   9.307  0.00  0.00    +0.000 A 
ATOM     10  C   UNL     1      45.817   1.907   8.088  0.00  0.00    +0.000 A 
ATOM     11  C   UNL     1      46.218   2.845   7.154  0.00  0.00    +0.000 A 
ATOM     12  N   UNL     1      46.141   4.175   7.358  0.00  0.00    +0.000 NA
ATOM     13  C   UNL     1      45.641   4.581   8.553  0.00  0.00    +0.000 A 
ENDBRANCH   6   8
ENDBRANCH   1   2
BRANCH   1  14
ATOM     14  O   UNL     1      46.434   4.015  14.876  0.00  0.00    +0.000 OA
BRANCH  14  18
ATOM     15  C   UNL     1      49.592   4.307  17.589  0.00  0.00    +0.000 A 
ATOM     16  C   UNL     1      49.016   3.051  17.370  0.00  0.00    +0.000 A 
ATOM     17  C   UNL     1      47.954   2.912  16.469  0.00  0.00    +0.000 A 
ATOM     18  C   UNL     1      47.458   4.024  15.783  0.00  0.00    +0.000 A 
ATOM     19  C   UNL     1      48.026   5.278  16.019  0.00  0.00    +0.000 A 
ATOM     20  C   UNL     1      49.083   5.425  16.923  0.00  0.00    +0.000 A 
BRANCH  15  22
ATOM     21  N   UNL     1      51.592   3.443  18.672  0.00  0.00    +0.000 N 
ATOM     22  C   UNL     1      50.722   4.490  18.535  0.00  0.00    +0.000 C 
ATOM     23  O   UNL     1      50.898   5.542  19.135  0.00  0.00    +0.000 OA
ATOM     24  H   UNL     1      52.419   3.620  19.227  0.00  0.00    +0.000 HD
ATOM     25  H   UNL     1      51.629   2.684  18.006  0.00  0.00    +0.000 HD
ENDBRANCH  15  22
ENDBRANCH  14  18
ENDBRANCH   1  14
TORSDOF 5
ENDMDL
MODEL 9
REMARK VINA RESULT:    -6.722      5.432      8.394
REMARK INTER + INTRA:          -9.368
REMARK INTER:                  -8.875
REMARK INTRA:                  -0.493
REMARK UNBOUND:                -0.681
REMARK  Name = 
REMARK  5 active torsions:
REMARK  status: ('A' for Active; 'I' for Inactive)
REMARK    1  A    between atoms: C_2  and  C_4
REMARK    2  A    between atoms: C_7  and  O_8
REMARK    3  A    between atoms: O_8  and  C_9
REMARK    4  A    between atoms: C_9  and  C_10
REMARK    5  A    between atoms: C_14  and  C_15
REMARK                            x       y       z     vdW  Elec       q    Type
REMARK                         _______ _______ _______ _____ _____    ______ ____
ROOT
ATOM      1  C   UNL     1      47.892   3.984  16.956  0.00  0.00    +0.000 C 
ENDROOT
BRANCH   1   2
ATOM      2  C   UNL     1      47.646   4.757  15.678  0.00  0.00    +0.000 A 
ATOM      3  N   UNL     1      48.471   5.785  15.399  0.00  0.00    +0.000 NA
ATOM      4  C   UNL     1      48.209   6.474  14.278  0.00  0.00    +0.000 A 
ATOM      5  C   UNL     1      47.166   6.178  13.433  0.00  0.00    +0.000 A 
ATOM      6  C   UNL     1      46.364   5.109  13.787  0.00  0.00    +0.000 A 
ATOM      7  N   UNL     1      46.590   4.400  14.916  0.00  0.00    +0.000 NA
BRANCH   6   8
ATOM      8  C   UNL     1      45.209   4.681  12.979  0.00  0.00    +0.000 A 
ATOM      9  C   UNL     1      44.007   5.405  12.922  0.00  0.00    +0.000 A 
ATOM     10  C   UNL     1      42.933   4.945  12.161  0.00  0.00    +0.000 A 
ATOM     11  C   UNL     1      43.083   3.762  11.462  0.00  0.00    +0.000 A 
ATOM     12  N   UNL     1      44.215   3.032  11.471  0.00  0.00    +0.000 NA
ATOM     13  C   UNL     1      45.244   3.511  12.216  0.00  0.00    +0.000 A 
ENDBRANCH   6   8
ENDBRANCH   1   2
BRANCH   1  14
ATOM     14  O   UNL     1      49.045   4.490  17.637  0.00  0.00    +0.000 OA
BRANCH  14  18
ATOM     15  C   UNL     1      52.222   1.784  17.681  0.00  0.00    +0.000 A 
ATOM     16  C   UNL     1      52.456   3.093  18.116  0.00  0.00    +0.000 A 
ATOM     17  C   UNL     1      51.417   4.031  18.115  0.00  0.00    +0.000 A 
ATOM     18  C   UNL     1      50.140   3.670  17.678  0.00  0.00    +0.000 A 
ATOM     19  C   UNL     1      49.916   2.366  17.228  0.00  0.00    +0.000 A 
ATOM     20  C   UNL     1      50.952   1.426  17.221  0.00  0.00    +0.000 A 
BRANCH  15  22
ATOM     21  N   UNL     1      53.066  -0.394  18.364  0.00  0.00    +0.000 N 
ATOM     22  C   UNL     1      53.301   0.763  17.673  0.00  0.00    +0.000 C 
ATOM     23  O   UNL     1      54.338   0.925  17.043  0.00  0.00    +0.000 OA
ATOM     24  H   UNL     1      53.755  -1.126  18.254  0.00  0.00    +0.000 HD
ATOM     25  H   UNL     1      52.138  -0.665  18.659  0.00  0.00    +0.000 HD
ENDBRANCH  15  22
ENDBRANCH  14  18
ENDBRANCH   1  14
TORSDOF 5
ENDMDL
