MODEL 1
REMARK VINA RESULT:    -7.544      0.000      0.000
REMARK INTER + INTRA:          -8.293
REMARK INTER:                  -8.867
REMARK INTRA:                   0.574
REMARK UNBOUND:                 0.574
REMARK  Name = 
REMARK  5 active torsions:
REMARK  status: ('A' for Active; 'I' for Inactive)
REMARK    1  A    between atoms: C_1  and  C_2
REMARK    2  A    between atoms: C_2  and  C_3
REMARK    3  A    between atoms: C_2  and  N_9
REMARK    4  A    between atoms: N_9  and  C_10
REMARK    5  A    between atoms: C_14  and  C_15
REMARK                            x       y       z     vdW  Elec       q    Type
REMARK                         _______ _______ _______ _____ _____    ______ ____
ROOT
ATOM      1  N   UNL     1      43.719   5.131  11.174  0.00  0.00    +0.000 N 
ATOM      2  C   UNL     1      42.649   5.515  12.094  0.00  0.00    +0.000 C 
ATOM      3  C   UNL     1      44.939   5.308  11.904  0.00  0.00    +0.000 A 
ATOM      4  C   UNL     1      45.446   6.610  12.078  0.00  0.00    +0.000 A 
ATOM      5  N   UNL     1      46.492   6.934  12.883  0.00  0.00    +0.000 NA
ATOM      6  C   UNL     1      47.046   5.869  13.525  0.00  0.00    +0.000 A 
ATOM      7  C   UNL     1      46.592   4.572  13.342  0.00  0.00    +0.000 A 
ATOM      8  N   UNL     1      45.538   4.270  12.532  0.00  0.00    +0.000 NA
ENDROOT
BRANCH   6   9
ATOM      9  C   UNL     1      48.144   6.151  14.492  0.00  0.00    +0.000 C 
ATOM     10  N   UNL     1      47.888   5.816  15.795  0.00  0.00    +0.000 N 
ATOM     11  O   UNL     1      49.216   6.632  14.148  0.00  0.00    +0.000 OA
ATOM     12  H   UNL     1      47.000   5.393  16.044  0.00  0.00    +0.000 HD
ATOM     13  H   UNL     1      48.601   5.951  16.497  0.00  0.00    +0.000 HD
ENDBRANCH   6   9
BRANCH   1  15
ATOM     14  C   UNL     1      43.466   2.738  11.579  0.00  0.00    +0.000 C 
ATOM     15  C   UNL     1      43.651   3.811  10.477  0.00  0.00    +0.000 C 
BRANCH  15  16
ATOM     16  C   UNL     1      44.882   3.392   9.593  0.00  0.00    +0.000 C 
ATOM     17  C   UNL     1      45.236   4.373   8.458  0.00  0.00    +0.000 C 
ATOM     18  C   UNL     1      46.473   3.927   7.678  0.00  0.00    +0.000 C 
ATOM     19  C   UNL     1      46.333   2.501   7.164  0.00  0.00    +0.000 C 
ATOM     20  C   UNL     1      46.088   1.531   8.314  0.00  0.00    +0.000 C 
ATOM     21  C   UNL     1      44.850   1.922   9.122  0.00  0.00    +0.000 C 
ENDBRANCH  15  16
ENDBRANCH   1  15
TORSDOF 3
ENDMDL
MODEL 2
REMARK VINA RESULT:    -6.579      1.887      3.052
REMARK INTER + INTRA:          -7.160
REMARK INTER:                  -6.758
REMARK INTRA:                  -0.402
REMARK UNBOUND:                 0.574
REMARK  Name = 
REMARK  5 active torsions:
REMARK  status: ('A' for Active; 'I' for Inactive)
REMARK    1  A    between atoms: C_1  and  C_2
REMARK    2  A    between atoms: C_2  and  C_3
REMARK    3  A    between atoms: C_2  and  N_9
REMARK    4  A    between atoms: N_9  and  C_10
REMARK    5  A    between atoms: C_14  and  C_15
REMARK                            x       y       z     vdW  Elec       q    Type
REMARK                         _______ _______ _______ _____ _____    ______ ____
ROOT
ATOM      1  N   UNL     1      46.178   4.925  13.438  0.00  0.00    +0.000 N 
ATOM      2  C   UNL     1      46.797   3.601  13.465  0.00  0.00    +0.000 C 
ATOM      3  C   UNL     1      47.261   5.861  13.504  0.00  0.00    +0.000 A 
ATOM      4  C   UNL     1      47.887   6.090  14.744  0.00  0.00    +0.000 A 
ATOM      5  N   UNL     1      49.022   6.817  14.916  0.00  0.00    +0.000 NA
ATOM      6  C   UNL     1      49.526   7.338  13.764  0.00  0.00    +0.000 A 
ATOM      7  C   UNL     1      48.907   7.161  12.535  0.00  0.00    +0.000 A 
ATOM      8  N   UNL     1      47.770   6.424  12.385  0.00  0.00    +0.000 NA
ENDROOT
BRANCH   6   9
ATOM      9  C   UNL     1      50.816   8.078  13.856  0.00  0.00    +0.000 C 
ATOM     10  N   UNL     1      51.740   7.554  14.721  0.00  0.00    +0.000 N 
ATOM     11  O   UNL     1      51.050   9.078  13.190  0.00  0.00    +0.000 OA
ATOM     12  H   UNL     1      51.526   6.707  15.238  0.00  0.00    +0.000 HD
ATOM     13  H   UNL     1      52.647   7.988  14.808  0.00  0.00    +0.000 HD
ENDBRANCH   6   9
BRANCH   1  15
ATOM     14  C   UNL     1      43.787   5.015  12.955  0.00  0.00    +0.000 C 
ATOM     15  C   UNL     1      45.196   5.256  12.360  0.00  0.00    +0.000 C 
BRANCH  15  16
ATOM     16  C   UNL     1      45.299   4.453  11.013  0.00  0.00    +0.000 C 
ATOM     17  C   UNL     1      45.559   5.309   9.759  0.00  0.00    +0.000 C 
ATOM     18  C   UNL     1      45.701   4.455   8.498  0.00  0.00    +0.000 C 
ATOM     19  C   UNL     1      44.509   3.528   8.307  0.00  0.00    +0.000 C 
ATOM     20  C   UNL     1      44.333   2.615   9.515  0.00  0.00    +0.000 C 
ATOM     21  C   UNL     1      44.171   3.419  10.806  0.00  0.00    +0.000 C 
ENDBRANCH  15  16
ENDBRANCH   1  15
TORSDOF 3
ENDMDL
MODEL 3
REMARK VINA RESULT:    -6.093      3.511      7.193
REMARK INTER + INTRA:          -6.588
REMARK INTER:                  -6.269
REMARK INTRA:                  -0.319
REMARK UNBOUND:                 0.574
REMARK  Name = 
REMARK  5 active torsions:
REMARK  status: ('A' for Active; 'I' for Inactive)
REMARK    1  A    between atoms: C_1  and  C_2
REMARK    2  A    between atoms: C_2  and  C_3
REMARK    3  A    between atoms: C_2  and  N_9
REMARK    4  A    between atoms: N_9  and  C_10
REMARK    5  A    between atoms: C_14  and  C_15
REMARK                            x       y       z     vdW  Elec       q    Type
REMARK                         _______ _______ _______ _____ _____    ______ ____
ROOT
ATOM      1  N   UNL     1      47.343   5.265  15.373  0.00  0.00    +0.000 N 
ATOM      2  C   UNL     1      48.467   5.951  14.737  0.00  0.00    +0.000 C 
ATOM      3  C   UNL     1      46.533   4.772  14.299  0.00  0.00    +0.000 A 
ATOM      4  C   UNL     1      45.697   5.670  13.609  0.00  0.00    +0.000 A 
ATOM      5  N   UNL     1      45.009   5.374  12.475  0.00  0.00    +0.000 NA
ATOM      6  C   UNL     1      45.181   4.095  12.042  0.00  0.00    +0.000 A 
ATOM      7  C   UNL     1      45.966   3.178  12.725  0.00  0.00    +0.000 A 
ATOM      8  N   UNL     1      46.651   3.498  13.859  0.00  0.00    +0.000 NA
ENDROOT
BRANCH   6   9
ATOM      9  C   UNL     1      44.527   3.716  10.758  0.00  0.00    +0.000 C 
ATOM     10  N   UNL     1      44.850   2.476  10.272  0.00  0.00    +0.000 N 
ATOM     11  O   UNL     1      43.738   4.451  10.179  0.00  0.00    +0.000 OA
ATOM     12  H   UNL     1      45.486   1.880  10.789  0.00  0.00    +0.000 HD
ATOM     13  H   UNL     1      44.418   2.144   9.422  0.00  0.00    +0.000 HD
ENDBRANCH   6   9
BRANCH   1  15
ATOM     14  C   UNL     1      47.135   4.823  17.765  0.00  0.00    +0.000 C 
ATOM     15  C   UNL     1      47.610   4.228  16.416  0.00  0.00    +0.000 C 
BRANCH  15  16
ATOM     16  C   UNL     1      49.095   3.743  16.594  0.00  0.00    +0.000 C 
ATOM     17  C   UNL     1      49.261   2.238  16.883  0.00  0.00    +0.000 C 
ATOM     18  C   UNL     1      50.732   1.833  16.989  0.00  0.00    +0.000 C 
ATOM     19  C   UNL     1      51.481   2.685  18.004  0.00  0.00    +0.000 C 
ATOM     20  C   UNL     1      51.393   4.163  17.641  0.00  0.00    +0.000 C 
ATOM     21  C   UNL     1      49.940   4.627  17.536  0.00  0.00    +0.000 C 
ENDBRANCH  15  16
ENDBRANCH   1  15
TORSDOF 3
ENDMDL
MODEL 4
REMARK VINA RESULT:    -5.969      3.074      7.110
REMARK INTER + INTRA:          -6.442
REMARK INTER:                  -6.045
REMARK INTRA:                  -0.398
REMARK UNBOUND:                 0.574
REMARK  Name = 
REMARK  5 active torsions:
REMARK  status: ('A' for Active; 'I' for Inactive)
REMARK    1  A    between atoms: C_1  and  C_2
REMARK    2  A    between atoms: C_2  and  C_3
REMARK    3  A    between atoms: C_2  and  N_9
REMARK    4  A    between atoms: N_9  and  C_10
REMARK    5  A    between atoms: C_14  and  C_15
REMARK                            x       y       z     vdW  Elec       q    Type
REMARK                         _______ _______ _______ _____ _____    ______ ____
ROOT
ATOM      1  N   UNL     1      47.883   7.377  12.954  0.00  0.00    +0.000 N 
ATOM      2  C   UNL     1      48.995   6.871  12.151  0.00  0.00    +0.000 C 
ATOM      3  C   UNL     1      46.805   6.456  12.748  0.00  0.00    +0.000 A 
ATOM      4  C   UNL     1      46.073   6.523  11.548  0.00  0.00    +0.000 A 
ATOM      5  N   UNL     1      45.145   5.612  11.154  0.00  0.00    +0.000 NA
ATOM      6  C   UNL     1      44.955   4.597  12.042  0.00  0.00    +0.000 A 
ATOM      7  C   UNL     1      45.633   4.529  13.249  0.00  0.00    +0.000 A 
ATOM      8  N   UNL     1      46.564   5.452  13.622  0.00  0.00    +0.000 NA
ENDROOT
BRANCH   6   9
ATOM      9  C   UNL     1      44.014   3.511  11.646  0.00  0.00    +0.000 C 
ATOM     10  N   UNL     1      43.862   2.498  12.556  0.00  0.00    +0.000 N 
ATOM     11  O   UNL     1      43.400   3.527  10.588  0.00  0.00    +0.000 OA
ATOM     12  H   UNL     1      44.364   2.529  13.436  0.00  0.00    +0.000 HD
ATOM     13  H   UNL     1      43.215   1.747  12.365  0.00  0.00    +0.000 HD
ENDBRANCH   6   9
BRANCH   1  15
ATOM     14  C   UNL     1      48.319   9.223  14.491  0.00  0.00    +0.000 C 
ATOM     15  C   UNL     1      48.104   7.692  14.399  0.00  0.00    +0.000 C 
BRANCH  15  16
ATOM     16  C   UNL     1      49.309   6.987  15.120  0.00  0.00    +0.000 C 
ATOM     17  C   UNL     1      48.952   6.254  16.427  0.00  0.00    +0.000 C 
ATOM     18  C   UNL     1      50.163   5.549  17.040  0.00  0.00    +0.000 C 
ATOM     19  C   UNL     1      51.334   6.502  17.233  0.00  0.00    +0.000 C 
ATOM     20  C   UNL     1      51.740   7.137  15.909  0.00  0.00    +0.000 C 
ATOM     21  C   UNL     1      50.568   7.871  15.257  0.00  0.00    +0.000 C 
ENDBRANCH  15  16
ENDBRANCH   1  15
TORSDOF 3
ENDMDL
MODEL 5
REMARK VINA RESULT:    -5.962      1.719      2.291
REMARK INTER + INTRA:          -6.434
REMARK INTER:                  -6.612
REMARK INTRA:                   0.178
REMARK UNBOUND:                 0.574
REMARK  Name = 
REMARK  5 active torsions:
REMARK  status: ('A' for Active; 'I' for Inactive)
REMARK    1  A    between atoms: C_1  and  C_2
REMARK    2  A    between atoms: C_2  and  C_3
REMARK    3  A    between atoms: C_2  and  N_9
REMARK    4  A    between atoms: N_9  and  C_10
REMARK    5  A    between atoms: C_14  and  C_15
REMARK                            x       y       z     vdW  Elec       q    Type
REMARK                         _______ _______ _______ _____ _____    ______ ____
ROOT
ATOM      1  N   UNL     1      45.025   4.404  12.144  0.00  0.00    +0.000 N 
ATOM      2  C   UNL     1      45.988   3.498  12.771  0.00  0.00    +0.000 C 
ATOM      3  C   UNL     1      45.663   5.686  12.115  0.00  0.00    +0.000 A 
ATOM      4  C   UNL     1      45.723   6.443  13.300  0.00  0.00    +0.000 A 
ATOM      5  N   UNL     1      46.437   7.590  13.453  0.00  0.00    +0.000 NA
ATOM      6  C   UNL     1      47.107   7.977  12.333  0.00  0.00    +0.000 A 
ATOM      7  C   UNL     1      47.033   7.272  11.141  0.00  0.00    +0.000 A 
ATOM      8  N   UNL     1      46.313   6.122  11.011  0.00  0.00    +0.000 NA
ENDROOT
BRANCH   6   9
ATOM      9  C   UNL     1      47.981   9.179  12.442  0.00  0.00    +0.000 C 
ATOM     10  N   UNL     1      47.462  10.228  13.153  0.00  0.00    +0.000 N 
ATOM     11  O   UNL     1      49.100   9.226  11.947  0.00  0.00    +0.000 OA
ATOM     12  H   UNL     1      46.543  10.148  13.575  0.00  0.00    +0.000 HD
ATOM     13  H   UNL     1      48.014  11.061  13.293  0.00  0.00    +0.000 HD
ENDBRANCH   6   9
BRANCH   1  15
ATOM     14  C   UNL     1      43.378   2.922  11.121  0.00  0.00    +0.000 C 
ATOM     15  C   UNL     1      44.417   4.033  10.830  0.00  0.00    +0.000 C 
BRANCH  15  16
ATOM     16  C   UNL     1      45.382   3.514   9.703  0.00  0.00    +0.000 C 
ATOM     17  C   UNL     1      45.581   4.477   8.517  0.00  0.00    +0.000 C 
ATOM     18  C   UNL     1      46.573   3.928   7.491  0.00  0.00    +0.000 C 
ATOM     19  C   UNL     1      46.185   2.533   7.021  0.00  0.00    +0.000 C 
ATOM     20  C   UNL     1      46.097   1.569   8.199  0.00  0.00    +0.000 C 
ATOM     21  C   UNL     1      45.105   2.063   9.253  0.00  0.00    +0.000 C 
ENDBRANCH  15  16
ENDBRANCH   1  15
TORSDOF 3
ENDMDL
MODEL 6
REMARK VINA RESULT:    -5.931      3.642      6.903
REMARK INTER + INTRA:          -6.397
REMARK INTER:                  -5.933
REMARK INTRA:                  -0.464
REMARK UNBOUND:                 0.574
REMARK  Name = 
REMARK  5 active torsions:
REMARK  status: ('A' for Active; 'I' for Inactive)
REMARK    1  A    between atoms: C_1  and  C_2
REMARK    2  A    between atoms: C_2  and  C_3
REMARK    3  A    between atoms: C_2  and  N_9
REMARK    4  A    between atoms: N_9  and  C_10
REMARK    5  A    between atoms: C_14  and  C_15
REMARK                            x       y       z     vdW  Elec       q    Type
REMARK                         _______ _______ _______ _____ _____    ______ ____
ROOT
ATOM      1  N   UNL     1      46.390   7.914  13.291  0.00  0.00    +0.000 N 
ATOM      2  C   UNL     1      45.535   9.040  12.916  0.00  0.00    +0.000 C 
ATOM      3  C   UNL     1      45.927   6.801  12.516  0.00  0.00    +0.000 A 
ATOM      4  C   UNL     1      44.748   6.141  12.909  0.00  0.00    +0.000 A 
ATOM      5  N   UNL     1      44.112   5.188  12.178  0.00  0.00    +0.000 NA
ATOM      6  C   UNL     1      44.725   4.896  10.998  0.00  0.00    +0.000 A 
ATOM      7  C   UNL     1      45.908   5.503  10.604  0.00  0.00    +0.000 A 
ATOM      8  N   UNL     1      46.527   6.460  11.352  0.00  0.00    +0.000 NA
ENDROOT
BRANCH   6   9
ATOM      9  C   UNL     1      44.045   3.922  10.098  0.00  0.00    +0.000 C 
ATOM     10  N   UNL     1      44.048   4.242   8.766  0.00  0.00    +0.000 N 
ATOM     11  O   UNL     1      43.531   2.891  10.513  0.00  0.00    +0.000 OA
ATOM     12  H   UNL     1      44.508   5.090   8.451  0.00  0.00    +0.000 HD
ATOM     13  H   UNL     1      43.633   3.610   8.098  0.00  0.00    +0.000 HD
ENDBRANCH   6   9
BRANCH   1  15
ATOM     14  C   UNL     1      48.407   7.694  14.648  0.00  0.00    +0.000 C 
ATOM     15  C   UNL     1      47.876   8.071  13.243  0.00  0.00    +0.000 C 
BRANCH  15  16
ATOM     16  C   UNL     1      48.444   9.489  12.873  0.00  0.00    +0.000 C 
ATOM     17  C   UNL     1      48.828   9.674  11.393  0.00  0.00    +0.000 C 
ATOM     18  C   UNL     1      49.320  11.093  11.099  0.00  0.00    +0.000 C 
ATOM     19  C   UNL     1      50.455  11.500  12.029  0.00  0.00    +0.000 C 
ATOM     20  C   UNL     1      50.019  11.412  13.487  0.00  0.00    +0.000 C 
ATOM     21  C   UNL     1      49.530  10.007  13.841  0.00  0.00    +0.000 C 
ENDBRANCH  15  16
ENDBRANCH   1  15
TORSDOF 3
ENDMDL
MODEL 7
REMARK VINA RESULT:    -5.629      3.263      7.771
REMARK INTER + INTRA:          -6.042
REMARK INTER:                  -5.621
REMARK INTRA:                  -0.421
REMARK UNBOUND:                 0.574
REMARK  Name = 
REMARK  5 active torsions:
REMARK  status: ('A' for Active; 'I' for Inactive)
REMARK    1  A    between atoms: C_1  and  C_2
REMARK    2  A    between atoms: C_2  and  C_3
REMARK    3  A    between atoms: C_2  and  N_9
REMARK    4  A    between atoms: N_9  and  C_10
REMARK    5  A    between atoms: C_14  and  C_15
REMARK                            x       y       z     vdW  Elec       q    Type
REMARK                         _______ _______ _______ _____ _____    ______ ____
ROOT
ATOM      1  N   UNL     1      48.715   7.338  14.799  0.00  0.00    +0.000 N 
ATOM      2  C   UNL     1      49.806   7.384  13.826  0.00  0.00    +0.000 C 
ATOM      3  C   UNL     1      47.734   6.455  14.240  0.00  0.00    +0.000 A 
ATOM      4  C   UNL     1      46.901   6.929  13.209  0.00  0.00    +0.000 A 
ATOM      5  N   UNL     1      46.051   6.156  12.483  0.00  0.00    +0.000 NA
ATOM      6  C   UNL     1      46.052   4.844  12.842  0.00  0.00    +0.000 A 
ATOM      7  C   UNL     1      46.834   4.358  13.880  0.00  0.00    +0.000 A 
ATOM      8  N   UNL     1      47.683   5.151  14.594  0.00  0.00    +0.000 NA
ENDROOT
BRANCH   6   9
ATOM      9  C   UNL     1      45.210   3.914  12.038  0.00  0.00    +0.000 C 
ATOM     10  N   UNL     1      45.135   2.628  12.503  0.00  0.00    +0.000 N 
ATOM     11  O   UNL     1      44.607   4.275  11.035  0.00  0.00    +0.000 OA
ATOM     12  H   UNL     1      45.624   2.368  13.353  0.00  0.00    +0.000 HD
ATOM     13  H   UNL     1      44.556   1.955  12.023  0.00  0.00    +0.000 HD
ENDBRANCH   6   9
BRANCH   1  15
ATOM     14  C   UNL     1      49.054   8.385  16.978  0.00  0.00    +0.000 C 
ATOM     15  C   UNL     1      49.019   7.029  16.230  0.00  0.00    +0.000 C 
BRANCH  15  16
ATOM     16  C   UNL     1      50.360   6.268  16.539  0.00  0.00    +0.000 C 
ATOM     17  C   UNL     1      50.200   4.958  17.334  0.00  0.00    +0.000 C 
ATOM     18  C   UNL     1      51.538   4.249  17.548  0.00  0.00    +0.000 C 
ATOM     19  C   UNL     1      52.569   5.169  18.186  0.00  0.00    +0.000 C 
ATOM     20  C   UNL     1      52.791   6.410  17.329  0.00  0.00    +0.000 C 
ATOM     21  C   UNL     1      51.484   7.169  17.094  0.00  0.00    +0.000 C 
ENDBRANCH  15  16
ENDBRANCH   1  15
TORSDOF 3
ENDMDL
MODEL 8
REMARK VINA RESULT:    -5.600      3.281      7.506
REMARK INTER + INTRA:          -6.008
REMARK INTER:                  -5.603
REMARK INTRA:                  -0.405
REMARK UNBOUND:                 0.574
REMARK  Name = 
REMARK  5 active torsions:
REMARK  status: ('A' for Active; 'I' for Inactive)
REMARK    1  A    between atoms: C_1  and  C_2
REMARK    2  A    between atoms: C_2  and  C_3
REMARK    3  A    between atoms: C_2  and  N_9
REMARK    4  A    between atoms: N_9  and  C_10
REMARK    5  A    between atoms: C_14  and  C_15
REMARK                            x       y       z     vdW  Elec       q    Type
REMARK                         _______ _______ _______ _____ _____    ______ ____
ROOT
ATOM      1  N   UNL     1      48.509   7.297  13.299  0.00  0.00    +0.000 N 
ATOM      2  C   UNL     1      49.446   7.006  12.215  0.00  0.00    +0.000 C 
ATOM      3  C   UNL     1      47.451   6.340  13.163  0.00  0.00    +0.000 A 
ATOM      4  C   UNL     1      46.479   6.538  12.163  0.00  0.00    +0.000 A 
ATOM      5  N   UNL     1      45.527   5.632  11.818  0.00  0.00    +0.000 NA
ATOM      6  C   UNL     1      45.571   4.480  12.542  0.00  0.00    +0.000 A 
ATOM      7  C   UNL     1      46.492   4.275  13.559  0.00  0.00    +0.000 A 
ATOM      8  N   UNL     1      47.441   5.197  13.886  0.00  0.00    +0.000 NA
ENDROOT
BRANCH   6   9
ATOM      9  C   UNL     1      44.613   3.401  12.168  0.00  0.00    +0.000 C 
ATOM     10  N   UNL     1      44.965   2.647  11.080  0.00  0.00    +0.000 N 
ATOM     11  O   UNL     1      43.586   3.185  12.798  0.00  0.00    +0.000 OA
ATOM     12  H   UNL     1      45.837   2.833  10.596  0.00  0.00    +0.000 HD
ATOM     13  H   UNL     1      44.377   1.879  10.791  0.00  0.00    +0.000 HD
ENDBRANCH   6   9
BRANCH   1  15
ATOM     14  C   UNL     1      48.376   8.668  15.313  0.00  0.00    +0.000 C 
ATOM     15  C   UNL     1      49.016   7.398  14.701  0.00  0.00    +0.000 C 
BRANCH  15  16
ATOM     16  C   UNL     1      50.572   7.491  14.905  0.00  0.00    +0.000 C 
ATOM     17  C   UNL     1      51.122   6.704  16.111  0.00  0.00    +0.000 C 
ATOM     18  C   UNL     1      52.646   6.798  16.211  0.00  0.00    +0.000 C 
ATOM     19  C   UNL     1      53.123   8.244  16.220  0.00  0.00    +0.000 C 
ATOM     20  C   UNL     1      52.657   8.976  14.968  0.00  0.00    +0.000 C 
ATOM     21  C   UNL     1      51.135   8.927  14.824  0.00  0.00    +0.000 C 
ENDBRANCH  15  16
ENDBRANCH   1  15
TORSDOF 3
ENDMDL
MODEL 9
REMARK VINA RESULT:    -5.397      3.439      8.253
REMARK INTER + INTRA:          -5.770
REMARK INTER:                  -5.297
REMARK INTRA:                  -0.472
REMARK UNBOUND:                 0.574
REMARK  Name = 
REMARK  5 active torsions:
REMARK  status: ('A' for Active; 'I' for Inactive)
REMARK    1  A    between atoms: C_1  and  C_2
REMARK    2  A    between atoms: C_2  and  C_3
REMARK    3  A    between atoms: C_2  and  N_9
REMARK    4  A    between atoms: N_9  and  C_10
REMARK    5  A    between atoms: C_14  and  C_15
REMARK                            x       y       z     vdW  Elec       q    Type
REMARK                         _______ _______ _______ _____ _____    ______ ____
ROOT
ATOM      1  N   UNL     1      48.255   4.804  16.535  0.00  0.00    +0.000 N 
ATOM      2  C   UNL     1      47.207   4.529  17.518  0.00  0.00    +0.000 C 
ATOM      3  C   UNL     1      47.623   4.694  15.254  0.00  0.00    +0.000 A 
ATOM      4  C   UNL     1      47.359   3.413  14.733  0.00  0.00    +0.000 A 
ATOM      5  N   UNL     1      46.622   3.167  13.618  0.00  0.00    +0.000 NA
ATOM      6  C   UNL     1      46.149   4.288  13.009  0.00  0.00    +0.000 A 
ATOM      7  C   UNL     1      46.427   5.563  13.478  0.00  0.00    +0.000 A 
ATOM      8  N   UNL     1      47.166   5.787  14.602  0.00  0.00    +0.000 NA
ENDROOT
BRANCH   6   9
ATOM      9  C   UNL     1      45.260   4.100  11.827  0.00  0.00    +0.000 C 
ATOM     10  N   UNL     1      44.971   2.801  11.503  0.00  0.00    +0.000 N 
ATOM     11  O   UNL     1      44.800   5.041  11.194  0.00  0.00    +0.000 OA
ATOM     12  H   UNL     1      45.346   2.044  12.065  0.00  0.00    +0.000 HD
ATOM     13  H   UNL     1      44.349   2.603  10.733  0.00  0.00    +0.000 HD
ENDBRANCH   6   9
BRANCH   1  15
ATOM     14  C   UNL     1      50.500   5.590  17.083  0.00  0.00    +0.000 C 
ATOM     15  C   UNL     1      49.079   6.044  16.667  0.00  0.00    +0.000 C 
BRANCH  15  16
ATOM     16  C   UNL     1      48.595   7.131  17.694  0.00  0.00    +0.000 C 
ATOM     17  C   UNL     1      48.387   8.540  17.106  0.00  0.00    +0.000 C 
ATOM     18  C   UNL     1      47.865   9.527  18.151  0.00  0.00    +0.000 C 
ATOM     19  C   UNL     1      48.751   9.562  19.388  0.00  0.00    +0.000 C 
ATOM     20  C   UNL     1      48.859   8.177  20.016  0.00  0.00    +0.000 C 
ATOM     21  C   UNL     1      49.392   7.149  19.017  0.00  0.00    +0.000 C 
ENDBRANCH  15  16
ENDBRANCH   1  15
TORSDOF 3
ENDMDL
