MODEL 1
REMARK VINA RESULT:    -8.602      0.000      0.000
REMARK INTER + INTRA:         -11.733
REMARK INTER:                 -11.117
REMARK INTRA:                  -0.616
REMARK UNBOUND:                -0.616
REMARK  Name = 
REMARK  5 active torsions:
REMARK  status: ('A' for Active; 'I' for Inactive)
REMARK    1  A    between atoms: C_2  and  C_4
REMARK    2  A    between atoms: C_7  and  N_8
REMARK    3  A    between atoms: N_8  and  C_9
REMARK    4  A    between atoms: C_9  and  C_10
REMARK    5  A    between atoms: C_14  and  C_15
REMARK                            x       y       z     vdW  Elec       q    Type
REMARK                         _______ _______ _______ _____ _____    ______ ____
ROOT
ATOM      1  C   UNL     1      43.833   4.522  11.280  0.00  0.00    +0.000 C 
ENDROOT
BRANCH   1   2
ATOM      2  C   UNL     1      44.904   5.360  11.934  0.00  0.00    +0.000 A 
ATOM      3  C   UNL     1      45.268   6.590  11.403  0.00  0.00    +0.000 A 
ATOM      4  N   UNL     1      46.227   7.381  11.926  0.00  0.00    +0.000 NA
ATOM      5  C   UNL     1      46.868   6.923  13.029  0.00  0.00    +0.000 A 
ATOM      6  C   UNL     1      46.615   5.700  13.660  0.00  0.00    +0.000 A 
ATOM      7  C   UNL     1      45.600   4.922  13.073  0.00  0.00    +0.000 A 
BRANCH   6   8
ATOM      8  C   UNL     1      47.368   5.257  14.853  0.00  0.00    +0.000 A 
ATOM      9  C   UNL     1      48.452   5.981  15.372  0.00  0.00    +0.000 A 
ATOM     10  N   UNL     1      49.190   5.627  16.457  0.00  0.00    +0.000 NA
ATOM     11  C   UNL     1      48.844   4.475  17.070  0.00  0.00    +0.000 A 
ATOM     12  C   UNL     1      47.796   3.683  16.649  0.00  0.00    +0.000 A 
ATOM     13  F   UNL     1      47.494   2.548  17.292  0.00  0.00    +0.000 F 
ATOM     14  C   UNL     1      47.051   4.075  15.542  0.00  0.00    +0.000 A 
ENDBRANCH   6   8
ENDBRANCH   1   2
BRANCH   1  15
ATOM     15  N   UNL     1      43.808   4.785   9.842  0.00  0.00    +0.000 N 
ATOM     16  H   UNL     1      43.993   5.764   9.639  0.00  0.00    +0.000 HD
BRANCH  15  20
ATOM     17  C   UNL     1      46.356   2.301   7.766  0.00  0.00    +0.000 A 
ATOM     18  C   UNL     1      46.311   3.658   7.489  0.00  0.00    +0.000 A 
ATOM     19  N   UNL     1      45.475   4.514   8.141  0.00  0.00    +0.000 NA
ATOM     20  C   UNL     1      44.673   3.976   9.085  0.00  0.00    +0.000 A 
ATOM     21  C   UNL     1      44.735   2.598   9.349  0.00  0.00    +0.000 A 
ATOM     22  N   UNL     1      45.557   1.726   8.705  0.00  0.00    +0.000 NA
BRANCH  17  24
ATOM     23  N   UNL     1      48.450   2.031   6.574  0.00  0.00    +0.000 N 
ATOM     24  C   UNL     1      47.313   1.423   7.037  0.00  0.00    +0.000 C 
ATOM     25  O   UNL     1      47.101   0.231   6.858  0.00  0.00    +0.000 OA
ATOM     26  H   UNL     1      49.139   1.486   6.075  0.00  0.00    +0.000 HD
ATOM     27  H   UNL     1      48.611   3.016   6.756  0.00  0.00    +0.000 HD
ENDBRANCH  17  24
ENDBRANCH  15  20
ENDBRANCH   1  15
TORSDOF 5
ENDMDL
MODEL 2
REMARK VINA RESULT:    -8.493      2.612      3.687
REMARK INTER + INTRA:         -11.591
REMARK INTER:                 -11.027
REMARK INTRA:                  -0.564
REMARK UNBOUND:                -0.616
REMARK  Name = 
REMARK  5 active torsions:
REMARK  status: ('A' for Active; 'I' for Inactive)
REMARK    1  A    between atoms: C_2  and  C_4
REMARK    2  A    between atoms: C_7  and  N_8
REMARK    3  A    between atoms: N_8  and  C_9
REMARK    4  A    between atoms: C_9  and  C_10
REMARK    5  A    between atoms: C_14  and  C_15
REMARK                            x       y       z     vdW  Elec       q    Type
REMARK                         _______ _______ _______ _____ _____    ______ ____
ROOT
ATOM      1  C   UNL     1      43.543   4.497  11.130  0.00  0.00    +0.000 C 
ENDROOT
BRANCH   1   2
ATOM      2  C   UNL     1      44.776   4.836  11.933  0.00  0.00    +0.000 A 
ATOM      3  C   UNL     1      45.228   3.986  12.933  0.00  0.00    +0.000 A 
ATOM      4  N   UNL     1      46.310   4.235  13.699  0.00  0.00    +0.000 NA
ATOM      5  C   UNL     1      46.973   5.395  13.468  0.00  0.00    +0.000 A 
ATOM      6  C   UNL     1      46.621   6.348  12.506  0.00  0.00    +0.000 A 
ATOM      7  C   UNL     1      45.488   6.030  11.734  0.00  0.00    +0.000 A 
BRANCH   6   8
ATOM      8  C   UNL     1      47.383   7.602  12.323  0.00  0.00    +0.000 A 
ATOM      9  C   UNL     1      46.876   8.855  12.702  0.00  0.00    +0.000 A 
ATOM     10  N   UNL     1      47.518  10.043  12.554  0.00  0.00    +0.000 NA
ATOM     11  C   UNL     1      48.742   9.999  11.985  0.00  0.00    +0.000 A 
ATOM     12  C   UNL     1      49.340   8.825  11.574  0.00  0.00    +0.000 A 
ATOM     13  F   UNL     1      50.556   8.836  11.013  0.00  0.00    +0.000 F 
ATOM     14  C   UNL     1      48.664   7.622  11.747  0.00  0.00    +0.000 A 
ENDBRANCH   6   8
ENDBRANCH   1   2
BRANCH   1  15
ATOM     15  N   UNL     1      43.746   4.870   9.731  0.00  0.00    +0.000 N 
ATOM     16  H   UNL     1      44.036   5.840   9.641  0.00  0.00    +0.000 HD
BRANCH  15  20
ATOM     17  C   UNL     1      46.371   2.333   7.821  0.00  0.00    +0.000 A 
ATOM     18  C   UNL     1      46.413   3.698   7.589  0.00  0.00    +0.000 A 
ATOM     19  N   UNL     1      45.557   4.572   8.189  0.00  0.00    +0.000 NA
ATOM     20  C   UNL     1      44.644   4.045   9.032  0.00  0.00    +0.000 A 
ATOM     21  C   UNL     1      44.619   2.657   9.251  0.00  0.00    +0.000 A 
ATOM     22  N   UNL     1      45.460   1.767   8.659  0.00  0.00    +0.000 NA
BRANCH  17  24
ATOM     23  N   UNL     1      48.441   2.047   6.592  0.00  0.00    +0.000 N 
ATOM     24  C   UNL     1      47.354   1.433   7.156  0.00  0.00    +0.000 C 
ATOM     25  O   UNL     1      47.205   0.220   7.113  0.00  0.00    +0.000 OA
ATOM     26  H   UNL     1      49.145   1.489   6.130  0.00  0.00    +0.000 HD
ATOM     27  H   UNL     1      48.551   3.053   6.662  0.00  0.00    +0.000 HD
ENDBRANCH  17  24
ENDBRANCH  15  20
ENDBRANCH   1  15
TORSDOF 5
ENDMDL
MODEL 3
REMARK VINA RESULT:    -8.355      2.566      3.208
REMARK INTER + INTRA:         -11.413
REMARK INTER:                 -10.691
REMARK INTRA:                  -0.721
REMARK UNBOUND:                -0.616
REMARK  Name = 
REMARK  5 active torsions:
REMARK  status: ('A' for Active; 'I' for Inactive)
REMARK    1  A    between atoms: C_2  and  C_4
REMARK    2  A    between atoms: C_7  and  N_8
REMARK    3  A    between atoms: N_8  and  C_9
REMARK    4  A    between atoms: C_9  and  C_10
REMARK    5  A    between atoms: C_14  and  C_15
REMARK                            x       y       z     vdW  Elec       q    Type
REMARK                         _______ _______ _______ _____ _____    ______ ____
ROOT
ATOM      1  C   UNL     1      44.015   5.534  10.775  0.00  0.00    +0.000 C 
ENDROOT
BRANCH   1   2
ATOM      2  C   UNL     1      45.050   5.343  11.857  0.00  0.00    +0.000 A 
ATOM      3  C   UNL     1      44.860   4.407  12.865  0.00  0.00    +0.000 A 
ATOM      4  N   UNL     1      45.734   4.197  13.871  0.00  0.00    +0.000 NA
ATOM      5  C   UNL     1      46.851   4.965  13.884  0.00  0.00    +0.000 A 
ATOM      6  C   UNL     1      47.163   5.954  12.945  0.00  0.00    +0.000 A 
ATOM      7  C   UNL     1      46.218   6.121  11.916  0.00  0.00    +0.000 A 
BRANCH   6   8
ATOM      8  C   UNL     1      48.396   6.767  13.033  0.00  0.00    +0.000 A 
ATOM      9  C   UNL     1      49.050   7.013  14.250  0.00  0.00    +0.000 A 
ATOM     10  N   UNL     1      50.178   7.755  14.403  0.00  0.00    +0.000 NA
ATOM     11  C   UNL     1      50.694   8.303  13.281  0.00  0.00    +0.000 A 
ATOM     12  C   UNL     1      50.136   8.127  12.031  0.00  0.00    +0.000 A 
ATOM     13  F   UNL     1      50.686   8.694  10.950  0.00  0.00    +0.000 F 
ATOM     14  C   UNL     1      48.987   7.354  11.903  0.00  0.00    +0.000 A 
ENDBRANCH   6   8
ENDBRANCH   1   2
BRANCH   1  15
ATOM     15  N   UNL     1      43.617   4.235  10.237  0.00  0.00    +0.000 N 
ATOM     16  H   UNL     1      42.707   4.280   9.785  0.00  0.00    +0.000 HD
BRANCH  15  20
ATOM     17  C   UNL     1      46.386   2.419   7.786  0.00  0.00    +0.000 A 
ATOM     18  C   UNL     1      46.102   3.768   7.652  0.00  0.00    +0.000 A 
ATOM     19  N   UNL     1      45.185   4.407   8.432  0.00  0.00    +0.000 NA
ATOM     20  C   UNL     1      44.548   3.657   9.356  0.00  0.00    +0.000 A 
ATOM     21  C   UNL     1      44.851   2.291   9.474  0.00  0.00    +0.000 A 
ATOM     22  N   UNL     1      45.758   1.633   8.702  0.00  0.00    +0.000 NA
BRANCH  17  24
ATOM     23  N   UNL     1      48.450   2.598   6.527  0.00  0.00    +0.000 N 
ATOM     24  C   UNL     1      47.421   1.786   6.922  0.00  0.00    +0.000 C 
ATOM     25  O   UNL     1      47.359   0.612   6.581  0.00  0.00    +0.000 OA
ATOM     26  H   UNL     1      49.185   2.225   5.942  0.00  0.00    +0.000 HD
ATOM     27  H   UNL     1      48.488   3.562   6.842  0.00  0.00    +0.000 HD
ENDBRANCH  17  24
ENDBRANCH  15  20
ENDBRANCH   1  15
TORSDOF 5
ENDMDL
MODEL 4
REMARK VINA RESULT:    -8.066      3.608      7.669
REMARK INTER + INTRA:         -11.039
REMARK INTER:                 -10.741
REMARK INTRA:                  -0.299
REMARK UNBOUND:                -0.616
REMARK  Name = 
REMARK  5 active torsions:
REMARK  status: ('A' for Active; 'I' for Inactive)
REMARK    1  A    between atoms: C_2  and  C_4
REMARK    2  A    between atoms: C_7  and  N_8
REMARK    3  A    between atoms: N_8  and  C_9
REMARK    4  A    between atoms: C_9  and  C_10
REMARK    5  A    between atoms: C_14  and  C_15
REMARK                            x       y       z     vdW  Elec       q    Type
REMARK                         _______ _______ _______ _____ _____    ______ ____
ROOT
ATOM      1  C   UNL     1      46.077   7.126  11.970  0.00  0.00    +0.000 C 
ENDROOT
BRANCH   1   2
ATOM      2  C   UNL     1      45.253   6.141  11.176  0.00  0.00    +0.000 A 
ATOM      3  C   UNL     1      43.879   6.058  11.353  0.00  0.00    +0.000 A 
ATOM      4  N   UNL     1      43.086   5.191  10.690  0.00  0.00    +0.000 NA
ATOM      5  C   UNL     1      43.690   4.353   9.812  0.00  0.00    +0.000 A 
ATOM      6  C   UNL     1      45.063   4.317   9.545  0.00  0.00    +0.000 A 
ATOM      7  C   UNL     1      45.838   5.249  10.261  0.00  0.00    +0.000 A 
BRANCH   6   8
ATOM      8  C   UNL     1      45.656   3.361   8.585  0.00  0.00    +0.000 A 
ATOM      9  C   UNL     1      45.797   1.995   8.871  0.00  0.00    +0.000 A 
ATOM     10  N   UNL     1      46.338   1.066   8.040  0.00  0.00    +0.000 NA
ATOM     11  C   UNL     1      46.781   1.514   6.845  0.00  0.00    +0.000 A 
ATOM     12  C   UNL     1      46.692   2.835   6.456  0.00  0.00    +0.000 A 
ATOM     13  F   UNL     1      47.147   3.227   5.259  0.00  0.00    +0.000 F 
ATOM     14  C   UNL     1      46.124   3.762   7.323  0.00  0.00    +0.000 A 
ENDBRANCH   6   8
ENDBRANCH   1   2
BRANCH   1  15
ATOM     15  N   UNL     1      47.388   6.550  12.264  0.00  0.00    +0.000 N 
ATOM     16  H   UNL     1      48.120   7.255  12.236  0.00  0.00    +0.000 HD
BRANCH  15  20
ATOM     17  C   UNL     1      47.425   4.433  15.798  0.00  0.00    +0.000 A 
ATOM     18  C   UNL     1      48.182   5.584  15.657  0.00  0.00    +0.000 A 
ATOM     19  N   UNL     1      48.209   6.309  14.503  0.00  0.00    +0.000 NA
ATOM     20  C   UNL     1      47.458   5.849  13.480  0.00  0.00    +0.000 A 
ATOM     21  C   UNL     1      46.700   4.678  13.645  0.00  0.00    +0.000 A 
ATOM     22  N   UNL     1      46.663   3.937  14.785  0.00  0.00    +0.000 NA
BRANCH  17  24
ATOM     23  N   UNL     1      48.505   3.896  17.900  0.00  0.00    +0.000 N 
ATOM     24  C   UNL     1      47.415   3.702  17.096  0.00  0.00    +0.000 C 
ATOM     25  O   UNL     1      46.491   2.970  17.426  0.00  0.00    +0.000 OA
ATOM     26  H   UNL     1      48.554   3.430  18.796  0.00  0.00    +0.000 HD
ATOM     27  H   UNL     1      49.246   4.527  17.611  0.00  0.00    +0.000 HD
ENDBRANCH  17  24
ENDBRANCH  15  20
ENDBRANCH   1  15
TORSDOF 5
ENDMDL
MODEL 5
REMARK VINA RESULT:    -8.050      3.991      7.605
REMARK INTER + INTRA:         -11.019
REMARK INTER:                 -10.410
REMARK INTRA:                  -0.609
REMARK UNBOUND:                -0.616
REMARK  Name = 
REMARK  5 active torsions:
REMARK  status: ('A' for Active; 'I' for Inactive)
REMARK    1  A    between atoms: C_2  and  C_4
REMARK    2  A    between atoms: C_7  and  N_8
REMARK    3  A    between atoms: N_8  and  C_9
REMARK    4  A    between atoms: C_9  and  C_10
REMARK    5  A    between atoms: C_14  and  C_15
REMARK                            x       y       z     vdW  Elec       q    Type
REMARK                         _______ _______ _______ _____ _____    ______ ____
ROOT
ATOM      1  C   UNL     1      43.934   6.273  11.205  0.00  0.00    +0.000 C 
ENDROOT
BRANCH   1   2
ATOM      2  C   UNL     1      44.002   4.825  10.780  0.00  0.00    +0.000 A 
ATOM      3  C   UNL     1      43.298   3.848  11.470  0.00  0.00    +0.000 A 
ATOM      4  N   UNL     1      43.328   2.537  11.156  0.00  0.00    +0.000 NA
ATOM      5  C   UNL     1      44.105   2.173  10.107  0.00  0.00    +0.000 A 
ATOM      6  C   UNL     1      44.877   3.047   9.333  0.00  0.00    +0.000 A 
ATOM      7  C   UNL     1      44.800   4.403   9.704  0.00  0.00    +0.000 A 
BRANCH   6   8
ATOM      8  C   UNL     1      45.717   2.576   8.211  0.00  0.00    +0.000 A 
ATOM      9  C   UNL     1      46.324   1.311   8.203  0.00  0.00    +0.000 A 
ATOM     10  N   UNL     1      47.113   0.820   7.211  0.00  0.00    +0.000 NA
ATOM     11  C   UNL     1      47.328   1.634   6.156  0.00  0.00    +0.000 A 
ATOM     12  C   UNL     1      46.781   2.897   6.055  0.00  0.00    +0.000 A 
ATOM     13  F   UNL     1      47.027   3.666   4.986  0.00  0.00    +0.000 F 
ATOM     14  C   UNL     1      45.970   3.370   7.080  0.00  0.00    +0.000 A 
ENDBRANCH   6   8
ENDBRANCH   1   2
BRANCH   1  15
ATOM     15  N   UNL     1      44.220   6.382  12.634  0.00  0.00    +0.000 N 
ATOM     16  H   UNL     1      43.908   5.558  13.142  0.00  0.00    +0.000 HD
BRANCH  15  20
ATOM     17  C   UNL     1      48.166   6.995  13.647  0.00  0.00    +0.000 A 
ATOM     18  C   UNL     1      47.356   8.060  13.288  0.00  0.00    +0.000 A 
ATOM     19  N   UNL     1      46.049   7.903  12.934  0.00  0.00    +0.000 NA
ATOM     20  C   UNL     1      45.566   6.641  12.942  0.00  0.00    +0.000 A 
ATOM     21  C   UNL     1      46.407   5.577  13.309  0.00  0.00    +0.000 A 
ATOM     22  N   UNL     1      47.714   5.712  13.660  0.00  0.00    +0.000 NA
BRANCH  17  24
ATOM     23  N   UNL     1      50.436   7.598  13.046  0.00  0.00    +0.000 N 
ATOM     24  C   UNL     1      49.579   7.238  14.052  0.00  0.00    +0.000 C 
ATOM     25  O   UNL     1      49.956   7.121  15.210  0.00  0.00    +0.000 OA
ATOM     26  H   UNL     1      51.407   7.780  13.260  0.00  0.00    +0.000 HD
ATOM     27  H   UNL     1      50.091   7.709  12.098  0.00  0.00    +0.000 HD
ENDBRANCH  17  24
ENDBRANCH  15  20
ENDBRANCH   1  15
TORSDOF 5
ENDMDL
MODEL 6
REMARK VINA RESULT:    -7.429      3.711      8.109
REMARK INTER + INTRA:         -10.216
REMARK INTER:                  -9.680
REMARK INTRA:                  -0.536
REMARK UNBOUND:                -0.616
REMARK  Name = 
REMARK  5 active torsions:
REMARK  status: ('A' for Active; 'I' for Inactive)
REMARK    1  A    between atoms: C_2  and  C_4
REMARK    2  A    between atoms: C_7  and  N_8
REMARK    3  A    between atoms: N_8  and  C_9
REMARK    4  A    between atoms: C_9  and  C_10
REMARK    5  A    between atoms: C_14  and  C_15
REMARK                            x       y       z     vdW  Elec       q    Type
REMARK                         _______ _______ _______ _____ _____    ______ ____
ROOT
ATOM      1  C   UNL     1      45.196   5.414  13.277  0.00  0.00    +0.000 C 
ENDROOT
BRANCH   1   2
ATOM      2  C   UNL     1      44.700   4.400  12.273  0.00  0.00    +0.000 A 
ATOM      3  C   UNL     1      43.590   3.614  12.547  0.00  0.00    +0.000 A 
ATOM      4  N   UNL     1      43.104   2.679  11.705  0.00  0.00    +0.000 NA
ATOM      5  C   UNL     1      43.762   2.507  10.532  0.00  0.00    +0.000 A 
ATOM      6  C   UNL     1      44.900   3.216  10.133  0.00  0.00    +0.000 A 
ATOM      7  C   UNL     1      45.355   4.183  11.050  0.00  0.00    +0.000 A 
BRANCH   6   8
ATOM      8  C   UNL     1      45.577   2.962   8.843  0.00  0.00    +0.000 A 
ATOM      9  C   UNL     1      45.856   3.984   7.924  0.00  0.00    +0.000 A 
ATOM     10  N   UNL     1      46.466   3.819   6.721  0.00  0.00    +0.000 NA
ATOM     11  C   UNL     1      46.818   2.557   6.394  0.00  0.00    +0.000 A 
ATOM     12  C   UNL     1      46.595   1.474   7.220  0.00  0.00    +0.000 A 
ATOM     13  F   UNL     1      46.964   0.242   6.848  0.00  0.00    +0.000 F 
ATOM     14  C   UNL     1      45.978   1.674   8.450  0.00  0.00    +0.000 A 
ENDBRANCH   6   8
ENDBRANCH   1   2
BRANCH   1  15
ATOM     15  N   UNL     1      46.657   5.412  13.300  0.00  0.00    +0.000 N 
ATOM     16  H   UNL     1      47.036   6.311  13.011  0.00  0.00    +0.000 HD
BRANCH  15  20
ATOM     17  C   UNL     1      48.460   4.418  16.869  0.00  0.00    +0.000 A 
ATOM     18  C   UNL     1      47.532   3.570  16.286  0.00  0.00    +0.000 A 
ATOM     19  N   UNL     1      46.902   3.864  15.114  0.00  0.00    +0.000 NA
ATOM     20  C   UNL     1      47.222   5.040  14.532  0.00  0.00    +0.000 A 
ATOM     21  C   UNL     1      48.164   5.885  15.142  0.00  0.00    +0.000 A 
ATOM     22  N   UNL     1      48.799   5.613  16.314  0.00  0.00    +0.000 NA
BRANCH  17  24
ATOM     23  N   UNL     1      50.446   4.402  18.259  0.00  0.00    +0.000 N 
ATOM     24  C   UNL     1      49.135   4.025  18.137  0.00  0.00    +0.000 C 
ATOM     25  O   UNL     1      48.558   3.403  19.019  0.00  0.00    +0.000 OA
ATOM     26  H   UNL     1      50.956   4.168  19.099  0.00  0.00    +0.000 HD
ATOM     27  H   UNL     1      50.893   4.937  17.521  0.00  0.00    +0.000 HD
ENDBRANCH  17  24
ENDBRANCH  15  20
ENDBRANCH   1  15
TORSDOF 5
ENDMDL
MODEL 7
REMARK VINA RESULT:    -7.311      3.749      7.459
REMARK INTER + INTRA:         -10.064
REMARK INTER:                  -9.473
REMARK INTRA:                  -0.591
REMARK UNBOUND:                -0.616
REMARK  Name = 
REMARK  5 active torsions:
REMARK  status: ('A' for Active; 'I' for Inactive)
REMARK    1  A    between atoms: C_2  and  C_4
REMARK    2  A    between atoms: C_7  and  N_8
REMARK    3  A    between atoms: N_8  and  C_9
REMARK    4  A    between atoms: C_9  and  C_10
REMARK    5  A    between atoms: C_14  and  C_15
REMARK                            x       y       z     vdW  Elec       q    Type
REMARK                         _______ _______ _______ _____ _____    ______ ____
ROOT
ATOM      1  C   UNL     1      44.729   7.040  11.608  0.00  0.00    +0.000 C 
ENDROOT
BRANCH   1   2
ATOM      2  C   UNL     1      44.423   5.646  11.116  0.00  0.00    +0.000 A 
ATOM      3  C   UNL     1      43.395   4.903  11.678  0.00  0.00    +0.000 A 
ATOM      4  N   UNL     1      43.080   3.647  11.299  0.00  0.00    +0.000 NA
ATOM      5  C   UNL     1      43.832   3.094  10.316  0.00  0.00    +0.000 A 
ATOM      6  C   UNL     1      44.905   3.720   9.672  0.00  0.00    +0.000 A 
ATOM      7  C   UNL     1      45.182   5.031  10.106  0.00  0.00    +0.000 A 
BRANCH   6   8
ATOM      8  C   UNL     1      45.694   3.048   8.618  0.00  0.00    +0.000 A 
ATOM      9  C   UNL     1      46.276   3.747   7.550  0.00  0.00    +0.000 A 
ATOM     10  N   UNL     1      47.005   3.192   6.547  0.00  0.00    +0.000 NA
ATOM     11  C   UNL     1      47.164   1.852   6.590  0.00  0.00    +0.000 A 
ATOM     12  C   UNL     1      46.638   1.062   7.593  0.00  0.00    +0.000 A 
ATOM     13  F   UNL     1      46.825  -0.264   7.589  0.00  0.00    +0.000 F 
ATOM     14  C   UNL     1      45.906   1.659   8.613  0.00  0.00    +0.000 A 
ENDBRANCH   6   8
ENDBRANCH   1   2
BRANCH   1  15
ATOM     15  N   UNL     1      45.391   6.971  12.909  0.00  0.00    +0.000 N 
ATOM     16  H   UNL     1      45.310   6.045  13.321  0.00  0.00    +0.000 HD
BRANCH  15  20
ATOM     17  C   UNL     1      49.372   8.025  13.032  0.00  0.00    +0.000 A 
ATOM     18  C   UNL     1      48.446   8.840  12.403  0.00  0.00    +0.000 A 
ATOM     19  N   UNL     1      47.122   8.526  12.328  0.00  0.00    +0.000 NA
ATOM     20  C   UNL     1      46.741   7.362  12.897  0.00  0.00    +0.000 A 
ATOM     21  C   UNL     1      47.699   6.550  13.528  0.00  0.00    +0.000 A 
ATOM     22  N   UNL     1      49.025   6.843  13.610  0.00  0.00    +0.000 NA
BRANCH  17  24
ATOM     23  N   UNL     1      51.596   7.702  13.942  0.00  0.00    +0.000 N 
ATOM     24  C   UNL     1      50.801   8.440  13.106  0.00  0.00    +0.000 C 
ATOM     25  O   UNL     1      51.242   9.383  12.463  0.00  0.00    +0.000 OA
ATOM     26  H   UNL     1      52.576   7.932  14.031  0.00  0.00    +0.000 HD
ATOM     27  H   UNL     1      51.209   6.911  14.446  0.00  0.00    +0.000 HD
ENDBRANCH  17  24
ENDBRANCH  15  20
ENDBRANCH   1  15
TORSDOF 5
ENDMDL
MODEL 8
REMARK VINA RESULT:    -6.748      3.698      7.891
REMARK INTER + INTRA:          -9.336
REMARK INTER:                  -8.827
REMARK INTRA:                  -0.510
REMARK UNBOUND:                -0.616
REMARK  Name = 
REMARK  5 active torsions:
REMARK  status: ('A' for Active; 'I' for Inactive)
REMARK    1  A    between atoms: C_2  and  C_4
REMARK    2  A    between atoms: C_7  and  N_8
REMARK    3  A    between atoms: N_8  and  C_9
REMARK    4  A    between atoms: C_9  and  C_10
REMARK    5  A    between atoms: C_14  and  C_15
REMARK                            x       y       z     vdW  Elec       q    Type
REMARK                         _______ _______ _______ _____ _____    ______ ____
ROOT
ATOM      1  C   UNL     1      48.506   7.419  13.365  0.00  0.00    +0.000 C 
ENDROOT
BRANCH   1   2
ATOM      2  C   UNL     1      47.188   7.334  12.634  0.00  0.00    +0.000 A 
ATOM      3  C   UNL     1      46.246   8.347  12.746  0.00  0.00    +0.000 A 
ATOM      4  N   UNL     1      45.044   8.327  12.134  0.00  0.00    +0.000 NA
ATOM      5  C   UNL     1      44.755   7.238  11.381  0.00  0.00    +0.000 A 
ATOM      6  C   UNL     1      45.601   6.139  11.192  0.00  0.00    +0.000 A 
ATOM      7  C   UNL     1      46.844   6.221  11.849  0.00  0.00    +0.000 A 
BRANCH   6   8
ATOM      8  C   UNL     1      45.212   4.975  10.368  0.00  0.00    +0.000 A 
ATOM      9  C   UNL     1      44.418   3.931  10.866  0.00  0.00    +0.000 A 
ATOM     10  N   UNL     1      44.031   2.831  10.167  0.00  0.00    +0.000 NA
ATOM     11  C   UNL     1      44.464   2.747   8.890  0.00  0.00    +0.000 A 
ATOM     12  C   UNL     1      45.247   3.715   8.295  0.00  0.00    +0.000 A 
ATOM     13  F   UNL     1      45.651   3.583   7.025  0.00  0.00    +0.000 F 
ATOM     14  C   UNL     1      45.619   4.835   9.031  0.00  0.00    +0.000 A 
ENDBRANCH   6   8
ENDBRANCH   1   2
BRANCH   1  15
ATOM     15  N   UNL     1      48.267   7.637  14.790  0.00  0.00    +0.000 N 
ATOM     16  H   UNL     1      47.350   8.043  14.958  0.00  0.00    +0.000 HD
BRANCH  15  20
ATOM     17  C   UNL     1      48.899   4.341  17.180  0.00  0.00    +0.000 A 
ATOM     18  C   UNL     1      48.057   4.266  16.083  0.00  0.00    +0.000 A 
ATOM     19  N   UNL     1      47.809   5.333  15.273  0.00  0.00    +0.000 NA
ATOM     20  C   UNL     1      48.426   6.492  15.590  0.00  0.00    +0.000 A 
ATOM     21  C   UNL     1      49.275   6.545  16.709  0.00  0.00    +0.000 A 
ATOM     22  N   UNL     1      49.531   5.493  17.533  0.00  0.00    +0.000 NA
BRANCH  17  24
ATOM     23  N   UNL     1      48.493   3.078  19.210  0.00  0.00    +0.000 N 
ATOM     24  C   UNL     1      49.151   3.129  18.010  0.00  0.00    +0.000 C 
ATOM     25  O   UNL     1      49.901   2.233  17.647  0.00  0.00    +0.000 OA
ATOM     26  H   UNL     1      48.621   2.280  19.815  0.00  0.00    +0.000 HD
ATOM     27  H   UNL     1      47.860   3.826  19.476  0.00  0.00    +0.000 HD
ENDBRANCH  17  24
ENDBRANCH  15  20
ENDBRANCH   1  15
TORSDOF 5
ENDMDL
MODEL 9
REMARK VINA RESULT:    -6.597      4.122      7.761
REMARK INTER + INTRA:          -9.141
REMARK INTER:                  -8.568
REMARK INTRA:                  -0.573
REMARK UNBOUND:                -0.616
REMARK  Name = 
REMARK  5 active torsions:
REMARK  status: ('A' for Active; 'I' for Inactive)
REMARK    1  A    between atoms: C_2  and  C_4
REMARK    2  A    between atoms: C_7  and  N_8
REMARK    3  A    between atoms: N_8  and  C_9
REMARK    4  A    between atoms: C_9  and  C_10
REMARK    5  A    between atoms: C_14  and  C_15
REMARK                            x       y       z     vdW  Elec       q    Type
REMARK                         _______ _______ _______ _____ _____    ______ ____
ROOT
ATOM      1  C   UNL     1      48.775   7.155  14.905  0.00  0.00    +0.000 C 
ENDROOT
BRANCH   1   2
ATOM      2  C   UNL     1      47.608   7.273  13.954  0.00  0.00    +0.000 A 
ATOM      3  C   UNL     1      47.181   8.514  13.503  0.00  0.00    +0.000 A 
ATOM      4  N   UNL     1      46.137   8.693  12.669  0.00  0.00    +0.000 NA
ATOM      5  C   UNL     1      45.472   7.581  12.269  0.00  0.00    +0.000 A 
ATOM      6  C   UNL     1      45.782   6.273  12.655  0.00  0.00    +0.000 A 
ATOM      7  C   UNL     1      46.886   6.149  13.520  0.00  0.00    +0.000 A 
BRANCH   6   8
ATOM      8  C   UNL     1      45.000   5.107  12.192  0.00  0.00    +0.000 A 
ATOM      9  C   UNL     1      44.319   4.256  13.075  0.00  0.00    +0.000 A 
ATOM     10  N   UNL     1      43.591   3.166  12.718  0.00  0.00    +0.000 NA
ATOM     11  C   UNL     1      43.535   2.886  11.398  0.00  0.00    +0.000 A 
ATOM     12  C   UNL     1      44.164   3.653  10.438  0.00  0.00    +0.000 A 
ATOM     13  F   UNL     1      44.079   3.331   9.141  0.00  0.00    +0.000 F 
ATOM     14  C   UNL     1      44.894   4.769  10.832  0.00  0.00    +0.000 A 
ENDBRANCH   6   8
ENDBRANCH   1   2
BRANCH   1  15
ATOM     15  N   UNL     1      48.321   6.603  16.179  0.00  0.00    +0.000 N 
ATOM     16  H   UNL     1      47.322   6.418  16.172  0.00  0.00    +0.000 HD
BRANCH  15  20
ATOM     17  C   UNL     1      50.489   3.294  17.331  0.00  0.00    +0.000 A 
ATOM     18  C   UNL     1      49.157   3.174  16.970  0.00  0.00    +0.000 A 
ATOM     19  N   UNL     1      48.399   4.243  16.595  0.00  0.00    +0.000 NA
ATOM     20  C   UNL     1      49.008   5.448  16.593  0.00  0.00    +0.000 A 
ATOM     21  C   UNL     1      50.359   5.545  16.964  0.00  0.00    +0.000 A 
ATOM     22  N   UNL     1      51.132   4.493  17.347  0.00  0.00    +0.000 NA
BRANCH  17  24
ATOM     23  N   UNL     1      52.333   2.291  18.544  0.00  0.00    +0.000 N 
ATOM     24  C   UNL     1      51.271   2.082  17.705  0.00  0.00    +0.000 C 
ATOM     25  O   UNL     1      50.988   0.967  17.288  0.00  0.00    +0.000 OA
ATOM     26  H   UNL     1      52.899   1.506  18.836  0.00  0.00    +0.000 HD
ATOM     27  H   UNL     1      52.531   3.223  18.893  0.00  0.00    +0.000 HD
ENDBRANCH  17  24
ENDBRANCH  15  20
ENDBRANCH   1  15
TORSDOF 5
ENDMDL
