MODEL 1
REMARK VINA RESULT:    -7.794      0.000      0.000
REMARK INTER + INTRA:          -8.576
REMARK INTER:                  -9.161
REMARK INTRA:                   0.585
REMARK UNBOUND:                 0.585
REMARK  Name = 
REMARK  3 active torsions:
REMARK  status: ('A' for Active; 'I' for Inactive)
REMARK    1  A    between atoms: C_2  and  C_4
REMARK    2  A    between atoms: N_8  and  C_9
REMARK    3  A    between atoms: C_9  and  C_10
REMARK                            x       y       z     vdW  Elec       q    Type
REMARK                         _______ _______ _______ _____ _____    ______ ____
ROOT
ATOM      1  C   UNL     1      46.362   2.617   7.606  0.00  0.00    +0.000 A 
ATOM      2  C   UNL     1      45.756   1.625   8.340  0.00  0.00    +0.000 A 
ATOM      3  N   UNL     1      44.927   1.864   9.380  0.00  0.00    +0.000 NA
ATOM      4  C   UNL     1      44.718   3.149   9.712  0.00  0.00    +0.000 A 
ATOM      5  N   UNL     1      43.852   3.369  10.774  0.00  0.00    +0.000 N 
ATOM      6  N   UNL     1      45.305   4.182   9.083  0.00  0.00    +0.000 NA
ATOM      7  C   UNL     1      46.115   3.896   8.039  0.00  0.00    +0.000 A 
ATOM      8  H   UNL     1      43.598   2.498  11.217  0.00  0.00    +0.000 HD
ENDROOT
BRANCH   1  10
ATOM      9  N   UNL     1      47.169   3.252   5.409  0.00  0.00    +0.000 N 
ATOM     10  C   UNL     1      47.235   2.369   6.450  0.00  0.00    +0.000 C 
ATOM     11  O   UNL     1      48.015   1.428   6.438  0.00  0.00    +0.000 OA
ATOM     12  H   UNL     1      47.856   3.125   4.673  0.00  0.00    +0.000 HD
ATOM     13  H   UNL     1      46.746   4.168   5.482  0.00  0.00    +0.000 HD
ENDBRANCH   1  10
BRANCH   5  14
ATOM     14  C   UNL     1      43.859   4.633  11.521  0.00  0.00    +0.000 C 
ATOM     15  C   UNL     1      42.544   5.164  12.071  0.00  0.00    +0.000 C 
ATOM     16  C   UNL     1      43.163   5.832  10.888  0.00  0.00    +0.000 C 
BRANCH  14  17
ATOM     17  C   UNL     1      45.168   4.912  12.264  0.00  0.00    +0.000 A 
ATOM     18  C   UNL     1      45.986   5.994  11.925  0.00  0.00    +0.000 A 
ATOM     19  N   UNL     1      47.136   6.317  12.572  0.00  0.00    +0.000 NA
ATOM     20  C   UNL     1      47.445   5.517  13.611  0.00  0.00    +0.000 A 
ATOM     21  C   UNL     1      46.660   4.436  13.969  0.00  0.00    +0.000 A 
ATOM     22  N   UNL     1      45.526   4.107  13.307  0.00  0.00    +0.000 NA
ENDBRANCH  14  17
ENDBRANCH   5  14
TORSDOF 3
ENDMDL
MODEL 2
REMARK VINA RESULT:    -7.526      2.771      6.032
REMARK INTER + INTRA:          -8.261
REMARK INTER:                  -8.253
REMARK INTRA:                  -0.008
REMARK UNBOUND:                 0.585
REMARK  Name = 
REMARK  3 active torsions:
REMARK  status: ('A' for Active; 'I' for Inactive)
REMARK    1  A    between atoms: C_2  and  C_4
REMARK    2  A    between atoms: N_8  and  C_9
REMARK    3  A    between atoms: C_9  and  C_10
REMARK                            x       y       z     vdW  Elec       q    Type
REMARK                         _______ _______ _______ _____ _____    ______ ____
ROOT
ATOM      1  C   UNL     1      47.741   5.858  14.340  0.00  0.00    +0.000 A 
ATOM      2  C   UNL     1      47.479   4.617  14.868  0.00  0.00    +0.000 A 
ATOM      3  N   UNL     1      46.728   3.682  14.246  0.00  0.00    +0.000 NA
ATOM      4  C   UNL     1      46.199   4.016  13.057  0.00  0.00    +0.000 A 
ATOM      5  N   UNL     1      45.444   3.034  12.430  0.00  0.00    +0.000 N 
ATOM      6  N   UNL     1      46.361   5.221  12.485  0.00  0.00    +0.000 NA
ATOM      7  C   UNL     1      47.132   6.120  13.138  0.00  0.00    +0.000 A 
ATOM      8  H   UNL     1      45.311   2.240  13.039  0.00  0.00    +0.000 HD
ENDROOT
BRANCH   1  10
ATOM      9  N   UNL     1      47.989   8.029  15.395  0.00  0.00    +0.000 N 
ATOM     10  C   UNL     1      48.587   6.869  14.991  0.00  0.00    +0.000 C 
ATOM     11  O   UNL     1      49.775   6.660  15.195  0.00  0.00    +0.000 OA
ATOM     12  H   UNL     1      48.565   8.662  15.938  0.00  0.00    +0.000 HD
ATOM     13  H   UNL     1      46.987   8.135  15.486  0.00  0.00    +0.000 HD
ENDBRANCH   1  10
BRANCH   5  14
ATOM     14  C   UNL     1      44.469   3.366  11.384  0.00  0.00    +0.000 C 
ATOM     15  C   UNL     1      43.321   4.304  11.727  0.00  0.00    +0.000 C 
ATOM     16  C   UNL     1      43.046   2.846  11.554  0.00  0.00    +0.000 C 
BRANCH  14  17
ATOM     17  C   UNL     1      45.043   3.344   9.965  0.00  0.00    +0.000 A 
ATOM     18  C   UNL     1      45.300   4.523   9.260  0.00  0.00    +0.000 A 
ATOM     19  N   UNL     1      45.846   4.571   8.017  0.00  0.00    +0.000 NA
ATOM     20  C   UNL     1      46.157   3.370   7.490  0.00  0.00    +0.000 A 
ATOM     21  C   UNL     1      45.911   2.184   8.160  0.00  0.00    +0.000 A 
ATOM     22  N   UNL     1      45.347   2.144   9.389  0.00  0.00    +0.000 NA
ENDBRANCH  14  17
ENDBRANCH   5  14
TORSDOF 3
ENDMDL
MODEL 3
REMARK VINA RESULT:    -7.204      1.304      2.036
REMARK INTER + INTRA:          -7.883
REMARK INTER:                  -7.757
REMARK INTRA:                  -0.126
REMARK UNBOUND:                 0.585
REMARK  Name = 
REMARK  3 active torsions:
REMARK  status: ('A' for Active; 'I' for Inactive)
REMARK    1  A    between atoms: C_2  and  C_4
REMARK    2  A    between atoms: N_8  and  C_9
REMARK    3  A    between atoms: C_9  and  C_10
REMARK                            x       y       z     vdW  Elec       q    Type
REMARK                         _______ _______ _______ _____ _____    ______ ____
ROOT
ATOM      1  C   UNL     1      46.305   2.195   7.754  0.00  0.00    +0.000 A 
ATOM      2  C   UNL     1      46.117   3.417   7.154  0.00  0.00    +0.000 A 
ATOM      3  N   UNL     1      45.715   4.523   7.817  0.00  0.00    +0.000 NA
ATOM      4  C   UNL     1      45.469   4.392   9.131  0.00  0.00    +0.000 A 
ATOM      5  N   UNL     1      45.072   5.545   9.794  0.00  0.00    +0.000 N 
ATOM      6  N   UNL     1      45.579   3.228   9.793  0.00  0.00    +0.000 NA
ATOM      7  C   UNL     1      45.998   2.151   9.092  0.00  0.00    +0.000 A 
ATOM      8  H   UNL     1      44.914   6.298   9.140  0.00  0.00    +0.000 HD
ENDROOT
BRANCH   1  10
ATOM      9  N   UNL     1      46.682  -0.200   7.704  0.00  0.00    +0.000 N 
ATOM     10  C   UNL     1      46.779   0.995   7.050  0.00  0.00    +0.000 C 
ATOM     11  O   UNL     1      47.209   1.063   5.907  0.00  0.00    +0.000 OA
ATOM     12  H   UNL     1      46.909  -1.026   7.161  0.00  0.00    +0.000 HD
ATOM     13  H   UNL     1      46.103  -0.341   8.523  0.00  0.00    +0.000 HD
ENDBRANCH   1  10
BRANCH   5  14
ATOM     14  C   UNL     1      44.364   5.488  11.078  0.00  0.00    +0.000 C 
ATOM     15  C   UNL     1      42.966   4.890  11.116  0.00  0.00    +0.000 C 
ATOM     16  C   UNL     1      43.132   6.369  11.246  0.00  0.00    +0.000 C 
BRANCH  14  17
ATOM     17  C   UNL     1      45.285   5.358  12.294  0.00  0.00    +0.000 A 
ATOM     18  C   UNL     1      45.152   4.306  13.206  0.00  0.00    +0.000 A 
ATOM     19  N   UNL     1      45.963   4.113  14.278  0.00  0.00    +0.000 NA
ATOM     20  C   UNL     1      46.954   5.017  14.408  0.00  0.00    +0.000 A 
ATOM     21  C   UNL     1      47.111   6.072  13.526  0.00  0.00    +0.000 A 
ATOM     22  N   UNL     1      46.286   6.270  12.471  0.00  0.00    +0.000 NA
ENDBRANCH  14  17
ENDBRANCH   5  14
TORSDOF 3
ENDMDL
MODEL 4
REMARK VINA RESULT:    -6.161      2.775      4.579
REMARK INTER + INTRA:          -6.656
REMARK INTER:                  -6.737
REMARK INTRA:                   0.080
REMARK UNBOUND:                 0.585
REMARK  Name = 
REMARK  3 active torsions:
REMARK  status: ('A' for Active; 'I' for Inactive)
REMARK    1  A    between atoms: C_2  and  C_4
REMARK    2  A    between atoms: N_8  and  C_9
REMARK    3  A    between atoms: C_9  and  C_10
REMARK                            x       y       z     vdW  Elec       q    Type
REMARK                         _______ _______ _______ _____ _____    ______ ____
ROOT
ATOM      1  C   UNL     1      44.983   3.902  10.321  0.00  0.00    +0.000 A 
ATOM      2  C   UNL     1      44.838   3.552  11.642  0.00  0.00    +0.000 A 
ATOM      3  N   UNL     1      45.232   4.334  12.672  0.00  0.00    +0.000 NA
ATOM      4  C   UNL     1      45.818   5.502  12.362  0.00  0.00    +0.000 A 
ATOM      5  N   UNL     1      46.201   6.294  13.436  0.00  0.00    +0.000 N 
ATOM      6  N   UNL     1      46.045   5.906  11.100  0.00  0.00    +0.000 NA
ATOM      7  C   UNL     1      45.620   5.098  10.103  0.00  0.00    +0.000 A 
ATOM      8  H   UNL     1      46.080   5.800  14.307  0.00  0.00    +0.000 HD
ENDROOT
BRANCH   1  10
ATOM      9  N   UNL     1      44.183   3.720   8.038  0.00  0.00    +0.000 N 
ATOM     10  C   UNL     1      44.523   3.077   9.195  0.00  0.00    +0.000 C 
ATOM     11  O   UNL     1      44.481   1.858   9.282  0.00  0.00    +0.000 OA
ATOM     12  H   UNL     1      43.976   3.126   7.243  0.00  0.00    +0.000 HD
ATOM     13  H   UNL     1      44.447   4.676   7.835  0.00  0.00    +0.000 HD
ENDBRANCH   1  10
BRANCH   5  14
ATOM     14  C   UNL     1      47.210   7.350  13.290  0.00  0.00    +0.000 C 
ATOM     15  C   UNL     1      48.655   6.948  13.037  0.00  0.00    +0.000 C 
ATOM     16  C   UNL     1      48.267   7.471  14.381  0.00  0.00    +0.000 C 
BRANCH  14  17
ATOM     17  C   UNL     1      46.666   8.659  12.711  0.00  0.00    +0.000 A 
ATOM     18  C   UNL     1      47.508   9.601  12.113  0.00  0.00    +0.000 A 
ATOM     19  N   UNL     1      47.082  10.760  11.546  0.00  0.00    +0.000 NA
ATOM     20  C   UNL     1      45.748  10.947  11.577  0.00  0.00    +0.000 A 
ATOM     21  C   UNL     1      44.888  10.037  12.166  0.00  0.00    +0.000 A 
ATOM     22  N   UNL     1      45.322   8.894  12.748  0.00  0.00    +0.000 NA
ENDBRANCH  14  17
ENDBRANCH   5  14
TORSDOF 3
ENDMDL
MODEL 5
REMARK VINA RESULT:    -6.069      4.658      7.226
REMARK INTER + INTRA:          -6.549
REMARK INTER:                  -6.546
REMARK INTRA:                  -0.003
REMARK UNBOUND:                 0.585
REMARK  Name = 
REMARK  3 active torsions:
REMARK  status: ('A' for Active; 'I' for Inactive)
REMARK    1  A    between atoms: C_2  and  C_4
REMARK    2  A    between atoms: N_8  and  C_9
REMARK    3  A    between atoms: C_9  and  C_10
REMARK                            x       y       z     vdW  Elec       q    Type
REMARK                         _______ _______ _______ _____ _____    ______ ____
ROOT
ATOM      1  C   UNL     1      48.115   3.825  17.388  0.00  0.00    +0.000 A 
ATOM      2  C   UNL     1      48.334   2.720  16.601  0.00  0.00    +0.000 A 
ATOM      3  N   UNL     1      47.931   2.625  15.314  0.00  0.00    +0.000 NA
ATOM      4  C   UNL     1      47.261   3.672  14.805  0.00  0.00    +0.000 A 
ATOM      5  N   UNL     1      46.871   3.558  13.478  0.00  0.00    +0.000 N 
ATOM      6  N   UNL     1      46.960   4.775  15.513  0.00  0.00    +0.000 NA
ATOM      7  C   UNL     1      47.396   4.831  16.792  0.00  0.00    +0.000 A 
ATOM      8  H   UNL     1      47.057   2.630  13.129  0.00  0.00    +0.000 HD
ENDROOT
BRANCH   1  10
ATOM      9  N   UNL     1      48.280   2.939  19.639  0.00  0.00    +0.000 N 
ATOM     10  C   UNL     1      48.582   3.953  18.776  0.00  0.00    +0.000 C 
ATOM     11  O   UNL     1      49.246   4.916  19.132  0.00  0.00    +0.000 OA
ATOM     12  H   UNL     1      48.704   2.994  20.559  0.00  0.00    +0.000 HD
ATOM     13  H   UNL     1      47.972   2.023  19.337  0.00  0.00    +0.000 HD
ENDBRANCH   1  10
BRANCH   5  14
ATOM     14  C   UNL     1      45.791   4.383  12.921  0.00  0.00    +0.000 C 
ATOM     15  C   UNL     1      44.352   4.017  13.245  0.00  0.00    +0.000 C 
ATOM     16  C   UNL     1      44.883   3.746  11.877  0.00  0.00    +0.000 C 
BRANCH  14  17
ATOM     17  C   UNL     1      46.178   5.847  12.694  0.00  0.00    +0.000 A 
ATOM     18  C   UNL     1      45.263   6.885  12.893  0.00  0.00    +0.000 A 
ATOM     19  N   UNL     1      45.556   8.204  12.748  0.00  0.00    +0.000 NA
ATOM     20  C   UNL     1      46.833   8.465  12.409  0.00  0.00    +0.000 A 
ATOM     21  C   UNL     1      47.762   7.461  12.201  0.00  0.00    +0.000 A 
ATOM     22  N   UNL     1      47.458   6.148  12.326  0.00  0.00    +0.000 NA
ENDBRANCH  14  17
ENDBRANCH   5  14
TORSDOF 3
ENDMDL
MODEL 6
REMARK VINA RESULT:    -5.896      3.476      5.635
REMARK INTER + INTRA:          -6.345
REMARK INTER:                  -6.267
REMARK INTRA:                  -0.078
REMARK UNBOUND:                 0.585
REMARK  Name = 
REMARK  3 active torsions:
REMARK  status: ('A' for Active; 'I' for Inactive)
REMARK    1  A    between atoms: C_2  and  C_4
REMARK    2  A    between atoms: N_8  and  C_9
REMARK    3  A    between atoms: C_9  and  C_10
REMARK                            x       y       z     vdW  Elec       q    Type
REMARK                         _______ _______ _______ _____ _____    ______ ____
ROOT
ATOM      1  C   UNL     1      44.608   5.072  11.057  0.00  0.00    +0.000 A 
ATOM      2  C   UNL     1      44.112   5.352  12.308  0.00  0.00    +0.000 A 
ATOM      3  N   UNL     1      44.658   6.263  13.143  0.00  0.00    +0.000 NA
ATOM      4  C   UNL     1      45.761   6.900  12.716  0.00  0.00    +0.000 A 
ATOM      5  N   UNL     1      46.295   7.841  13.585  0.00  0.00    +0.000 N 
ATOM      6  N   UNL     1      46.344   6.657  11.530  0.00  0.00    +0.000 NA
ATOM      7  C   UNL     1      45.754   5.749  10.721  0.00  0.00    +0.000 A 
ATOM      8  H   UNL     1      45.823   7.814  14.477  0.00  0.00    +0.000 HD
ENDROOT
BRANCH   1  10
ATOM      9  N   UNL     1      44.054   4.404   8.792  0.00  0.00    +0.000 N 
ATOM     10  C   UNL     1      43.999   4.112  10.126  0.00  0.00    +0.000 C 
ATOM     11  O   UNL     1      43.495   3.074  10.530  0.00  0.00    +0.000 OA
ATOM     12  H   UNL     1      43.729   3.679   8.163  0.00  0.00    +0.000 HD
ATOM     13  H   UNL     1      44.677   5.099   8.400  0.00  0.00    +0.000 HD
ENDBRANCH   1  10
BRANCH   5  14
ATOM     14  C   UNL     1      47.689   8.287  13.472  0.00  0.00    +0.000 C 
ATOM     15  C   UNL     1      48.801   7.289  13.756  0.00  0.00    +0.000 C 
ATOM     16  C   UNL     1      48.513   8.364  14.752  0.00  0.00    +0.000 C 
BRANCH  14  17
ATOM     17  C   UNL     1      47.906   9.405  12.448  0.00  0.00    +0.000 A 
ATOM     18  C   UNL     1      46.949  10.402  12.239  0.00  0.00    +0.000 A 
ATOM     19  N   UNL     1      47.099  11.441  11.377  0.00  0.00    +0.000 NA
ATOM     20  C   UNL     1      48.278  11.468  10.724  0.00  0.00    +0.000 A 
ATOM     21  C   UNL     1      49.244  10.494  10.905  0.00  0.00    +0.000 A 
ATOM     22  N   UNL     1      49.078   9.450  11.750  0.00  0.00    +0.000 NA
ENDBRANCH  14  17
ENDBRANCH   5  14
TORSDOF 3
ENDMDL
MODEL 7
REMARK VINA RESULT:    -5.863      4.081      6.657
REMARK INTER + INTRA:          -6.306
REMARK INTER:                  -6.399
REMARK INTRA:                   0.093
REMARK UNBOUND:                 0.585
REMARK  Name = 
REMARK  3 active torsions:
REMARK  status: ('A' for Active; 'I' for Inactive)
REMARK    1  A    between atoms: C_2  and  C_4
REMARK    2  A    between atoms: N_8  and  C_9
REMARK    3  A    between atoms: C_9  and  C_10
REMARK                            x       y       z     vdW  Elec       q    Type
REMARK                         _______ _______ _______ _____ _____    ______ ____
ROOT
ATOM      1  C   UNL     1      46.022   5.079  12.615  0.00  0.00    +0.000 A 
ATOM      2  C   UNL     1      46.625   6.283  12.890  0.00  0.00    +0.000 A 
ATOM      3  N   UNL     1      47.401   6.501  13.975  0.00  0.00    +0.000 NA
ATOM      4  C   UNL     1      47.556   5.478  14.831  0.00  0.00    +0.000 A 
ATOM      5  N   UNL     1      48.369   5.721  15.929  0.00  0.00    +0.000 N 
ATOM      6  N   UNL     1      46.967   4.280  14.669  0.00  0.00    +0.000 NA
ATOM      7  C   UNL     1      46.213   4.103  13.561  0.00  0.00    +0.000 A 
ATOM      8  H   UNL     1      48.629   6.695  15.974  0.00  0.00    +0.000 HD
ENDROOT
BRANCH   1  10
ATOM      9  N   UNL     1      44.843   5.895  10.658  0.00  0.00    +0.000 N 
ATOM     10  C   UNL     1      45.208   4.820  11.419  0.00  0.00    +0.000 C 
ATOM     11  O   UNL     1      44.902   3.681  11.099  0.00  0.00    +0.000 OA
ATOM     12  H   UNL     1      44.379   5.684   9.782  0.00  0.00    +0.000 HD
ATOM     13  H   UNL     1      45.283   6.804  10.731  0.00  0.00    +0.000 HD
ENDBRANCH   1  10
BRANCH   5  14
ATOM     14  C   UNL     1      48.292   4.895  17.140  0.00  0.00    +0.000 C 
ATOM     15  C   UNL     1      46.927   4.621  17.751  0.00  0.00    +0.000 C 
ATOM     16  C   UNL     1      47.854   5.574  18.432  0.00  0.00    +0.000 C 
BRANCH  14  17
ATOM     17  C   UNL     1      49.407   3.852  17.256  0.00  0.00    +0.000 A 
ATOM     18  C   UNL     1      49.210   2.523  16.870  0.00  0.00    +0.000 A 
ATOM     19  N   UNL     1      50.170   1.562  16.910  0.00  0.00    +0.000 NA
ATOM     20  C   UNL     1      51.374   1.984  17.341  0.00  0.00    +0.000 A 
ATOM     21  C   UNL     1      51.601   3.291  17.735  0.00  0.00    +0.000 A 
ATOM     22  N   UNL     1      50.634   4.238  17.713  0.00  0.00    +0.000 NA
ENDBRANCH  14  17
ENDBRANCH   5  14
TORSDOF 3
ENDMDL
MODEL 8
REMARK VINA RESULT:    -5.837      2.956      6.141
REMARK INTER + INTRA:          -6.275
REMARK INTER:                  -7.134
REMARK INTRA:                   0.859
REMARK UNBOUND:                 0.585
REMARK  Name = 
REMARK  3 active torsions:
REMARK  status: ('A' for Active; 'I' for Inactive)
REMARK    1  A    between atoms: C_2  and  C_4
REMARK    2  A    between atoms: N_8  and  C_9
REMARK    3  A    between atoms: C_9  and  C_10
REMARK                            x       y       z     vdW  Elec       q    Type
REMARK                         _______ _______ _______ _____ _____    ______ ____
ROOT
ATOM      1  C   UNL     1      48.018   6.540  14.094  0.00  0.00    +0.000 A 
ATOM      2  C   UNL     1      47.709   7.524  13.186  0.00  0.00    +0.000 A 
ATOM      3  N   UNL     1      46.576   7.535  12.449  0.00  0.00    +0.000 NA
ATOM      4  C   UNL     1      45.732   6.503  12.612  0.00  0.00    +0.000 A 
ATOM      5  N   UNL     1      44.568   6.544  11.856  0.00  0.00    +0.000 N 
ATOM      6  N   UNL     1      45.972   5.472  13.441  0.00  0.00    +0.000 NA
ATOM      7  C   UNL     1      47.111   5.512  14.168  0.00  0.00    +0.000 A 
ATOM      8  H   UNL     1      44.596   7.307  11.197  0.00  0.00    +0.000 HD
ENDROOT
BRANCH   1  10
ATOM      9  N   UNL     1      50.291   7.282  14.498  0.00  0.00    +0.000 N 
ATOM     10  C   UNL     1      49.229   6.538  14.927  0.00  0.00    +0.000 C 
ATOM     11  O   UNL     1      49.268   5.921  15.982  0.00  0.00    +0.000 OA
ATOM     12  H   UNL     1      51.073   7.355  15.140  0.00  0.00    +0.000 HD
ATOM     13  H   UNL     1      50.217   8.001  13.790  0.00  0.00    +0.000 HD
ENDBRANCH   1  10
BRANCH   5  14
ATOM     14  C   UNL     1      43.782   5.333  11.591  0.00  0.00    +0.000 C 
ATOM     15  C   UNL     1      42.279   5.374  11.818  0.00  0.00    +0.000 C 
ATOM     16  C   UNL     1      43.143   4.631  12.783  0.00  0.00    +0.000 C 
BRANCH  14  17
ATOM     17  C   UNL     1      44.368   4.435  10.499  0.00  0.00    +0.000 A 
ATOM     18  C   UNL     1      44.050   3.076  10.418  0.00  0.00    +0.000 A 
ATOM     19  N   UNL     1      44.504   2.237   9.450  0.00  0.00    +0.000 NA
ATOM     20  C   UNL     1      45.293   2.817   8.525  0.00  0.00    +0.000 A 
ATOM     21  C   UNL     1      45.631   4.158   8.578  0.00  0.00    +0.000 A 
ATOM     22  N   UNL     1      45.192   4.983   9.557  0.00  0.00    +0.000 NA
ENDBRANCH  14  17
ENDBRANCH   5  14
TORSDOF 3
ENDMDL
MODEL 9
REMARK VINA RESULT:    -5.641      3.139      6.355
REMARK INTER + INTRA:          -6.046
REMARK INTER:                  -6.407
REMARK INTRA:                   0.362
REMARK UNBOUND:                 0.585
REMARK  Name = 
REMARK  3 active torsions:
REMARK  status: ('A' for Active; 'I' for Inactive)
REMARK    1  A    between atoms: C_2  and  C_4
REMARK    2  A    between atoms: N_8  and  C_9
REMARK    3  A    between atoms: C_9  and  C_10
REMARK                            x       y       z     vdW  Elec       q    Type
REMARK                         _______ _______ _______ _____ _____    ______ ____
ROOT
ATOM      1  C   UNL     1      47.689   8.422  13.141  0.00  0.00    +0.000 A 
ATOM      2  C   UNL     1      47.972   7.376  13.985  0.00  0.00    +0.000 A 
ATOM      3  N   UNL     1      47.405   6.154  13.879  0.00  0.00    +0.000 NA
ATOM      4  C   UNL     1      46.498   5.984  12.903  0.00  0.00    +0.000 A 
ATOM      5  N   UNL     1      45.940   4.716  12.805  0.00  0.00    +0.000 N 
ATOM      6  N   UNL     1      46.123   6.962  12.061  0.00  0.00    +0.000 NA
ATOM      7  C   UNL     1      46.728   8.164  12.195  0.00  0.00    +0.000 A 
ATOM      8  H   UNL     1      46.227   4.138  13.580  0.00  0.00    +0.000 HD
ENDROOT
BRANCH   1  10
ATOM      9  N   UNL     1      48.546  10.263  14.468  0.00  0.00    +0.000 N 
ATOM     10  C   UNL     1      48.328   9.743  13.224  0.00  0.00    +0.000 C 
ATOM     11  O   UNL     1      48.683  10.337  12.215  0.00  0.00    +0.000 OA
ATOM     12  H   UNL     1      49.086  11.120  14.506  0.00  0.00    +0.000 HD
ATOM     13  H   UNL     1      48.514   9.709  15.316  0.00  0.00    +0.000 HD
ENDBRANCH   1  10
BRANCH   5  14
ATOM     14  C   UNL     1      44.666   4.490  12.112  0.00  0.00    +0.000 C 
ATOM     15  C   UNL     1      43.472   5.357  12.479  0.00  0.00    +0.000 C 
ATOM     16  C   UNL     1      43.507   3.934  12.930  0.00  0.00    +0.000 C 
BRANCH  14  17
ATOM     17  C   UNL     1      44.817   3.957  10.685  0.00  0.00    +0.000 A 
ATOM     18  C   UNL     1      44.521   2.629  10.363  0.00  0.00    +0.000 A 
ATOM     19  N   UNL     1      44.595   2.109   9.111  0.00  0.00    +0.000 NA
ATOM     20  C   UNL     1      44.965   2.984   8.155  0.00  0.00    +0.000 A 
ATOM     21  C   UNL     1      45.269   4.303   8.441  0.00  0.00    +0.000 A 
ATOM     22  N   UNL     1      45.214   4.810   9.695  0.00  0.00    +0.000 NA
ENDBRANCH  14  17
ENDBRANCH   5  14
TORSDOF 3
ENDMDL
