MODEL 1
REMARK VINA RESULT:    -6.934      0.000      0.000
REMARK INTER + INTRA:         -10.580
REMARK INTER:                  -9.367
REMARK INTRA:                  -1.213
REMARK UNBOUND:                -1.213
REMARK  Name = 
REMARK  7 active torsions:
REMARK  status: ('A' for Active; 'I' for Inactive)
REMARK    1  A    between atoms: C_1  and  C_2
REMARK    2  A    between atoms: C_2  and  C_3
REMARK    3  A    between atoms: C_6  and  C_7
REMARK    4  A    between atoms: C_7  and  C_8
REMARK    5  A    between atoms: C_11  and  C_12
REMARK    6  A    between atoms: C_12  and  N_13
REMARK    7  A    between atoms: C_14  and  C_16
REMARK                            x       y       z     vdW  Elec       q    Type
REMARK                         _______ _______ _______ _____ _____    ______ ____
ROOT
ATOM      1  C   UNL     1      49.499   8.161  15.668  0.00  0.00    +0.000 A 
ATOM      2  C   UNL     1      48.320   8.899  15.486  0.00  0.00    +0.000 A 
ATOM      3  C   UNL     1      47.621   8.844  14.278  0.00  0.00    +0.000 A 
ATOM      4  C   UNL     1      48.103   8.071  13.214  0.00  0.00    +0.000 A 
ATOM      5  C   UNL     1      49.288   7.355  13.398  0.00  0.00    +0.000 A 
ATOM      6  F   UNL     1      49.781   6.613  12.393  0.00  0.00    +0.000 F 
ATOM      7  C   UNL     1      49.981   7.389  14.607  0.00  0.00    +0.000 A 
ENDROOT
BRANCH   1   8
ATOM      8  C   UNL     1      50.209   8.185  16.998  0.00  0.00    +0.000 C 
BRANCH   8  12
ATOM      9  C   UNL     1      48.289   4.469  18.376  0.00  0.00    +0.000 C 
ATOM     10  C   UNL     1      49.817   4.485  18.245  0.00  0.00    +0.000 C 
ATOM     11  C   UNL     1      50.315   5.653  17.398  0.00  0.00    +0.000 C 
ATOM     12  C   UNL     1      49.843   7.015  17.941  0.00  0.00    +0.000 C 
ATOM     13  C   UNL     1      48.321   7.022  18.185  0.00  0.00    +0.000 C 
ATOM     14  C   UNL     1      47.831   5.808  18.976  0.00  0.00    +0.000 C 
BRANCH   9  16
ATOM     15  C   UNL     1      48.014   2.875  16.384  0.00  0.00    +0.000 C 
ATOM     16  C   UNL     1      47.556   4.164  17.053  0.00  0.00    +0.000 C 
ENDBRANCH   9  16
ENDBRANCH   8  12
ENDBRANCH   1   8
BRANCH   4  17
ATOM     17  C   UNL     1      47.346   7.991  11.922  0.00  0.00    +0.000 C 
BRANCH  17  18
ATOM     18  N   UNL     1      46.679   6.719  11.774  0.00  0.00    +0.000 N 
ATOM     19  C   UNL     1      45.319   6.609  11.647  0.00  0.00    +0.000 C 
ATOM     20  O   UNL     1      44.580   7.591  11.655  0.00  0.00    +0.000 OA
ATOM     21  H   UNL     1      47.237   5.890  11.959  0.00  0.00    +0.000 HD
BRANCH  19  22
ATOM     22  C   UNL     1      44.783   5.259  11.422  0.00  0.00    +0.000 A 
ATOM     23  C   UNL     1      44.035   4.650  12.420  0.00  0.00    +0.000 A 
ATOM     24  S   UNL     1      43.444   3.109  11.994  0.00  0.00    +0.000 S 
ATOM     25  C   UNL     1      44.204   3.180  10.475  0.00  0.00    +0.000 A 
ATOM     26  N   UNL     1      44.110   2.141   9.600  0.00  0.00    +0.000 NA
ATOM     27  C   UNL     1      44.762   2.310   8.499  0.00  0.00    +0.000 A 
ATOM     28  N   UNL     1      45.492   3.429   8.189  0.00  0.00    +0.000 N 
ATOM     29  C   UNL     1      45.576   4.521   9.021  0.00  0.00    +0.000 A 
ATOM     30  O   UNL     1      46.173   5.538   8.680  0.00  0.00    +0.000 OA
ATOM     31  C   UNL     1      44.881   4.370  10.289  0.00  0.00    +0.000 A 
ATOM     32  H   UNL     1      45.964   3.506   7.301  0.00  0.00    +0.000 HD
ENDBRANCH  19  22
ENDBRANCH  17  18
ENDBRANCH   4  17
TORSDOF 6
ENDMDL
MODEL 2
REMARK VINA RESULT:    -6.893      3.043      5.150
REMARK INTER + INTRA:         -10.524
REMARK INTER:                  -9.209
REMARK INTRA:                  -1.315
REMARK UNBOUND:                -1.213
REMARK  Name = 
REMARK  7 active torsions:
REMARK  status: ('A' for Active; 'I' for Inactive)
REMARK    1  A    between atoms: C_1  and  C_2
REMARK    2  A    between atoms: C_2  and  C_3
REMARK    3  A    between atoms: C_6  and  C_7
REMARK    4  A    between atoms: C_7  and  C_8
REMARK    5  A    between atoms: C_11  and  C_12
REMARK    6  A    between atoms: C_12  and  N_13
REMARK    7  A    between atoms: C_14  and  C_16
REMARK                            x       y       z     vdW  Elec       q    Type
REMARK                         _______ _______ _______ _____ _____    ______ ____
ROOT
ATOM      1  C   UNL     1      51.052   4.181  18.509  0.00  0.00    +0.000 A 
ATOM      2  C   UNL     1      49.981   5.050  18.765  0.00  0.00    +0.000 A 
ATOM      3  C   UNL     1      48.713   4.798  18.237  0.00  0.00    +0.000 A 
ATOM      4  C   UNL     1      48.495   3.686  17.415  0.00  0.00    +0.000 A 
ATOM      5  C   UNL     1      49.572   2.836  17.148  0.00  0.00    +0.000 A 
ATOM      6  F   UNL     1      49.397   1.767  16.356  0.00  0.00    +0.000 F 
ATOM      7  C   UNL     1      50.836   3.070  17.688  0.00  0.00    +0.000 A 
ENDROOT
BRANCH   1   8
ATOM      8  C   UNL     1      52.400   4.434  19.134  0.00  0.00    +0.000 C 
BRANCH   8  12
ATOM      9  C   UNL     1      53.190   8.025  16.710  0.00  0.00    +0.000 C 
ATOM     10  C   UNL     1      53.395   8.120  18.227  0.00  0.00    +0.000 C 
ATOM     11  C   UNL     1      52.720   6.975  18.977  0.00  0.00    +0.000 C 
ATOM     12  C   UNL     1      53.198   5.593  18.492  0.00  0.00    +0.000 C 
ATOM     13  C   UNL     1      53.106   5.478  16.957  0.00  0.00    +0.000 C 
ATOM     14  C   UNL     1      53.726   6.668  16.224  0.00  0.00    +0.000 C 
BRANCH   9  16
ATOM     15  C   UNL     1      51.516   8.079  14.767  0.00  0.00    +0.000 C 
ATOM     16  C   UNL     1      51.729   8.246  16.265  0.00  0.00    +0.000 C 
ENDBRANCH   9  16
ENDBRANCH   8  12
ENDBRANCH   1   8
BRANCH   4  17
ATOM     17  C   UNL     1      47.131   3.397  16.863  0.00  0.00    +0.000 C 
BRANCH  17  18
ATOM     18  N   UNL     1      46.731   4.385  15.889  0.00  0.00    +0.000 N 
ATOM     19  C   UNL     1      46.863   4.188  14.540  0.00  0.00    +0.000 C 
ATOM     20  O   UNL     1      47.336   3.154  14.074  0.00  0.00    +0.000 OA
ATOM     21  H   UNL     1      46.523   5.314  16.245  0.00  0.00    +0.000 HD
BRANCH  19  22
ATOM     22  C   UNL     1      46.339   5.245  13.663  0.00  0.00    +0.000 A 
ATOM     23  C   UNL     1      47.076   6.409  13.488  0.00  0.00    +0.000 A 
ATOM     24  S   UNL     1      46.363   7.518  12.407  0.00  0.00    +0.000 S 
ATOM     25  C   UNL     1      45.022   6.502  12.168  0.00  0.00    +0.000 A 
ATOM     26  N   UNL     1      44.001   6.877  11.348  0.00  0.00    +0.000 NA
ATOM     27  C   UNL     1      43.030   6.029  11.282  0.00  0.00    +0.000 A 
ATOM     28  N   UNL     1      42.991   4.834  11.954  0.00  0.00    +0.000 N 
ATOM     29  C   UNL     1      44.018   4.393  12.754  0.00  0.00    +0.000 A 
ATOM     30  O   UNL     1      43.987   3.285  13.279  0.00  0.00    +0.000 OA
ATOM     31  C   UNL     1      45.126   5.325  12.885  0.00  0.00    +0.000 A 
ATOM     32  H   UNL     1      42.208   4.207  11.844  0.00  0.00    +0.000 HD
ENDBRANCH  19  22
ENDBRANCH  17  18
ENDBRANCH   4  17
TORSDOF 6
ENDMDL
MODEL 3
REMARK VINA RESULT:    -6.695      4.148      8.810
REMARK INTER + INTRA:         -10.256
REMARK INTER:                  -9.244
REMARK INTRA:                  -1.012
REMARK UNBOUND:                -1.213
REMARK  Name = 
REMARK  7 active torsions:
REMARK  status: ('A' for Active; 'I' for Inactive)
REMARK    1  A    between atoms: C_1  and  C_2
REMARK    2  A    between atoms: C_2  and  C_3
REMARK    3  A    between atoms: C_6  and  C_7
REMARK    4  A    between atoms: C_7  and  C_8
REMARK    5  A    between atoms: C_11  and  C_12
REMARK    6  A    between atoms: C_12  and  N_13
REMARK    7  A    between atoms: C_14  and  C_16
REMARK                            x       y       z     vdW  Elec       q    Type
REMARK                         _______ _______ _______ _____ _____    ______ ____
ROOT
ATOM      1  C   UNL     1      45.541   5.152  12.306  0.00  0.00    +0.000 A 
ATOM      2  C   UNL     1      44.913   6.394  12.128  0.00  0.00    +0.000 A 
ATOM      3  C   UNL     1      45.523   7.573  12.562  0.00  0.00    +0.000 A 
ATOM      4  C   UNL     1      46.763   7.532  13.211  0.00  0.00    +0.000 A 
ATOM      5  C   UNL     1      47.372   6.290  13.402  0.00  0.00    +0.000 A 
ATOM      6  F   UNL     1      48.557   6.217  14.030  0.00  0.00    +0.000 F 
ATOM      7  C   UNL     1      46.779   5.111  12.954  0.00  0.00    +0.000 A 
ENDROOT
BRANCH   1   8
ATOM      8  C   UNL     1      44.897   3.895  11.779  0.00  0.00    +0.000 C 
BRANCH   8  12
ATOM      9  C   UNL     1      45.686   3.175   7.507  0.00  0.00    +0.000 C 
ATOM     10  C   UNL     1      44.499   2.450   8.152  0.00  0.00    +0.000 C 
ATOM     11  C   UNL     1      44.571   2.461   9.677  0.00  0.00    +0.000 C 
ATOM     12  C   UNL     1      44.661   3.888  10.250  0.00  0.00    +0.000 C 
ATOM     13  C   UNL     1      45.779   4.696   9.564  0.00  0.00    +0.000 C 
ATOM     14  C   UNL     1      45.732   4.618   8.037  0.00  0.00    +0.000 C 
BRANCH   9  16
ATOM     15  C   UNL     1      46.989   0.968   7.394  0.00  0.00    +0.000 C 
ATOM     16  C   UNL     1      47.037   2.457   7.709  0.00  0.00    +0.000 C 
ENDBRANCH   9  16
ENDBRANCH   8  12
ENDBRANCH   1   8
BRANCH   4  17
ATOM     17  C   UNL     1      47.434   8.797  13.660  0.00  0.00    +0.000 C 
BRANCH  17  18
ATOM     18  N   UNL     1      47.286   9.003  15.081  0.00  0.00    +0.000 N 
ATOM     19  C   UNL     1      48.347   8.960  15.948  0.00  0.00    +0.000 C 
ATOM     20  O   UNL     1      49.493   8.740  15.566  0.00  0.00    +0.000 OA
ATOM     21  H   UNL     1      46.337   8.991  15.444  0.00  0.00    +0.000 HD
BRANCH  19  22
ATOM     22  C   UNL     1      48.062   9.268  17.356  0.00  0.00    +0.000 A 
ATOM     23  C   UNL     1      47.871  10.589  17.737  0.00  0.00    +0.000 A 
ATOM     24  S   UNL     1      47.503  10.782  19.391  0.00  0.00    +0.000 S 
ATOM     25  C   UNL     1      47.631   9.110  19.667  0.00  0.00    +0.000 A 
ATOM     26  N   UNL     1      47.447   8.594  20.914  0.00  0.00    +0.000 NA
ATOM     27  C   UNL     1      47.606   7.315  20.991  0.00  0.00    +0.000 A 
ATOM     28  N   UNL     1      47.922   6.503  19.933  0.00  0.00    +0.000 N 
ATOM     29  C   UNL     1      48.070   6.973  18.648  0.00  0.00    +0.000 A 
ATOM     30  O   UNL     1      48.275   6.209  17.710  0.00  0.00    +0.000 OA
ATOM     31  C   UNL     1      47.929   8.413  18.511  0.00  0.00    +0.000 A 
ATOM     32  H   UNL     1      48.014   5.506  20.057  0.00  0.00    +0.000 HD
ENDBRANCH  19  22
ENDBRANCH  17  18
ENDBRANCH   4  17
TORSDOF 6
ENDMDL
MODEL 4
REMARK VINA RESULT:    -6.678      4.774      8.674
REMARK INTER + INTRA:         -10.234
REMARK INTER:                  -9.127
REMARK INTRA:                  -1.107
REMARK UNBOUND:                -1.213
REMARK  Name = 
REMARK  7 active torsions:
REMARK  status: ('A' for Active; 'I' for Inactive)
REMARK    1  A    between atoms: C_1  and  C_2
REMARK    2  A    between atoms: C_2  and  C_3
REMARK    3  A    between atoms: C_6  and  C_7
REMARK    4  A    between atoms: C_7  and  C_8
REMARK    5  A    between atoms: C_11  and  C_12
REMARK    6  A    between atoms: C_12  and  N_13
REMARK    7  A    between atoms: C_14  and  C_16
REMARK                            x       y       z     vdW  Elec       q    Type
REMARK                         _______ _______ _______ _____ _____    ______ ____
ROOT
ATOM      1  C   UNL     1      47.316   5.659  13.433  0.00  0.00    +0.000 A 
ATOM      2  C   UNL     1      47.000   4.293  13.444  0.00  0.00    +0.000 A 
ATOM      3  C   UNL     1      47.104   3.543  14.618  0.00  0.00    +0.000 A 
ATOM      4  C   UNL     1      47.557   4.139  15.801  0.00  0.00    +0.000 A 
ATOM      5  C   UNL     1      47.889   5.495  15.777  0.00  0.00    +0.000 A 
ATOM      6  F   UNL     1      48.335   6.092  16.894  0.00  0.00    +0.000 F 
ATOM      7  C   UNL     1      47.768   6.255  14.615  0.00  0.00    +0.000 A 
ENDROOT
BRANCH   1   8
ATOM      8  C   UNL     1      47.142   6.467  12.173  0.00  0.00    +0.000 C 
BRANCH   8  12
ATOM      9  C   UNL     1      43.149   4.851  11.258  0.00  0.00    +0.000 C 
ATOM     10  C   UNL     1      43.231   6.188  12.005  0.00  0.00    +0.000 C 
ATOM     11  C   UNL     1      44.613   6.434  12.605  0.00  0.00    +0.000 C 
ATOM     12  C   UNL     1      45.730   6.380  11.546  0.00  0.00    +0.000 C 
ATOM     13  C   UNL     1      45.634   5.097  10.697  0.00  0.00    +0.000 C 
ATOM     14  C   UNL     1      44.227   4.830  10.162  0.00  0.00    +0.000 C 
BRANCH   9  16
ATOM     15  C   UNL     1      43.373   2.300  11.424  0.00  0.00    +0.000 C 
ATOM     16  C   UNL     1      43.257   3.617  12.179  0.00  0.00    +0.000 C 
ENDBRANCH   9  16
ENDBRANCH   8  12
ENDBRANCH   1   8
BRANCH   4  17
ATOM     17  C   UNL     1      47.651   3.344  17.071  0.00  0.00    +0.000 C 
BRANCH  17  18
ATOM     18  N   UNL     1      49.021   3.171  17.491  0.00  0.00    +0.000 N 
ATOM     19  C   UNL     1      49.865   2.266  16.902  0.00  0.00    +0.000 C 
ATOM     20  O   UNL     1      49.503   1.541  15.979  0.00  0.00    +0.000 OA
ATOM     21  H   UNL     1      49.285   3.611  18.368  0.00  0.00    +0.000 HD
BRANCH  19  22
ATOM     22  C   UNL     1      51.256   2.254  17.377  0.00  0.00    +0.000 A 
ATOM     23  C   UNL     1      51.842   1.045  17.729  0.00  0.00    +0.000 A 
ATOM     24  S   UNL     1      53.471   1.187  18.213  0.00  0.00    +0.000 S 
ATOM     25  C   UNL     1      53.438   2.875  18.013  0.00  0.00    +0.000 A 
ATOM     26  N   UNL     1      54.537   3.630  18.287  0.00  0.00    +0.000 NA
ATOM     27  C   UNL     1      54.366   4.899  18.125  0.00  0.00    +0.000 A 
ATOM     28  N   UNL     1      53.198   5.482  17.705  0.00  0.00    +0.000 N 
ATOM     29  C   UNL     1      52.079   4.756  17.372  0.00  0.00    +0.000 A 
ATOM     30  O   UNL     1      51.075   5.301  16.925  0.00  0.00    +0.000 OA
ATOM     31  C   UNL     1      52.209   3.321  17.563  0.00  0.00    +0.000 A 
ATOM     32  H   UNL     1      53.136   6.481  17.582  0.00  0.00    +0.000 HD
ENDBRANCH  19  22
ENDBRANCH  17  18
ENDBRANCH   4  17
TORSDOF 6
ENDMDL
MODEL 5
REMARK VINA RESULT:    -6.671      4.936      8.611
REMARK INTER + INTRA:         -10.223
REMARK INTER:                  -9.465
REMARK INTRA:                  -0.758
REMARK UNBOUND:                -1.213
REMARK  Name = 
REMARK  7 active torsions:
REMARK  status: ('A' for Active; 'I' for Inactive)
REMARK    1  A    between atoms: C_1  and  C_2
REMARK    2  A    between atoms: C_2  and  C_3
REMARK    3  A    between atoms: C_6  and  C_7
REMARK    4  A    between atoms: C_7  and  C_8
REMARK    5  A    between atoms: C_11  and  C_12
REMARK    6  A    between atoms: C_12  and  N_13
REMARK    7  A    between atoms: C_14  and  C_16
REMARK                            x       y       z     vdW  Elec       q    Type
REMARK                         _______ _______ _______ _____ _____    ______ ____
ROOT
ATOM      1  C   UNL     1      47.259   6.163  12.932  0.00  0.00    +0.000 A 
ATOM      2  C   UNL     1      46.692   4.922  13.258  0.00  0.00    +0.000 A 
ATOM      3  C   UNL     1      46.877   4.362  14.524  0.00  0.00    +0.000 A 
ATOM      4  C   UNL     1      47.660   5.016  15.482  0.00  0.00    +0.000 A 
ATOM      5  C   UNL     1      48.239   6.242  15.142  0.00  0.00    +0.000 A 
ATOM      6  F   UNL     1      49.003   6.889  16.036  0.00  0.00    +0.000 F 
ATOM      7  C   UNL     1      48.042   6.818  13.889  0.00  0.00    +0.000 A 
ENDROOT
BRANCH   1   8
ATOM      8  C   UNL     1      47.001   6.783  11.582  0.00  0.00    +0.000 C 
BRANCH   8  12
ATOM      9  C   UNL     1      43.077   4.843  11.104  0.00  0.00    +0.000 C 
ATOM     10  C   UNL     1      43.105   6.321  11.511  0.00  0.00    +0.000 C 
ATOM     11  C   UNL     1      44.474   6.755  12.027  0.00  0.00    +0.000 C 
ATOM     12  C   UNL     1      45.596   6.495  11.003  0.00  0.00    +0.000 C 
ATOM     13  C   UNL     1      45.552   5.044  10.485  0.00  0.00    +0.000 C 
ATOM     14  C   UNL     1      44.158   4.603  10.037  0.00  0.00    +0.000 C 
BRANCH   9  16
ATOM     15  C   UNL     1      43.416   2.417  11.869  0.00  0.00    +0.000 C 
ATOM     16  C   UNL     1      43.230   3.868  12.291  0.00  0.00    +0.000 C 
ENDBRANCH   9  16
ENDBRANCH   8  12
ENDBRANCH   1   8
BRANCH   4  17
ATOM     17  C   UNL     1      47.846   4.430  16.850  0.00  0.00    +0.000 C 
BRANCH  17  18
ATOM     18  N   UNL     1      49.226   4.090  17.102  0.00  0.00    +0.000 N 
ATOM     19  C   UNL     1      49.884   4.467  18.243  0.00  0.00    +0.000 C 
ATOM     20  O   UNL     1      49.336   5.125  19.125  0.00  0.00    +0.000 OA
ATOM     21  H   UNL     1      49.753   3.722  16.315  0.00  0.00    +0.000 HD
BRANCH  19  22
ATOM     22  C   UNL     1      51.262   3.982  18.403  0.00  0.00    +0.000 A 
ATOM     23  C   UNL     1      52.201   4.798  19.019  0.00  0.00    +0.000 A 
ATOM     24  S   UNL     1      53.740   4.080  19.174  0.00  0.00    +0.000 S 
ATOM     25  C   UNL     1      53.217   2.669  18.384  0.00  0.00    +0.000 A 
ATOM     26  N   UNL     1      54.076   1.635  18.166  0.00  0.00    +0.000 NA
ATOM     27  C   UNL     1      53.561   0.639  17.526  0.00  0.00    +0.000 A 
ATOM     28  N   UNL     1      52.261   0.579  17.093  0.00  0.00    +0.000 N 
ATOM     29  C   UNL     1      51.347   1.578  17.332  0.00  0.00    +0.000 A 
ATOM     30  O   UNL     1      50.172   1.459  17.000  0.00  0.00    +0.000 OA
ATOM     31  C   UNL     1      51.884   2.736  18.026  0.00  0.00    +0.000 A 
ATOM     32  H   UNL     1      51.915  -0.239  16.613  0.00  0.00    +0.000 HD
ENDBRANCH  19  22
ENDBRANCH  17  18
ENDBRANCH   4  17
TORSDOF 6
ENDMDL
MODEL 6
REMARK VINA RESULT:    -6.627      3.790      5.768
REMARK INTER + INTRA:         -10.165
REMARK INTER:                  -9.179
REMARK INTRA:                  -0.985
REMARK UNBOUND:                -1.213
REMARK  Name = 
REMARK  7 active torsions:
REMARK  status: ('A' for Active; 'I' for Inactive)
REMARK    1  A    between atoms: C_1  and  C_2
REMARK    2  A    between atoms: C_2  and  C_3
REMARK    3  A    between atoms: C_6  and  C_7
REMARK    4  A    between atoms: C_7  and  C_8
REMARK    5  A    between atoms: C_11  and  C_12
REMARK    6  A    between atoms: C_12  and  N_13
REMARK    7  A    between atoms: C_14  and  C_16
REMARK                            x       y       z     vdW  Elec       q    Type
REMARK                         _______ _______ _______ _____ _____    ______ ____
ROOT
ATOM      1  C   UNL     1      46.048   6.974  12.894  0.00  0.00    +0.000 A 
ATOM      2  C   UNL     1      46.500   5.733  13.366  0.00  0.00    +0.000 A 
ATOM      3  C   UNL     1      45.825   4.555  13.038  0.00  0.00    +0.000 A 
ATOM      4  C   UNL     1      44.665   4.596  12.255  0.00  0.00    +0.000 A 
ATOM      5  C   UNL     1      44.211   5.839  11.806  0.00  0.00    +0.000 A 
ATOM      6  F   UNL     1      43.096   5.912  11.062  0.00  0.00    +0.000 F 
ATOM      7  C   UNL     1      44.890   7.017  12.112  0.00  0.00    +0.000 A 
ENDROOT
BRANCH   1   8
ATOM      8  C   UNL     1      46.821   8.230  13.207  0.00  0.00    +0.000 C 
BRANCH   8  12
ATOM      9  C   UNL     1      50.678   9.638  11.616  0.00  0.00    +0.000 C 
ATOM     10  C   UNL     1      50.292   8.173  11.377  0.00  0.00    +0.000 C 
ATOM     11  C   UNL     1      49.163   7.713  12.296  0.00  0.00    +0.000 C 
ATOM     12  C   UNL     1      47.905   8.593  12.165  0.00  0.00    +0.000 C 
ATOM     13  C   UNL     1      48.253  10.089  12.299  0.00  0.00    +0.000 C 
ATOM     14  C   UNL     1      49.431  10.516  11.423  0.00  0.00    +0.000 C 
BRANCH   9  16
ATOM     15  C   UNL     1      51.231  11.334  13.460  0.00  0.00    +0.000 C 
ATOM     16  C   UNL     1      51.339   9.891  12.988  0.00  0.00    +0.000 C 
ENDBRANCH   9  16
ENDBRANCH   8  12
ENDBRANCH   1   8
BRANCH   4  17
ATOM     17  C   UNL     1      43.948   3.333  11.881  0.00  0.00    +0.000 C 
BRANCH  17  18
ATOM     18  N   UNL     1      44.679   2.578  10.891  0.00  0.00    +0.000 N 
ATOM     19  C   UNL     1      44.601   2.849   9.550  0.00  0.00    +0.000 C 
ATOM     20  O   UNL     1      43.897   3.753   9.107  0.00  0.00    +0.000 OA
ATOM     21  H   UNL     1      45.108   1.713  11.207  0.00  0.00    +0.000 HD
BRANCH  19  22
ATOM     22  C   UNL     1      45.462   2.053   8.664  0.00  0.00    +0.000 A 
ATOM     23  C   UNL     1      45.387   0.667   8.710  0.00  0.00    +0.000 A 
ATOM     24  S   UNL     1      46.410  -0.113   7.591  0.00  0.00    +0.000 S 
ATOM     25  C   UNL     1      47.023   1.371   7.036  0.00  0.00    +0.000 A 
ATOM     26  N   UNL     1      47.978   1.411   6.066  0.00  0.00    +0.000 NA
ATOM     27  C   UNL     1      48.380   2.600   5.762  0.00  0.00    +0.000 A 
ATOM     28  N   UNL     1      47.906   3.753   6.333  0.00  0.00    +0.000 N 
ATOM     29  C   UNL     1      46.910   3.764   7.280  0.00  0.00    +0.000 A 
ATOM     30  O   UNL     1      46.454   4.817   7.714  0.00  0.00    +0.000 OA
ATOM     31  C   UNL     1      46.441   2.447   7.680  0.00  0.00    +0.000 A 
ATOM     32  H   UNL     1      48.251   4.654   6.036  0.00  0.00    +0.000 HD
ENDBRANCH  19  22
ENDBRANCH  17  18
ENDBRANCH   4  17
TORSDOF 6
ENDMDL
MODEL 7
REMARK VINA RESULT:    -6.613      3.179      5.138
REMARK INTER + INTRA:         -10.146
REMARK INTER:                  -9.080
REMARK INTRA:                  -1.066
REMARK UNBOUND:                -1.213
REMARK  Name = 
REMARK  7 active torsions:
REMARK  status: ('A' for Active; 'I' for Inactive)
REMARK    1  A    between atoms: C_1  and  C_2
REMARK    2  A    between atoms: C_2  and  C_3
REMARK    3  A    between atoms: C_6  and  C_7
REMARK    4  A    between atoms: C_7  and  C_8
REMARK    5  A    between atoms: C_11  and  C_12
REMARK    6  A    between atoms: C_12  and  N_13
REMARK    7  A    between atoms: C_14  and  C_16
REMARK                            x       y       z     vdW  Elec       q    Type
REMARK                         _______ _______ _______ _____ _____    ______ ____
ROOT
ATOM      1  C   UNL     1      49.890   5.509  19.506  0.00  0.00    +0.000 A 
ATOM      2  C   UNL     1      50.393   4.556  18.609  0.00  0.00    +0.000 A 
ATOM      3  C   UNL     1      49.551   3.924  17.690  0.00  0.00    +0.000 A 
ATOM      4  C   UNL     1      48.181   4.211  17.669  0.00  0.00    +0.000 A 
ATOM      5  C   UNL     1      47.685   5.147  18.580  0.00  0.00    +0.000 A 
ATOM      6  F   UNL     1      46.374   5.436  18.591  0.00  0.00    +0.000 F 
ATOM      7  C   UNL     1      48.521   5.797  19.486  0.00  0.00    +0.000 A 
ENDROOT
BRANCH   1   8
ATOM      8  C   UNL     1      50.821   6.226  20.451  0.00  0.00    +0.000 C 
BRANCH   8  12
ATOM      9  C   UNL     1      50.005  10.216  18.776  0.00  0.00    +0.000 C 
ATOM     10  C   UNL     1      50.027  10.066  20.302  0.00  0.00    +0.000 C 
ATOM     11  C   UNL     1      49.917   8.609  20.744  0.00  0.00    +0.000 C 
ATOM     12  C   UNL     1      51.024   7.726  20.136  0.00  0.00    +0.000 C 
ATOM     13  C   UNL     1      51.112   7.914  18.609  0.00  0.00    +0.000 C 
ATOM     14  C   UNL     1      51.151   9.382  18.181  0.00  0.00    +0.000 C 
BRANCH   9  16
ATOM     15  C   UNL     1      47.553  10.874  18.400  0.00  0.00    +0.000 C 
ATOM     16  C   UNL     1      48.649   9.850  18.136  0.00  0.00    +0.000 C 
ENDBRANCH   9  16
ENDBRANCH   8  12
ENDBRANCH   1   8
BRANCH   4  17
ATOM     17  C   UNL     1      47.276   3.552  16.671  0.00  0.00    +0.000 C 
BRANCH  17  18
ATOM     18  N   UNL     1      46.778   4.496  15.699  0.00  0.00    +0.000 N 
ATOM     19  C   UNL     1      46.788   4.243  14.352  0.00  0.00    +0.000 C 
ATOM     20  O   UNL     1      47.226   3.194  13.888  0.00  0.00    +0.000 OA
ATOM     21  H   UNL     1      46.595   5.437  16.034  0.00  0.00    +0.000 HD
BRANCH  19  22
ATOM     22  C   UNL     1      46.176   5.259  13.484  0.00  0.00    +0.000 A 
ATOM     23  C   UNL     1      46.872   6.429  13.213  0.00  0.00    +0.000 A 
ATOM     24  S   UNL     1      46.054   7.487  12.155  0.00  0.00    +0.000 S 
ATOM     25  C   UNL     1      44.719   6.439  12.057  0.00  0.00    +0.000 A 
ATOM     26  N   UNL     1      43.630   6.768  11.308  0.00  0.00    +0.000 NA
ATOM     27  C   UNL     1      42.674   5.901  11.348  0.00  0.00    +0.000 A 
ATOM     28  N   UNL     1      42.712   4.730  12.061  0.00  0.00    +0.000 N 
ATOM     29  C   UNL     1      43.808   4.335  12.792  0.00  0.00    +0.000 A 
ATOM     30  O   UNL     1      43.840   3.246  13.355  0.00  0.00    +0.000 OA
ATOM     31  C   UNL     1      44.904   5.291  12.803  0.00  0.00    +0.000 A 
ATOM     32  H   UNL     1      41.936   4.086  12.035  0.00  0.00    +0.000 HD
ENDBRANCH  19  22
ENDBRANCH  17  18
ENDBRANCH   4  17
TORSDOF 6
ENDMDL
MODEL 8
REMARK VINA RESULT:    -6.393      3.854      8.672
REMARK INTER + INTRA:          -9.848
REMARK INTER:                  -8.682
REMARK INTRA:                  -1.166
REMARK UNBOUND:                -1.213
REMARK  Name = 
REMARK  7 active torsions:
REMARK  status: ('A' for Active; 'I' for Inactive)
REMARK    1  A    between atoms: C_1  and  C_2
REMARK    2  A    between atoms: C_2  and  C_3
REMARK    3  A    between atoms: C_6  and  C_7
REMARK    4  A    between atoms: C_7  and  C_8
REMARK    5  A    between atoms: C_11  and  C_12
REMARK    6  A    between atoms: C_12  and  N_13
REMARK    7  A    between atoms: C_14  and  C_16
REMARK                            x       y       z     vdW  Elec       q    Type
REMARK                         _______ _______ _______ _____ _____    ______ ____
ROOT
ATOM      1  C   UNL     1      44.960   5.133  11.882  0.00  0.00    +0.000 A 
ATOM      2  C   UNL     1      45.328   4.610  13.131  0.00  0.00    +0.000 A 
ATOM      3  C   UNL     1      46.490   5.042  13.773  0.00  0.00    +0.000 A 
ATOM      4  C   UNL     1      47.327   5.986  13.166  0.00  0.00    +0.000 A 
ATOM      5  C   UNL     1      46.964   6.487  11.913  0.00  0.00    +0.000 A 
ATOM      6  F   UNL     1      47.752   7.385  11.301  0.00  0.00    +0.000 F 
ATOM      7  C   UNL     1      45.795   6.076  11.275  0.00  0.00    +0.000 A 
ENDROOT
BRANCH   1   8
ATOM      8  C   UNL     1      43.672   4.701  11.229  0.00  0.00    +0.000 C 
BRANCH   8  12
ATOM      9  C   UNL     1      45.550   2.644   7.819  0.00  0.00    +0.000 C 
ATOM     10  C   UNL     1      45.310   1.839   9.102  0.00  0.00    +0.000 C 
ATOM     11  C   UNL     1      45.039   2.735  10.307  0.00  0.00    +0.000 C 
ATOM     12  C   UNL     1      43.846   3.683  10.078  0.00  0.00    +0.000 C 
ATOM     13  C   UNL     1      43.989   4.448   8.747  0.00  0.00    +0.000 C 
ATOM     14  C   UNL     1      44.329   3.542   7.563  0.00  0.00    +0.000 C 
BRANCH   9  16
ATOM     15  C   UNL     1      47.904   2.959   6.849  0.00  0.00    +0.000 C 
ATOM     16  C   UNL     1      46.858   3.462   7.835  0.00  0.00    +0.000 C 
ENDBRANCH   9  16
ENDBRANCH   8  12
ENDBRANCH   1   8
BRANCH   4  17
ATOM     17  C   UNL     1      48.566   6.470  13.860  0.00  0.00    +0.000 C 
BRANCH  17  18
ATOM     18  N   UNL     1      48.428   6.414  15.296  0.00  0.00    +0.000 N 
ATOM     19  C   UNL     1      48.866   7.419  16.119  0.00  0.00    +0.000 C 
ATOM     20  O   UNL     1      49.408   8.431  15.682  0.00  0.00    +0.000 OA
ATOM     21  H   UNL     1      48.166   5.516  15.692  0.00  0.00    +0.000 HD
BRANCH  19  22
ATOM     22  C   UNL     1      48.587   7.266  17.554  0.00  0.00    +0.000 A 
ATOM     23  C   UNL     1      48.110   8.354  18.272  0.00  0.00    +0.000 A 
ATOM     24  S   UNL     1      47.790   8.009  19.911  0.00  0.00    +0.000 S 
ATOM     25  C   UNL     1      48.320   6.405  19.731  0.00  0.00    +0.000 A 
ATOM     26  N   UNL     1      48.325   5.550  20.791  0.00  0.00    +0.000 NA
ATOM     27  C   UNL     1      48.785   4.373  20.525  0.00  0.00    +0.000 A 
ATOM     28  N   UNL     1      49.230   3.969  19.292  0.00  0.00    +0.000 N 
ATOM     29  C   UNL     1      49.199   4.783  18.183  0.00  0.00    +0.000 A 
ATOM     30  O   UNL     1      49.531   4.367  17.078  0.00  0.00    +0.000 OA
ATOM     31  C   UNL     1      48.716   6.130  18.435  0.00  0.00    +0.000 A 
ATOM     32  H   UNL     1      49.560   3.027  19.146  0.00  0.00    +0.000 HD
ENDBRANCH  19  22
ENDBRANCH  17  18
ENDBRANCH   4  17
TORSDOF 6
ENDMDL
MODEL 9
REMARK VINA RESULT:    -6.246      4.674      8.316
REMARK INTER + INTRA:          -9.649
REMARK INTER:                  -8.624
REMARK INTRA:                  -1.026
REMARK UNBOUND:                -1.213
REMARK  Name = 
REMARK  7 active torsions:
REMARK  status: ('A' for Active; 'I' for Inactive)
REMARK    1  A    between atoms: C_1  and  C_2
REMARK    2  A    between atoms: C_2  and  C_3
REMARK    3  A    between atoms: C_6  and  C_7
REMARK    4  A    between atoms: C_7  and  C_8
REMARK    5  A    between atoms: C_11  and  C_12
REMARK    6  A    between atoms: C_12  and  N_13
REMARK    7  A    between atoms: C_14  and  C_16
REMARK                            x       y       z     vdW  Elec       q    Type
REMARK                         _______ _______ _______ _____ _____    ______ ____
ROOT
ATOM      1  C   UNL     1      47.424   7.317  13.466  0.00  0.00    +0.000 A 
ATOM      2  C   UNL     1      47.928   6.202  14.152  0.00  0.00    +0.000 A 
ATOM      3  C   UNL     1      48.620   6.355  15.355  0.00  0.00    +0.000 A 
ATOM      4  C   UNL     1      48.850   7.630  15.884  0.00  0.00    +0.000 A 
ATOM      5  C   UNL     1      48.363   8.737  15.184  0.00  0.00    +0.000 A 
ATOM      6  F   UNL     1      48.576   9.974  15.661  0.00  0.00    +0.000 F 
ATOM      7  C   UNL     1      47.653   8.592  13.994  0.00  0.00    +0.000 A 
ENDROOT
BRANCH   1   8
ATOM      8  C   UNL     1      46.628   7.131  12.199  0.00  0.00    +0.000 C 
BRANCH   8  12
ATOM      9  C   UNL     1      43.580   4.170  11.045  0.00  0.00    +0.000 C 
ATOM     10  C   UNL     1      44.589   3.779  12.131  0.00  0.00    +0.000 C 
ATOM     11  C   UNL     1      45.805   4.702  12.154  0.00  0.00    +0.000 C 
ATOM     12  C   UNL     1      45.416   6.181  12.338  0.00  0.00    +0.000 C 
ATOM     13  C   UNL     1      44.327   6.602  11.331  0.00  0.00    +0.000 C 
ATOM     14  C   UNL     1      43.149   5.628  11.272  0.00  0.00    +0.000 C 
BRANCH   9  16
ATOM     15  C   UNL     1      44.687   2.568   9.374  0.00  0.00    +0.000 C 
ATOM     16  C   UNL     1      44.099   3.953   9.608  0.00  0.00    +0.000 C 
ENDBRANCH   9  16
ENDBRANCH   8  12
ENDBRANCH   1   8
BRANCH   4  17
ATOM     17  C   UNL     1      49.574   7.800  17.187  0.00  0.00    +0.000 C 
BRANCH  17  18
ATOM     18  N   UNL     1      50.508   6.724  17.422  0.00  0.00    +0.000 N 
ATOM     19  C   UNL     1      50.668   6.141  18.652  0.00  0.00    +0.000 C 
ATOM     20  O   UNL     1      50.026   6.504  19.635  0.00  0.00    +0.000 OA
ATOM     21  H   UNL     1      51.182   6.540  16.685  0.00  0.00    +0.000 HD
BRANCH  19  22
ATOM     22  C   UNL     1      51.594   5.002  18.728  0.00  0.00    +0.000 A 
ATOM     23  C   UNL     1      52.790   5.145  19.418  0.00  0.00    +0.000 A 
ATOM     24  S   UNL     1      53.734   3.726  19.458  0.00  0.00    +0.000 S 
ATOM     25  C   UNL     1      52.598   2.882  18.517  0.00  0.00    +0.000 A 
ATOM     26  N   UNL     1      52.815   1.585  18.162  0.00  0.00    +0.000 NA
ATOM     27  C   UNL     1      51.891   1.074  17.419  0.00  0.00    +0.000 A 
ATOM     28  N   UNL     1      50.765   1.739  17.006  0.00  0.00    +0.000 N 
ATOM     29  C   UNL     1      50.482   3.032  17.378  0.00  0.00    +0.000 A 
ATOM     30  O   UNL     1      49.429   3.573  17.056  0.00  0.00    +0.000 OA
ATOM     31  C   UNL     1      51.506   3.664  18.194  0.00  0.00    +0.000 A 
ATOM     32  H   UNL     1      50.071   1.275  16.439  0.00  0.00    +0.000 HD
ENDBRANCH  19  22
ENDBRANCH  17  18
ENDBRANCH   4  17
TORSDOF 6
ENDMDL
