MODEL 1
REMARK VINA RESULT:    -7.831      0.000      0.000
REMARK INTER + INTRA:         -12.236
REMARK INTER:                 -11.035
REMARK INTRA:                  -1.201
REMARK UNBOUND:                -1.201
REMARK  Name = 
REMARK  7 active torsions:
REMARK  status: ('A' for Active; 'I' for Inactive)
REMARK    1  A    between atoms: C_2  and  C_20
REMARK    2  A    between atoms: N_3  and  C_4
REMARK    3  A    between atoms: C_4  and  C_5
REMARK    4  A    between atoms: C_8  and  C_9
REMARK    5  A    between atoms: C_9  and  N_10
REMARK    6  A    between atoms: N_10  and  C_11
REMARK    7  A    between atoms: C_11  and  C_12
REMARK                            x       y       z     vdW  Elec       q    Type
REMARK                         _______ _______ _______ _____ _____    ______ ____
ROOT
ATOM      1  C   UNL     1      46.347   6.030  12.437  0.00  0.00    +0.000 A 
ATOM      2  C   UNL     1      45.664   6.358  11.262  0.00  0.00    +0.000 A 
ATOM      3  C   UNL     1      44.841   5.424  10.634  0.00  0.00    +0.000 A 
ATOM      4  C   UNL     1      44.694   4.130  11.154  0.00  0.00    +0.000 A 
ATOM      5  C   UNL     1      45.340   3.818  12.358  0.00  0.00    +0.000 A 
ATOM      6  C   UNL     1      46.157   4.759  12.996  0.00  0.00    +0.000 A 
ENDROOT
BRANCH   1   7
ATOM      7  C   UNL     1      47.227   7.053  13.105  0.00  0.00    +0.000 C 
BRANCH   7  10
ATOM      8  O   UNL     1      49.793   6.996  14.265  0.00  0.00    +0.000 OA
ATOM      9  C   UNL     1      48.818   6.720  14.960  0.00  0.00    +0.000 C 
ATOM     10  N   UNL     1      47.545   6.658  14.455  0.00  0.00    +0.000 N 
ATOM     11  H   UNL     1      46.763   6.622  15.097  0.00  0.00    +0.000 HD
BRANCH   9  12
ATOM     12  C   UNL     1      48.964   6.378  16.379  0.00  0.00    +0.000 A 
ATOM     13  C   UNL     1      49.423   7.334  17.274  0.00  0.00    +0.000 A 
ATOM     14  S   UNL     1      49.565   6.760  18.874  0.00  0.00    +0.000 S 
ATOM     15  C   UNL     1      48.965   5.229  18.436  0.00  0.00    +0.000 A 
ATOM     16  N   UNL     1      48.802   4.249  19.366  0.00  0.00    +0.000 NA
ATOM     17  C   UNL     1      48.288   3.157  18.906  0.00  0.00    +0.000 A 
ATOM     18  N   UNL     1      47.933   2.952  17.598  0.00  0.00    +0.000 N 
ATOM     19  C   UNL     1      48.159   3.881  16.611  0.00  0.00    +0.000 A 
ATOM     20  O   UNL     1      47.964   3.608  15.431  0.00  0.00    +0.000 OA
ATOM     21  C   UNL     1      48.686   5.148  17.082  0.00  0.00    +0.000 A 
ATOM     22  H   UNL     1      47.565   2.062  17.295  0.00  0.00    +0.000 HD
ENDBRANCH   9  12
ENDBRANCH   7  10
ENDBRANCH   1   7
BRANCH   4  23
ATOM     23  C   UNL     1      43.803   3.109  10.477  0.00  0.00    +0.000 C 
BRANCH  23  24
ATOM     24  N   UNL     1      44.582   2.059   9.813  0.00  0.00    +0.000 NA
ATOM     25  H   UNL     1      44.081   1.176   9.902  0.00  0.00    +0.000 HD
BRANCH  24  26
ATOM     26  C   UNL     1      44.845   2.369   8.411  0.00  0.00    +0.000 C 
BRANCH  26  27
ATOM     27  C   UNL     1      46.338   2.655   8.185  0.00  0.00    +0.000 C 
ATOM     28  C   UNL     1      46.624   4.065   7.662  0.00  0.00    +0.000 C 
ATOM     29  N   UNL     1      46.751   4.002   6.192  0.00  0.00    +0.000 NA
ATOM     30  C   UNL     1      46.624   2.586   5.812  0.00  0.00    +0.000 C 
ATOM     31  C   UNL     1      46.899   1.785   7.073  0.00  0.00    +0.000 C 
ATOM     32  F   UNL     1      48.250   1.685   7.236  0.00  0.00    +0.000 F 
ATOM     33  H   UNL     1      47.692   4.319   5.948  0.00  0.00    +0.000 HD
ENDBRANCH  26  27
ENDBRANCH  24  26
ENDBRANCH  23  24
ENDBRANCH   4  23
TORSDOF 7
ENDMDL
MODEL 2
REMARK VINA RESULT:    -7.319      3.079      3.805
REMARK INTER + INTRA:         -11.516
REMARK INTER:                  -9.516
REMARK INTRA:                  -2.000
REMARK UNBOUND:                -1.201
REMARK  Name = 
REMARK  7 active torsions:
REMARK  status: ('A' for Active; 'I' for Inactive)
REMARK    1  A    between atoms: C_2  and  C_20
REMARK    2  A    between atoms: N_3  and  C_4
REMARK    3  A    between atoms: C_4  and  C_5
REMARK    4  A    between atoms: C_8  and  C_9
REMARK    5  A    between atoms: C_9  and  N_10
REMARK    6  A    between atoms: N_10  and  C_11
REMARK    7  A    between atoms: C_11  and  C_12
REMARK                            x       y       z     vdW  Elec       q    Type
REMARK                         _______ _______ _______ _____ _____    ______ ____
ROOT
ATOM      1  C   UNL     1      48.043   7.938  13.028  0.00  0.00    +0.000 A 
ATOM      2  C   UNL     1      47.059   8.887  13.320  0.00  0.00    +0.000 A 
ATOM      3  C   UNL     1      45.804   8.816  12.716  0.00  0.00    +0.000 A 
ATOM      4  C   UNL     1      45.506   7.806  11.790  0.00  0.00    +0.000 A 
ATOM      5  C   UNL     1      46.477   6.828  11.535  0.00  0.00    +0.000 A 
ATOM      6  C   UNL     1      47.734   6.891  12.150  0.00  0.00    +0.000 A 
ENDROOT
BRANCH   1   7
ATOM      7  C   UNL     1      49.391   8.025  13.694  0.00  0.00    +0.000 C 
BRANCH   7  10
ATOM      8  O   UNL     1      48.797   8.594  16.388  0.00  0.00    +0.000 OA
ATOM      9  C   UNL     1      49.112   7.449  16.075  0.00  0.00    +0.000 C 
ATOM     10  N   UNL     1      49.482   7.106  14.801  0.00  0.00    +0.000 N 
ATOM     11  H   UNL     1      49.540   6.126  14.553  0.00  0.00    +0.000 HD
BRANCH   9  12
ATOM     12  C   UNL     1      49.170   6.373  17.072  0.00  0.00    +0.000 A 
ATOM     13  C   UNL     1      49.959   6.525  18.204  0.00  0.00    +0.000 A 
ATOM     14  S   UNL     1      49.937   5.169  19.239  0.00  0.00    +0.000 S 
ATOM     15  C   UNL     1      48.829   4.354  18.237  0.00  0.00    +0.000 A 
ATOM     16  N   UNL     1      48.361   3.121  18.571  0.00  0.00    +0.000 NA
ATOM     17  C   UNL     1      47.485   2.643  17.750  0.00  0.00    +0.000 A 
ATOM     18  N   UNL     1      47.044   3.281  16.620  0.00  0.00    +0.000 N 
ATOM     19  C   UNL     1      47.551   4.487  16.201  0.00  0.00    +0.000 A 
ATOM     20  O   UNL     1      47.240   4.959  15.111  0.00  0.00    +0.000 OA
ATOM     21  C   UNL     1      48.501   5.095  17.115  0.00  0.00    +0.000 A 
ATOM     22  H   UNL     1      46.380   2.839  16.001  0.00  0.00    +0.000 HD
ENDBRANCH   9  12
ENDBRANCH   7  10
ENDBRANCH   1   7
BRANCH   4  23
ATOM     23  C   UNL     1      44.146   7.724  11.129  0.00  0.00    +0.000 C 
BRANCH  23  24
ATOM     24  N   UNL     1      43.263   6.774  11.814  0.00  0.00    +0.000 NA
ATOM     25  H   UNL     1      42.399   7.254  12.063  0.00  0.00    +0.000 HD
BRANCH  24  26
ATOM     26  C   UNL     1      42.988   5.592  11.003  0.00  0.00    +0.000 C 
BRANCH  26  27
ATOM     27  C   UNL     1      42.855   4.341  11.887  0.00  0.00    +0.000 C 
ATOM     28  C   UNL     1      43.416   4.523  13.301  0.00  0.00    +0.000 C 
ATOM     29  N   UNL     1      44.794   3.993  13.328  0.00  0.00    +0.000 NA
ATOM     30  C   UNL     1      45.062   3.429  11.996  0.00  0.00    +0.000 C 
ATOM     31  C   UNL     1      43.704   3.201  11.353  0.00  0.00    +0.000 C 
ATOM     32  F   UNL     1      43.198   2.023  11.819  0.00  0.00    +0.000 F 
ATOM     33  H   UNL     1      44.820   3.233  14.012  0.00  0.00    +0.000 HD
ENDBRANCH  26  27
ENDBRANCH  24  26
ENDBRANCH  23  24
ENDBRANCH   4  23
TORSDOF 7
ENDMDL
MODEL 3
REMARK VINA RESULT:    -6.739      4.030      7.814
REMARK INTER + INTRA:         -10.697
REMARK INTER:                  -9.344
REMARK INTRA:                  -1.353
REMARK UNBOUND:                -1.201
REMARK  Name = 
REMARK  7 active torsions:
REMARK  status: ('A' for Active; 'I' for Inactive)
REMARK    1  A    between atoms: C_2  and  C_20
REMARK    2  A    between atoms: N_3  and  C_4
REMARK    3  A    between atoms: C_4  and  C_5
REMARK    4  A    between atoms: C_8  and  C_9
REMARK    5  A    between atoms: C_9  and  N_10
REMARK    6  A    between atoms: N_10  and  C_11
REMARK    7  A    between atoms: C_11  and  C_12
REMARK                            x       y       z     vdW  Elec       q    Type
REMARK                         _______ _______ _______ _____ _____    ______ ____
ROOT
ATOM      1  C   UNL     1      48.434   8.258  15.113  0.00  0.00    +0.000 A 
ATOM      2  C   UNL     1      48.140   8.719  16.400  0.00  0.00    +0.000 A 
ATOM      3  C   UNL     1      48.678   8.087  17.521  0.00  0.00    +0.000 A 
ATOM      4  C   UNL     1      49.508   6.965  17.385  0.00  0.00    +0.000 A 
ATOM      5  C   UNL     1      49.842   6.534  16.094  0.00  0.00    +0.000 A 
ATOM      6  C   UNL     1      49.312   7.175  14.967  0.00  0.00    +0.000 A 
ENDROOT
BRANCH   1   7
ATOM      7  C   UNL     1      47.850   8.956  13.914  0.00  0.00    +0.000 C 
BRANCH   7  10
ATOM      8  O   UNL     1      47.741   7.112  11.787  0.00  0.00    +0.000 OA
ATOM      9  C   UNL     1      46.721   7.339  12.433  0.00  0.00    +0.000 C 
ATOM     10  N   UNL     1      46.675   8.271  13.437  0.00  0.00    +0.000 N 
ATOM     11  H   UNL     1      45.879   8.280  14.062  0.00  0.00    +0.000 HD
BRANCH   9  12
ATOM     12  C   UNL     1      45.457   6.658  12.129  0.00  0.00    +0.000 A 
ATOM     13  C   UNL     1      44.393   7.382  11.608  0.00  0.00    +0.000 A 
ATOM     14  S   UNL     1      42.993   6.444  11.345  0.00  0.00    +0.000 S 
ATOM     15  C   UNL     1      43.777   5.027  11.868  0.00  0.00    +0.000 A 
ATOM     16  N   UNL     1      43.132   3.829  11.865  0.00  0.00    +0.000 NA
ATOM     17  C   UNL     1      43.862   2.830  12.234  0.00  0.00    +0.000 A 
ATOM     18  N   UNL     1      45.175   2.921  12.617  0.00  0.00    +0.000 N 
ATOM     19  C   UNL     1      45.839   4.120  12.717  0.00  0.00    +0.000 A 
ATOM     20  O   UNL     1      46.965   4.180  13.202  0.00  0.00    +0.000 OA
ATOM     21  C   UNL     1      45.082   5.271  12.263  0.00  0.00    +0.000 A 
ATOM     22  H   UNL     1      45.682   2.105  12.926  0.00  0.00    +0.000 HD
ENDBRANCH   9  12
ENDBRANCH   7  10
ENDBRANCH   1   7
BRANCH   4  23
ATOM     23  C   UNL     1      50.095   6.273  18.598  0.00  0.00    +0.000 C 
BRANCH  23  24
ATOM     24  N   UNL     1      49.438   4.989  18.865  0.00  0.00    +0.000 NA
ATOM     25  H   UNL     1      48.445   5.081  18.652  0.00  0.00    +0.000 HD
BRANCH  24  26
ATOM     26  C   UNL     1      50.034   3.894  18.108  0.00  0.00    +0.000 C 
BRANCH  26  27
ATOM     27  C   UNL     1      49.000   2.789  17.838  0.00  0.00    +0.000 C 
ATOM     28  C   UNL     1      49.166   2.108  16.476  0.00  0.00    +0.000 C 
ATOM     29  N   UNL     1      48.244   2.749  15.517  0.00  0.00    +0.000 NA
ATOM     30  C   UNL     1      47.471   3.749  16.271  0.00  0.00    +0.000 C 
ATOM     31  C   UNL     1      47.599   3.365  17.735  0.00  0.00    +0.000 C 
ATOM     32  F   UNL     1      46.698   2.375  18.003  0.00  0.00    +0.000 F 
ATOM     33  H   UNL     1      47.601   2.030  15.178  0.00  0.00    +0.000 HD
ENDBRANCH  26  27
ENDBRANCH  24  26
ENDBRANCH  23  24
ENDBRANCH   4  23
TORSDOF 7
ENDMDL
MODEL 4
REMARK VINA RESULT:    -6.680      2.125      2.748
REMARK INTER + INTRA:         -10.615
REMARK INTER:                  -9.411
REMARK INTRA:                  -1.204
REMARK UNBOUND:                -1.201
REMARK  Name = 
REMARK  7 active torsions:
REMARK  status: ('A' for Active; 'I' for Inactive)
REMARK    1  A    between atoms: C_2  and  C_20
REMARK    2  A    between atoms: N_3  and  C_4
REMARK    3  A    between atoms: C_4  and  C_5
REMARK    4  A    between atoms: C_8  and  C_9
REMARK    5  A    between atoms: C_9  and  N_10
REMARK    6  A    between atoms: N_10  and  C_11
REMARK    7  A    between atoms: C_11  and  C_12
REMARK                            x       y       z     vdW  Elec       q    Type
REMARK                         _______ _______ _______ _____ _____    ______ ____
ROOT
ATOM      1  C   UNL     1      47.204   7.200  13.013  0.00  0.00    +0.000 A 
ATOM      2  C   UNL     1      47.267   5.866  13.428  0.00  0.00    +0.000 A 
ATOM      3  C   UNL     1      46.119   5.075  13.451  0.00  0.00    +0.000 A 
ATOM      4  C   UNL     1      44.874   5.601  13.079  0.00  0.00    +0.000 A 
ATOM      5  C   UNL     1      44.820   6.923  12.616  0.00  0.00    +0.000 A 
ATOM      6  C   UNL     1      45.974   7.716  12.581  0.00  0.00    +0.000 A 
ENDROOT
BRANCH   1   7
ATOM      7  C   UNL     1      48.454   8.039  12.987  0.00  0.00    +0.000 C 
BRANCH   7  10
ATOM      8  O   UNL     1      49.192   8.820  15.591  0.00  0.00    +0.000 OA
ATOM      9  C   UNL     1      49.744   7.849  15.080  0.00  0.00    +0.000 C 
ATOM     10  N   UNL     1      49.491   7.446  13.795  0.00  0.00    +0.000 N 
ATOM     11  H   UNL     1      49.817   6.537  13.491  0.00  0.00    +0.000 HD
BRANCH   9  12
ATOM     12  C   UNL     1      50.765   7.082  15.804  0.00  0.00    +0.000 A 
ATOM     13  C   UNL     1      52.102   7.440  15.694  0.00  0.00    +0.000 A 
ATOM     14  S   UNL     1      53.155   6.425  16.572  0.00  0.00    +0.000 S 
ATOM     15  C   UNL     1      51.856   5.505  17.172  0.00  0.00    +0.000 A 
ATOM     16  N   UNL     1      52.070   4.469  18.029  0.00  0.00    +0.000 NA
ATOM     17  C   UNL     1      50.993   3.893  18.448  0.00  0.00    +0.000 A 
ATOM     18  N   UNL     1      49.722   4.250  18.079  0.00  0.00    +0.000 N 
ATOM     19  C   UNL     1      49.464   5.231  17.152  0.00  0.00    +0.000 A 
ATOM     20  O   UNL     1      48.326   5.425  16.737  0.00  0.00    +0.000 OA
ATOM     21  C   UNL     1      50.637   5.949  16.689  0.00  0.00    +0.000 A 
ATOM     22  H   UNL     1      48.921   3.738  18.418  0.00  0.00    +0.000 HD
ENDBRANCH   9  12
ENDBRANCH   7  10
ENDBRANCH   1   7
BRANCH   4  23
ATOM     23  C   UNL     1      43.623   4.748  13.103  0.00  0.00    +0.000 C 
BRANCH  23  24
ATOM     24  N   UNL     1      43.881   3.386  12.623  0.00  0.00    +0.000 NA
ATOM     25  H   UNL     1      43.291   2.739  13.146  0.00  0.00    +0.000 HD
BRANCH  24  26
ATOM     26  C   UNL     1      43.654   3.253  11.187  0.00  0.00    +0.000 C 
BRANCH  26  27
ATOM     27  C   UNL     1      44.989   3.154  10.430  0.00  0.00    +0.000 C 
ATOM     28  C   UNL     1      45.465   4.486   9.842  0.00  0.00    +0.000 C 
ATOM     29  N   UNL     1      45.044   4.550   8.428  0.00  0.00    +0.000 NA
ATOM     30  C   UNL     1      44.392   3.268   8.118  0.00  0.00    +0.000 C 
ATOM     31  C   UNL     1      44.849   2.292   9.188  0.00  0.00    +0.000 C 
ATOM     32  F   UNL     1      46.082   1.819   8.843  0.00  0.00    +0.000 F 
ATOM     33  H   UNL     1      45.889   4.630   7.857  0.00  0.00    +0.000 HD
ENDBRANCH  26  27
ENDBRANCH  24  26
ENDBRANCH  23  24
ENDBRANCH   4  23
TORSDOF 7
ENDMDL
MODEL 5
REMARK VINA RESULT:    -6.651      3.425      4.942
REMARK INTER + INTRA:         -10.574
REMARK INTER:                  -9.323
REMARK INTRA:                  -1.251
REMARK UNBOUND:                -1.201
REMARK  Name = 
REMARK  7 active torsions:
REMARK  status: ('A' for Active; 'I' for Inactive)
REMARK    1  A    between atoms: C_2  and  C_20
REMARK    2  A    between atoms: N_3  and  C_4
REMARK    3  A    between atoms: C_4  and  C_5
REMARK    4  A    between atoms: C_8  and  C_9
REMARK    5  A    between atoms: C_9  and  N_10
REMARK    6  A    between atoms: N_10  and  C_11
REMARK    7  A    between atoms: C_11  and  C_12
REMARK                            x       y       z     vdW  Elec       q    Type
REMARK                         _______ _______ _______ _____ _____    ______ ____
ROOT
ATOM      1  C   UNL     1      48.799   5.907  16.433  0.00  0.00    +0.000 A 
ATOM      2  C   UNL     1      48.659   6.512  15.181  0.00  0.00    +0.000 A 
ATOM      3  C   UNL     1      47.780   5.989  14.234  0.00  0.00    +0.000 A 
ATOM      4  C   UNL     1      47.031   4.835  14.507  0.00  0.00    +0.000 A 
ATOM      5  C   UNL     1      47.136   4.258  15.781  0.00  0.00    +0.000 A 
ATOM      6  C   UNL     1      48.009   4.790  16.737  0.00  0.00    +0.000 A 
ENDROOT
BRANCH   1   7
ATOM      7  C   UNL     1      49.748   6.490  17.447  0.00  0.00    +0.000 C 
BRANCH   7  10
ATOM      8  O   UNL     1      50.378   5.238  19.890  0.00  0.00    +0.000 OA
ATOM      9  C   UNL     1      51.055   4.982  18.897  0.00  0.00    +0.000 C 
ATOM     10  N   UNL     1      50.856   5.600  17.690  0.00  0.00    +0.000 N 
ATOM     11  H   UNL     1      51.301   5.218  16.864  0.00  0.00    +0.000 HD
BRANCH   9  12
ATOM     12  C   UNL     1      52.170   4.030  18.957  0.00  0.00    +0.000 A 
ATOM     13  C   UNL     1      53.263   4.299  19.768  0.00  0.00    +0.000 A 
ATOM     14  S   UNL     1      54.480   3.107  19.692  0.00  0.00    +0.000 S 
ATOM     15  C   UNL     1      53.564   2.162  18.614  0.00  0.00    +0.000 A 
ATOM     16  N   UNL     1      54.028   0.964  18.165  0.00  0.00    +0.000 NA
ATOM     17  C   UNL     1      53.208   0.329  17.396  0.00  0.00    +0.000 A 
ATOM     18  N   UNL     1      51.970   0.787  17.026  0.00  0.00    +0.000 N 
ATOM     19  C   UNL     1      51.497   2.025  17.386  0.00  0.00    +0.000 A 
ATOM     20  O   UNL     1      50.450   2.462  16.919  0.00  0.00    +0.000 OA
ATOM     21  C   UNL     1      52.357   2.761  18.295  0.00  0.00    +0.000 A 
ATOM     22  H   UNL     1      51.388   0.255  16.396  0.00  0.00    +0.000 HD
ENDBRANCH   9  12
ENDBRANCH   7  10
ENDBRANCH   1   7
BRANCH   4  23
ATOM     23  C   UNL     1      46.075   4.259  13.483  0.00  0.00    +0.000 C 
BRANCH  23  24
ATOM     24  N   UNL     1      45.138   5.270  12.982  0.00  0.00    +0.000 NA
ATOM     25  H   UNL     1      45.155   6.071  13.612  0.00  0.00    +0.000 HD
BRANCH  24  26
ATOM     26  C   UNL     1      45.445   5.678  11.614  0.00  0.00    +0.000 C 
BRANCH  26  27
ATOM     27  C   UNL     1      44.256   5.396  10.680  0.00  0.00    +0.000 C 
ATOM     28  C   UNL     1      43.004   4.900  11.409  0.00  0.00    +0.000 C 
ATOM     29  N   UNL     1      42.980   3.425  11.345  0.00  0.00    +0.000 NA
ATOM     30  C   UNL     1      44.139   3.013  10.538  0.00  0.00    +0.000 C 
ATOM     31  C   UNL     1      44.558   4.239   9.745  0.00  0.00    +0.000 C 
ATOM     32  F   UNL     1      43.752   4.341   8.648  0.00  0.00    +0.000 F 
ATOM     33  H   UNL     1      42.127   3.150  10.851  0.00  0.00    +0.000 HD
ENDBRANCH  26  27
ENDBRANCH  24  26
ENDBRANCH  23  24
ENDBRANCH   4  23
TORSDOF 7
ENDMDL
MODEL 6
REMARK VINA RESULT:    -6.415      4.694      9.374
REMARK INTER + INTRA:         -10.241
REMARK INTER:                  -9.036
REMARK INTRA:                  -1.206
REMARK UNBOUND:                -1.201
REMARK  Name = 
REMARK  7 active torsions:
REMARK  status: ('A' for Active; 'I' for Inactive)
REMARK    1  A    between atoms: C_2  and  C_20
REMARK    2  A    between atoms: N_3  and  C_4
REMARK    3  A    between atoms: C_4  and  C_5
REMARK    4  A    between atoms: C_8  and  C_9
REMARK    5  A    between atoms: C_9  and  N_10
REMARK    6  A    between atoms: N_10  and  C_11
REMARK    7  A    between atoms: C_11  and  C_12
REMARK                            x       y       z     vdW  Elec       q    Type
REMARK                         _______ _______ _______ _____ _____    ______ ____
ROOT
ATOM      1  C   UNL     1      48.737   3.605  17.242  0.00  0.00    +0.000 A 
ATOM      2  C   UNL     1      49.345   4.756  17.754  0.00  0.00    +0.000 A 
ATOM      3  C   UNL     1      50.690   4.744  18.121  0.00  0.00    +0.000 A 
ATOM      4  C   UNL     1      51.458   3.577  18.005  0.00  0.00    +0.000 A 
ATOM      5  C   UNL     1      50.860   2.438  17.446  0.00  0.00    +0.000 A 
ATOM      6  C   UNL     1      49.513   2.452  17.065  0.00  0.00    +0.000 A 
ENDROOT
BRANCH   1   7
ATOM      7  C   UNL     1      47.285   3.637  16.844  0.00  0.00    +0.000 C 
BRANCH   7  10
ATOM      8  O   UNL     1      47.238   3.190  14.063  0.00  0.00    +0.000 OA
ATOM      9  C   UNL     1      46.982   4.313  14.492  0.00  0.00    +0.000 C 
ATOM     10  N   UNL     1      47.049   4.628  15.824  0.00  0.00    +0.000 N 
ATOM     11  H   UNL     1      46.644   5.499  16.144  0.00  0.00    +0.000 HD
BRANCH   9  12
ATOM     12  C   UNL     1      46.638   5.416  13.587  0.00  0.00    +0.000 A 
ATOM     13  C   UNL     1      45.459   5.365  12.856  0.00  0.00    +0.000 A 
ATOM     14  S   UNL     1      45.232   6.709  11.831  0.00  0.00    +0.000 S 
ATOM     15  C   UNL     1      46.676   7.432  12.369  0.00  0.00    +0.000 A 
ATOM     16  N   UNL     1      47.068   8.647  11.897  0.00  0.00    +0.000 NA
ATOM     17  C   UNL     1      48.153   9.101  12.431  0.00  0.00    +0.000 A 
ATOM     18  N   UNL     1      48.889   8.445  13.384  0.00  0.00    +0.000 N 
ATOM     19  C   UNL     1      48.577   7.182  13.826  0.00  0.00    +0.000 A 
ATOM     20  O   UNL     1      49.335   6.568  14.569  0.00  0.00    +0.000 OA
ATOM     21  C   UNL     1      47.336   6.646  13.298  0.00  0.00    +0.000 A 
ATOM     22  H   UNL     1      49.747   8.841  13.739  0.00  0.00    +0.000 HD
ENDBRANCH   9  12
ENDBRANCH   7  10
ENDBRANCH   1   7
BRANCH   4  23
ATOM     23  C   UNL     1      52.919   3.556  18.402  0.00  0.00    +0.000 C 
BRANCH  23  24
ATOM     24  N   UNL     1      53.277   2.318  19.103  0.00  0.00    +0.000 NA
ATOM     25  H   UNL     1      52.580   1.607  18.885  0.00  0.00    +0.000 HD
BRANCH  24  26
ATOM     26  C   UNL     1      54.618   1.855  18.759  0.00  0.00    +0.000 C 
BRANCH  26  27
ATOM     27  C   UNL     1      54.552   0.631  17.831  0.00  0.00    +0.000 C 
ATOM     28  C   UNL     1      53.182  -0.053  17.809  0.00  0.00    +0.000 C 
ATOM     29  N   UNL     1      53.209  -1.184  18.758  0.00  0.00    +0.000 NA
ATOM     30  C   UNL     1      54.575  -1.254  19.302  0.00  0.00    +0.000 C 
ATOM     31  C   UNL     1      55.454  -0.483  18.332  0.00  0.00    +0.000 C 
ATOM     32  F   UNL     1      55.763  -1.301  17.284  0.00  0.00    +0.000 F 
ATOM     33  H   UNL     1      53.029  -2.039  18.226  0.00  0.00    +0.000 HD
ENDBRANCH  26  27
ENDBRANCH  24  26
ENDBRANCH  23  24
ENDBRANCH   4  23
TORSDOF 7
ENDMDL
MODEL 7
REMARK VINA RESULT:    -6.266      3.912      8.916
REMARK INTER + INTRA:         -10.031
REMARK INTER:                  -8.743
REMARK INTRA:                  -1.287
REMARK UNBOUND:                -1.201
REMARK  Name = 
REMARK  7 active torsions:
REMARK  status: ('A' for Active; 'I' for Inactive)
REMARK    1  A    between atoms: C_2  and  C_20
REMARK    2  A    between atoms: N_3  and  C_4
REMARK    3  A    between atoms: C_4  and  C_5
REMARK    4  A    between atoms: C_8  and  C_9
REMARK    5  A    between atoms: C_9  and  N_10
REMARK    6  A    between atoms: N_10  and  C_11
REMARK    7  A    between atoms: C_11  and  C_12
REMARK                            x       y       z     vdW  Elec       q    Type
REMARK                         _______ _______ _______ _____ _____    ______ ____
ROOT
ATOM      1  C   UNL     1      48.381   7.956  12.856  0.00  0.00    +0.000 A 
ATOM      2  C   UNL     1      49.461   8.842  12.800  0.00  0.00    +0.000 A 
ATOM      3  C   UNL     1      50.478   8.784  13.752  0.00  0.00    +0.000 A 
ATOM      4  C   UNL     1      50.432   7.850  14.797  0.00  0.00    +0.000 A 
ATOM      5  C   UNL     1      49.374   6.930  14.824  0.00  0.00    +0.000 A 
ATOM      6  C   UNL     1      48.359   6.980  13.862  0.00  0.00    +0.000 A 
ENDROOT
BRANCH   1   7
ATOM      7  C   UNL     1      47.295   8.029  11.816  0.00  0.00    +0.000 C 
BRANCH   7  10
ATOM      8  O   UNL     1      44.514   7.667  11.550  0.00  0.00    +0.000 OA
ATOM      9  C   UNL     1      45.250   6.684  11.510  0.00  0.00    +0.000 C 
ATOM     10  N   UNL     1      46.605   6.768  11.698  0.00  0.00    +0.000 N 
ATOM     11  H   UNL     1      47.185   5.972  11.462  0.00  0.00    +0.000 HD
BRANCH   9  12
ATOM     12  C   UNL     1      44.712   5.333  11.311  0.00  0.00    +0.000 A 
ATOM     13  C   UNL     1      43.901   4.765  12.284  0.00  0.00    +0.000 A 
ATOM     14  S   UNL     1      43.391   3.182  11.908  0.00  0.00    +0.000 S 
ATOM     15  C   UNL     1      44.191   3.221  10.407  0.00  0.00    +0.000 A 
ATOM     16  N   UNL     1      44.130   2.163   9.553  0.00  0.00    +0.000 NA
ATOM     17  C   UNL     1      44.737   2.349   8.429  0.00  0.00    +0.000 A 
ATOM     18  N   UNL     1      45.410   3.493   8.084  0.00  0.00    +0.000 N 
ATOM     19  C   UNL     1      45.569   4.550   8.947  0.00  0.00    +0.000 A 
ATOM     20  O   UNL     1      46.299   5.495   8.660  0.00  0.00    +0.000 OA
ATOM     21  C   UNL     1      44.861   4.416  10.207  0.00  0.00    +0.000 A 
ATOM     22  H   UNL     1      45.891   3.564   7.200  0.00  0.00    +0.000 HD
ENDBRANCH   9  12
ENDBRANCH   7  10
ENDBRANCH   1   7
BRANCH   4  23
ATOM     23  C   UNL     1      51.532   7.781  15.836  0.00  0.00    +0.000 C 
BRANCH  23  24
ATOM     24  N   UNL     1      51.548   6.488  16.529  0.00  0.00    +0.000 NA
ATOM     25  H   UNL     1      52.464   6.059  16.396  0.00  0.00    +0.000 HD
BRANCH  24  26
ATOM     26  C   UNL     1      51.235   6.617  17.948  0.00  0.00    +0.000 C 
BRANCH  26  27
ATOM     27  C   UNL     1      50.833   5.259  18.546  0.00  0.00    +0.000 C 
ATOM     28  C   UNL     1      50.868   4.107  17.537  0.00  0.00    +0.000 C 
ATOM     29  N   UNL     1      49.504   3.908  17.007  0.00  0.00    +0.000 NA
ATOM     30  C   UNL     1      48.628   4.853  17.716  0.00  0.00    +0.000 C 
ATOM     31  C   UNL     1      49.376   5.260  18.974  0.00  0.00    +0.000 C 
ATOM     32  F   UNL     1      49.196   4.291  19.917  0.00  0.00    +0.000 F 
ATOM     33  H   UNL     1      49.215   2.956  17.247  0.00  0.00    +0.000 HD
ENDBRANCH  26  27
ENDBRANCH  24  26
ENDBRANCH  23  24
ENDBRANCH   4  23
TORSDOF 7
ENDMDL
MODEL 8
REMARK VINA RESULT:    -6.250      4.739      8.799
REMARK INTER + INTRA:         -10.008
REMARK INTER:                  -8.345
REMARK INTRA:                  -1.663
REMARK UNBOUND:                -1.201
REMARK  Name = 
REMARK  7 active torsions:
REMARK  status: ('A' for Active; 'I' for Inactive)
REMARK    1  A    between atoms: C_2  and  C_20
REMARK    2  A    between atoms: N_3  and  C_4
REMARK    3  A    between atoms: C_4  and  C_5
REMARK    4  A    between atoms: C_8  and  C_9
REMARK    5  A    between atoms: C_9  and  N_10
REMARK    6  A    between atoms: N_10  and  C_11
REMARK    7  A    between atoms: C_11  and  C_12
REMARK                            x       y       z     vdW  Elec       q    Type
REMARK                         _______ _______ _______ _____ _____    ______ ____
ROOT
ATOM      1  C   UNL     1      48.801   3.448  17.432  0.00  0.00    +0.000 A 
ATOM      2  C   UNL     1      49.557   2.363  16.979  0.00  0.00    +0.000 A 
ATOM      3  C   UNL     1      50.913   2.262  17.291  0.00  0.00    +0.000 A 
ATOM      4  C   UNL     1      51.553   3.255  18.046  0.00  0.00    +0.000 A 
ATOM      5  C   UNL     1      50.784   4.317  18.541  0.00  0.00    +0.000 A 
ATOM      6  C   UNL     1      49.420   4.413  18.239  0.00  0.00    +0.000 A 
ENDROOT
BRANCH   1   7
ATOM      7  C   UNL     1      47.337   3.538  17.092  0.00  0.00    +0.000 C 
BRANCH   7  10
ATOM      8  O   UNL     1      47.325   3.138  14.303  0.00  0.00    +0.000 OA
ATOM      9  C   UNL     1      47.050   4.250  14.748  0.00  0.00    +0.000 C 
ATOM     10  N   UNL     1      47.100   4.543  16.086  0.00  0.00    +0.000 N 
ATOM     11  H   UNL     1      46.679   5.403  16.417  0.00  0.00    +0.000 HD
BRANCH   9  12
ATOM     12  C   UNL     1      46.702   5.364  13.858  0.00  0.00    +0.000 A 
ATOM     13  C   UNL     1      45.506   5.334  13.154  0.00  0.00    +0.000 A 
ATOM     14  S   UNL     1      45.275   6.689  12.143  0.00  0.00    +0.000 S 
ATOM     15  C   UNL     1      46.741   7.387  12.653  0.00  0.00    +0.000 A 
ATOM     16  N   UNL     1      47.140   8.599  12.180  0.00  0.00    +0.000 NA
ATOM     17  C   UNL     1      48.243   9.035  12.692  0.00  0.00    +0.000 A 
ATOM     18  N   UNL     1      48.990   8.362  13.624  0.00  0.00    +0.000 N 
ATOM     19  C   UNL     1      48.670   7.101  14.064  0.00  0.00    +0.000 A 
ATOM     20  O   UNL     1      49.437   6.471  14.786  0.00  0.00    +0.000 OA
ATOM     21  C   UNL     1      47.410   6.585  13.562  0.00  0.00    +0.000 A 
ATOM     22  H   UNL     1      49.862   8.743  13.961  0.00  0.00    +0.000 HD
ENDBRANCH   9  12
ENDBRANCH   7  10
ENDBRANCH   1   7
BRANCH   4  23
ATOM     23  C   UNL     1      53.025   3.153  18.388  0.00  0.00    +0.000 C 
BRANCH  23  24
ATOM     24  N   UNL     1      53.641   4.475  18.549  0.00  0.00    +0.000 NA
ATOM     25  H   UNL     1      54.431   4.390  19.188  0.00  0.00    +0.000 HD
BRANCH  24  26
ATOM     26  C   UNL     1      54.061   5.048  17.274  0.00  0.00    +0.000 C 
BRANCH  26  27
ATOM     27  C   UNL     1      53.743   6.552  17.220  0.00  0.00    +0.000 C 
ATOM     28  C   UNL     1      52.383   6.872  16.595  0.00  0.00    +0.000 C 
ATOM     29  N   UNL     1      52.589   7.200  15.170  0.00  0.00    +0.000 NA
ATOM     30  C   UNL     1      54.039   7.159  14.927  0.00  0.00    +0.000 C 
ATOM     31  C   UNL     1      54.698   7.279  16.290  0.00  0.00    +0.000 C 
ATOM     32  F   UNL     1      54.731   8.597  16.640  0.00  0.00    +0.000 F 
ATOM     33  H   UNL     1      52.262   8.157  15.021  0.00  0.00    +0.000 HD
ENDBRANCH  26  27
ENDBRANCH  24  26
ENDBRANCH  23  24
ENDBRANCH   4  23
TORSDOF 7
ENDMDL
MODEL 9
REMARK VINA RESULT:    -6.209      4.784      7.654
REMARK INTER + INTRA:          -9.951
REMARK INTER:                  -9.043
REMARK INTRA:                  -0.909
REMARK UNBOUND:                -1.201
REMARK  Name = 
REMARK  7 active torsions:
REMARK  status: ('A' for Active; 'I' for Inactive)
REMARK    1  A    between atoms: C_2  and  C_20
REMARK    2  A    between atoms: N_3  and  C_4
REMARK    3  A    between atoms: C_4  and  C_5
REMARK    4  A    between atoms: C_8  and  C_9
REMARK    5  A    between atoms: C_9  and  N_10
REMARK    6  A    between atoms: N_10  and  C_11
REMARK    7  A    between atoms: C_11  and  C_12
REMARK                            x       y       z     vdW  Elec       q    Type
REMARK                         _______ _______ _______ _____ _____    ______ ____
ROOT
ATOM      1  C   UNL     1      47.605   8.193  12.719  0.00  0.00    +0.000 A 
ATOM      2  C   UNL     1      48.073   9.210  11.881  0.00  0.00    +0.000 A 
ATOM      3  C   UNL     1      49.439   9.361  11.643  0.00  0.00    +0.000 A 
ATOM      4  C   UNL     1      50.374   8.511  12.251  0.00  0.00    +0.000 A 
ATOM      5  C   UNL     1      49.900   7.461  13.050  0.00  0.00    +0.000 A 
ATOM      6  C   UNL     1      48.529   7.301  13.281  0.00  0.00    +0.000 A 
ENDROOT
BRANCH   1   7
ATOM      7  C   UNL     1      46.127   8.040  12.960  0.00  0.00    +0.000 C 
BRANCH   7  10
ATOM      8  O   UNL     1      44.010   7.419  11.207  0.00  0.00    +0.000 OA
ATOM      9  C   UNL     1      44.677   6.505  11.686  0.00  0.00    +0.000 C 
ATOM     10  N   UNL     1      45.677   6.718  12.598  0.00  0.00    +0.000 N 
ATOM     11  H   UNL     1      46.319   5.964  12.810  0.00  0.00    +0.000 HD
BRANCH   9  12
ATOM     12  C   UNL     1      44.401   5.102  11.351  0.00  0.00    +0.000 A 
ATOM     13  C   UNL     1      43.610   4.335  12.195  0.00  0.00    +0.000 A 
ATOM     14  S   UNL     1      43.420   2.723  11.674  0.00  0.00    +0.000 S 
ATOM     15  C   UNL     1      44.344   3.008  10.274  0.00  0.00    +0.000 A 
ATOM     16  N   UNL     1      44.550   2.023   9.358  0.00  0.00    +0.000 NA
ATOM     17  C   UNL     1      45.222   2.392   8.319  0.00  0.00    +0.000 A 
ATOM     18  N   UNL     1      45.718   3.654   8.118  0.00  0.00    +0.000 N 
ATOM     19  C   UNL     1      45.607   4.655   9.053  0.00  0.00    +0.000 A 
ATOM     20  O   UNL     1      46.187   5.726   8.903  0.00  0.00    +0.000 OA
ATOM     21  C   UNL     1      44.814   4.309  10.218  0.00  0.00    +0.000 A 
ATOM     22  H   UNL     1      46.263   3.871   7.297  0.00  0.00    +0.000 HD
ENDBRANCH   9  12
ENDBRANCH   7  10
ENDBRANCH   1   7
BRANCH   4  23
ATOM     23  C   UNL     1      51.859   8.669  11.997  0.00  0.00    +0.000 C 
BRANCH  23  24
ATOM     24  N   UNL     1      52.419   7.511  11.294  0.00  0.00    +0.000 NA
ATOM     25  H   UNL     1      52.117   6.662  11.771  0.00  0.00    +0.000 HD
BRANCH  24  26
ATOM     26  C   UNL     1      52.036   7.481   9.885  0.00  0.00    +0.000 C 
BRANCH  26  27
ATOM     27  C   UNL     1      53.279   7.456   8.981  0.00  0.00    +0.000 C 
ATOM     28  C   UNL     1      53.049   8.075   7.599  0.00  0.00    +0.000 C 
ATOM     29  N   UNL     1      52.740   6.989   6.647  0.00  0.00    +0.000 NA
ATOM     30  C   UNL     1      52.848   5.724   7.391  0.00  0.00    +0.000 C 
ATOM     31  C   UNL     1      53.672   6.032   8.630  0.00  0.00    +0.000 C 
ATOM     32  F   UNL     1      54.992   6.014   8.286  0.00  0.00    +0.000 F 
ATOM     33  H   UNL     1      53.460   6.999   5.921  0.00  0.00    +0.000 HD
ENDBRANCH  26  27
ENDBRANCH  24  26
ENDBRANCH  23  24
ENDBRANCH   4  23
TORSDOF 7
ENDMDL
