MODEL 1
REMARK VINA RESULT:    -8.445      0.000      0.000
REMARK INTER + INTRA:         -11.622
REMARK INTER:                 -10.914
REMARK INTRA:                  -0.708
REMARK UNBOUND:                -0.708
REMARK  Name = 
REMARK  7 active torsions:
REMARK  status: ('A' for Active; 'I' for Inactive)
REMARK    1  A    between atoms: C_1  and  C_2
REMARK    2  A    between atoms: C_2  and  C_3
REMARK    3  A    between atoms: C_2  and  C_14
REMARK    4  A    between atoms: C_3  and  N_4
REMARK    5  A    between atoms: C_8  and  C_9
REMARK    6  A    between atoms: C_18  and  S_19
REMARK    7  A    between atoms: S_19  and  C_20
REMARK                            x       y       z     vdW  Elec       q    Type
REMARK                         _______ _______ _______ _____ _____    ______ ____
ROOT
ATOM      1  C   UNL     1      43.587   4.587  10.641  0.00  0.00    +0.000 C 
ENDROOT
BRANCH   1   2
ATOM      2  N   UNL     1      43.948   3.192  10.416  0.00  0.00    +0.000 N 
ATOM      3  C   UNL     1      44.869   2.999   9.372  0.00  0.00    +0.000 A 
ATOM      4  C   UNL     1      45.233   1.693   9.054  0.00  0.00    +0.000 A 
ATOM      5  C   UNL     1      46.141   1.462   8.019  0.00  0.00    +0.000 A 
ATOM      6  C   UNL     1      46.672   2.543   7.316  0.00  0.00    +0.000 A 
ATOM      7  C   UNL     1      46.263   3.808   7.707  0.00  0.00    +0.000 A 
ATOM      8  N   UNL     1      45.388   4.054   8.715  0.00  0.00    +0.000 NA
ATOM      9  H   UNL     1      43.132   2.631  10.194  0.00  0.00    +0.000 HD
BRANCH   6  10
ATOM     10  C   UNL     1      47.628   2.292   6.212  0.00  0.00    +0.000 C 
ATOM     11  N   UNL     1      47.671   3.161   5.160  0.00  0.00    +0.000 N 
ATOM     12  O   UNL     1      48.375   1.321   6.230  0.00  0.00    +0.000 OA
ATOM     13  H   UNL     1      47.100   3.983   5.038  0.00  0.00    +0.000 HD
ATOM     14  H   UNL     1      48.337   2.947   4.426  0.00  0.00    +0.000 HD
ENDBRANCH   6  10
ENDBRANCH   1   2
BRANCH   1  16
ATOM     15  C   UNL     1      42.679   5.465  12.896  0.00  0.00    +0.000 C 
ATOM     16  C   UNL     1      43.805   4.896  12.098  0.00  0.00    +0.000 C 
BRANCH  16  17
ATOM     17  C   UNL     1      45.180   5.158  12.532  0.00  0.00    +0.000 A 
ATOM     18  C   UNL     1      45.931   6.187  11.954  0.00  0.00    +0.000 A 
ATOM     19  C   UNL     1      47.185   6.520  12.475  0.00  0.00    +0.000 A 
ATOM     20  C   UNL     1      47.680   5.852  13.596  0.00  0.00    +0.000 A 
ATOM     21  C   UNL     1      46.932   4.816  14.159  0.00  0.00    +0.000 A 
ATOM     22  C   UNL     1      45.703   4.446  13.613  0.00  0.00    +0.000 A 
BRANCH  21  23
ATOM     23  S   UNL     1      47.436   4.073  15.688  0.00  0.00    +0.000 S 
ATOM     24  C   UNL     1      48.508   5.273  16.419  0.00  0.00    +0.000 C 
ATOM     25  O   UNL     1      46.253   3.955  16.522  0.00  0.00    +0.000 OA
ATOM     26  O   UNL     1      48.226   2.900  15.362  0.00  0.00    +0.000 OA
ENDBRANCH  21  23
ENDBRANCH  16  17
ENDBRANCH   1  16
TORSDOF 5
ENDMDL
MODEL 2
REMARK VINA RESULT:    -7.942      1.836      2.172
REMARK INTER + INTRA:         -10.971
REMARK INTER:                 -10.379
REMARK INTRA:                  -0.592
REMARK UNBOUND:                -0.708
REMARK  Name = 
REMARK  7 active torsions:
REMARK  status: ('A' for Active; 'I' for Inactive)
REMARK    1  A    between atoms: C_1  and  C_2
REMARK    2  A    between atoms: C_2  and  C_3
REMARK    3  A    between atoms: C_2  and  C_14
REMARK    4  A    between atoms: C_3  and  N_4
REMARK    5  A    between atoms: C_8  and  C_9
REMARK    6  A    between atoms: C_18  and  S_19
REMARK    7  A    between atoms: S_19  and  C_20
REMARK                            x       y       z     vdW  Elec       q    Type
REMARK                         _______ _______ _______ _____ _____    ______ ____
ROOT
ATOM      1  C   UNL     1      43.515   4.968  10.517  0.00  0.00    +0.000 C 
ENDROOT
BRANCH   1   2
ATOM      2  N   UNL     1      43.860   3.558  10.380  0.00  0.00    +0.000 N 
ATOM      3  C   UNL     1      44.808   3.293   9.376  0.00  0.00    +0.000 A 
ATOM      4  C   UNL     1      45.161   1.966   9.143  0.00  0.00    +0.000 A 
ATOM      5  C   UNL     1      46.095   1.665   8.150  0.00  0.00    +0.000 A 
ATOM      6  C   UNL     1      46.662   2.697   7.403  0.00  0.00    +0.000 A 
ATOM      7  C   UNL     1      46.262   3.988   7.711  0.00  0.00    +0.000 A 
ATOM      8  N   UNL     1      45.362   4.302   8.677  0.00  0.00    +0.000 NA
ATOM      9  H   UNL     1      43.043   2.996  10.165  0.00  0.00    +0.000 HD
BRANCH   6  10
ATOM     10  C   UNL     1      47.646   2.372   6.344  0.00  0.00    +0.000 C 
ATOM     11  N   UNL     1      47.690   3.143   5.218  0.00  0.00    +0.000 N 
ATOM     12  O   UNL     1      48.415   1.426   6.464  0.00  0.00    +0.000 OA
ATOM     13  H   UNL     1      47.102   3.936   5.012  0.00  0.00    +0.000 HD
ATOM     14  H   UNL     1      48.375   2.880   4.519  0.00  0.00    +0.000 HD
ENDBRANCH   6  10
ENDBRANCH   1   2
BRANCH   1  16
ATOM     15  C   UNL     1      42.983   5.132  13.040  0.00  0.00    +0.000 C 
ATOM     16  C   UNL     1      43.905   5.412  11.901  0.00  0.00    +0.000 C 
BRANCH  16  17
ATOM     17  C   UNL     1      44.838   6.537  12.009  0.00  0.00    +0.000 A 
ATOM     18  C   UNL     1      44.475   7.814  11.568  0.00  0.00    +0.000 A 
ATOM     19  C   UNL     1      45.314   8.906  11.808  0.00  0.00    +0.000 A 
ATOM     20  C   UNL     1      46.503   8.734  12.519  0.00  0.00    +0.000 A 
ATOM     21  C   UNL     1      46.867   7.455  12.943  0.00  0.00    +0.000 A 
ATOM     22  C   UNL     1      46.058   6.354  12.663  0.00  0.00    +0.000 A 
BRANCH  21  23
ATOM     23  S   UNL     1      48.268   7.225  14.006  0.00  0.00    +0.000 S 
ATOM     24  C   UNL     1      49.660   7.485  12.948  0.00  0.00    +0.000 C 
ATOM     25  O   UNL     1      48.243   8.293  14.990  0.00  0.00    +0.000 OA
ATOM     26  O   UNL     1      48.272   5.837  14.426  0.00  0.00    +0.000 OA
ENDBRANCH  21  23
ENDBRANCH  16  17
ENDBRANCH   1  16
TORSDOF 5
ENDMDL
MODEL 3
REMARK VINA RESULT:    -7.727      2.297      2.848
REMARK INTER + INTRA:         -10.694
REMARK INTER:                  -9.960
REMARK INTRA:                  -0.733
REMARK UNBOUND:                -0.708
REMARK  Name = 
REMARK  7 active torsions:
REMARK  status: ('A' for Active; 'I' for Inactive)
REMARK    1  A    between atoms: C_1  and  C_2
REMARK    2  A    between atoms: C_2  and  C_3
REMARK    3  A    between atoms: C_2  and  C_14
REMARK    4  A    between atoms: C_3  and  N_4
REMARK    5  A    between atoms: C_8  and  C_9
REMARK    6  A    between atoms: C_18  and  S_19
REMARK    7  A    between atoms: S_19  and  C_20
REMARK                            x       y       z     vdW  Elec       q    Type
REMARK                         _______ _______ _______ _____ _____    ______ ____
ROOT
ATOM      1  C   UNL     1      43.215   4.028  11.024  0.00  0.00    +0.000 C 
ENDROOT
BRANCH   1   2
ATOM      2  N   UNL     1      43.899   4.676   9.910  0.00  0.00    +0.000 N 
ATOM      3  C   UNL     1      44.735   3.820   9.173  0.00  0.00    +0.000 A 
ATOM      4  C   UNL     1      45.465   4.367   8.120  0.00  0.00    +0.000 A 
ATOM      5  C   UNL     1      46.311   3.548   7.370  0.00  0.00    +0.000 A 
ATOM      6  C   UNL     1      46.414   2.193   7.684  0.00  0.00    +0.000 A 
ATOM      7  C   UNL     1      45.643   1.733   8.739  0.00  0.00    +0.000 A 
ATOM      8  N   UNL     1      44.809   2.510   9.476  0.00  0.00    +0.000 NA
ATOM      9  H   UNL     1      44.477   5.446  10.230  0.00  0.00    +0.000 HD
BRANCH   6  10
ATOM     10  C   UNL     1      47.320   1.330   6.890  0.00  0.00    +0.000 C 
ATOM     11  N   UNL     1      48.381   1.898   6.243  0.00  0.00    +0.000 N 
ATOM     12  O   UNL     1      47.132   0.122   6.806  0.00  0.00    +0.000 OA
ATOM     13  H   UNL     1      48.624   2.876   6.236  0.00  0.00    +0.000 HD
ATOM     14  H   UNL     1      48.970   1.270   5.708  0.00  0.00    +0.000 HD
ENDBRANCH   6  10
ENDBRANCH   1   2
BRANCH   1  16
ATOM     15  C   UNL     1      42.294   5.980  12.444  0.00  0.00    +0.000 C 
ATOM     16  C   UNL     1      43.326   4.925  12.226  0.00  0.00    +0.000 C 
BRANCH  16  17
ATOM     17  C   UNL     1      44.660   5.115  12.804  0.00  0.00    +0.000 A 
ATOM     18  C   UNL     1      45.432   4.018  13.201  0.00  0.00    +0.000 A 
ATOM     19  C   UNL     1      46.755   4.202  13.614  0.00  0.00    +0.000 A 
ATOM     20  C   UNL     1      47.325   5.476  13.599  0.00  0.00    +0.000 A 
ATOM     21  C   UNL     1      46.544   6.569  13.216  0.00  0.00    +0.000 A 
ATOM     22  C   UNL     1      45.209   6.398  12.851  0.00  0.00    +0.000 A 
BRANCH  21  23
ATOM     23  S   UNL     1      47.280   8.168  13.004  0.00  0.00    +0.000 S 
ATOM     24  C   UNL     1      45.927   9.209  12.545  0.00  0.00    +0.000 C 
ATOM     25  O   UNL     1      47.761   8.598  14.306  0.00  0.00    +0.000 OA
ATOM     26  O   UNL     1      48.188   8.083  11.876  0.00  0.00    +0.000 OA
ENDBRANCH  21  23
ENDBRANCH  16  17
ENDBRANCH   1  16
TORSDOF 5
ENDMDL
MODEL 4
REMARK VINA RESULT:    -7.378      3.721      4.433
REMARK INTER + INTRA:         -10.243
REMARK INTER:                  -9.782
REMARK INTRA:                  -0.460
REMARK UNBOUND:                -0.708
REMARK  Name = 
REMARK  7 active torsions:
REMARK  status: ('A' for Active; 'I' for Inactive)
REMARK    1  A    between atoms: C_1  and  C_2
REMARK    2  A    between atoms: C_2  and  C_3
REMARK    3  A    between atoms: C_2  and  C_14
REMARK    4  A    between atoms: C_3  and  N_4
REMARK    5  A    between atoms: C_8  and  C_9
REMARK    6  A    between atoms: C_18  and  S_19
REMARK    7  A    between atoms: S_19  and  C_20
REMARK                            x       y       z     vdW  Elec       q    Type
REMARK                         _______ _______ _______ _____ _____    ______ ____
ROOT
ATOM      1  C   UNL     1      43.348   4.834  10.715  0.00  0.00    +0.000 C 
ENDROOT
BRANCH   1   2
ATOM      2  N   UNL     1      44.305   5.219   9.684  0.00  0.00    +0.000 N 
ATOM      3  C   UNL     1      44.974   4.137   9.088  0.00  0.00    +0.000 A 
ATOM      4  C   UNL     1      45.943   4.416   8.127  0.00  0.00    +0.000 A 
ATOM      5  C   UNL     1      46.632   3.366   7.517  0.00  0.00    +0.000 A 
ATOM      6  C   UNL     1      46.343   2.051   7.879  0.00  0.00    +0.000 A 
ATOM      7  C   UNL     1      45.357   1.865   8.835  0.00  0.00    +0.000 A 
ATOM      8  N   UNL     1      44.670   2.872   9.433  0.00  0.00    +0.000 NA
ATOM      9  H   UNL     1      45.020   5.836  10.056  0.00  0.00    +0.000 HD
BRANCH   6  10
ATOM     10  C   UNL     1      47.084   0.941   7.236  0.00  0.00    +0.000 C 
ATOM     11  N   UNL     1      46.791  -0.346   7.587  0.00  0.00    +0.000 N 
ATOM     12  O   UNL     1      47.952   1.160   6.399  0.00  0.00    +0.000 OA
ATOM     13  H   UNL     1      46.106  -0.640   8.267  0.00  0.00    +0.000 HD
ATOM     14  H   UNL     1      47.326  -1.072   7.126  0.00  0.00    +0.000 HD
ENDBRANCH   6  10
ENDBRANCH   1   2
BRANCH   1  16
ATOM     15  C   UNL     1      43.308   4.643  13.291  0.00  0.00    +0.000 C 
ATOM     16  C   UNL     1      43.931   5.197  12.053  0.00  0.00    +0.000 C 
BRANCH  16  17
ATOM     17  C   UNL     1      44.680   6.454  12.143  0.00  0.00    +0.000 A 
ATOM     18  C   UNL     1      46.050   6.453  12.425  0.00  0.00    +0.000 A 
ATOM     19  C   UNL     1      46.781   7.643  12.364  0.00  0.00    +0.000 A 
ATOM     20  C   UNL     1      46.154   8.833  11.989  0.00  0.00    +0.000 A 
ATOM     21  C   UNL     1      44.784   8.830  11.724  0.00  0.00    +0.000 A 
ATOM     22  C   UNL     1      44.040   7.655  11.831  0.00  0.00    +0.000 A 
BRANCH  21  23
ATOM     23  S   UNL     1      43.993  10.274  11.066  0.00  0.00    +0.000 S 
ATOM     24  C   UNL     1      45.326  11.242  10.424  0.00  0.00    +0.000 C 
ATOM     25  O   UNL     1      43.168   9.844   9.950  0.00  0.00    +0.000 OA
ATOM     26  O   UNL     1      43.406  10.995  12.180  0.00  0.00    +0.000 OA
ENDBRANCH  21  23
ENDBRANCH  16  17
ENDBRANCH   1  16
TORSDOF 5
ENDMDL
MODEL 5
REMARK VINA RESULT:    -6.910      3.360      5.107
REMARK INTER + INTRA:          -9.639
REMARK INTER:                  -8.832
REMARK INTRA:                  -0.806
REMARK UNBOUND:                -0.708
REMARK  Name = 
REMARK  7 active torsions:
REMARK  status: ('A' for Active; 'I' for Inactive)
REMARK    1  A    between atoms: C_1  and  C_2
REMARK    2  A    between atoms: C_2  and  C_3
REMARK    3  A    between atoms: C_2  and  C_14
REMARK    4  A    between atoms: C_3  and  N_4
REMARK    5  A    between atoms: C_8  and  C_9
REMARK    6  A    between atoms: C_18  and  S_19
REMARK    7  A    between atoms: S_19  and  C_20
REMARK                            x       y       z     vdW  Elec       q    Type
REMARK                         _______ _______ _______ _____ _____    ______ ____
ROOT
ATOM      1  C   UNL     1      47.158   8.414  13.590  0.00  0.00    +0.000 C 
ENDROOT
BRANCH   1   2
ATOM      2  N   UNL     1      46.988   7.982  12.207  0.00  0.00    +0.000 N 
ATOM      3  C   UNL     1      46.239   6.802  12.062  0.00  0.00    +0.000 A 
ATOM      4  C   UNL     1      46.067   6.289  10.778  0.00  0.00    +0.000 A 
ATOM      5  C   UNL     1      45.334   5.115  10.596  0.00  0.00    +0.000 A 
ATOM      6  C   UNL     1      44.782   4.471  11.703  0.00  0.00    +0.000 A 
ATOM      7  C   UNL     1      44.992   5.057  12.940  0.00  0.00    +0.000 A 
ATOM      8  N   UNL     1      45.695   6.201  13.138  0.00  0.00    +0.000 NA
ATOM      9  H   UNL     1      47.883   7.817  11.759  0.00  0.00    +0.000 HD
BRANCH   6  10
ATOM     10  C   UNL     1      44.012   3.220  11.505  0.00  0.00    +0.000 C 
ATOM     11  N   UNL     1      43.672   2.470  12.595  0.00  0.00    +0.000 N 
ATOM     12  O   UNL     1      43.679   2.852  10.385  0.00  0.00    +0.000 OA
ATOM     13  H   UNL     1      43.899   2.673  13.556  0.00  0.00    +0.000 HD
ATOM     14  H   UNL     1      43.150   1.621  12.411  0.00  0.00    +0.000 HD
ENDBRANCH   6  10
ENDBRANCH   1   2
BRANCH   1  16
ATOM     15  C   UNL     1      49.624   7.875  13.032  0.00  0.00    +0.000 C 
ATOM     16  C   UNL     1      48.532   7.999  14.043  0.00  0.00    +0.000 C 
BRANCH  16  17
ATOM     17  C   UNL     1      48.626   7.222  15.281  0.00  0.00    +0.000 A 
ATOM     18  C   UNL     1      48.828   7.855  16.512  0.00  0.00    +0.000 A 
ATOM     19  C   UNL     1      48.771   7.119  17.699  0.00  0.00    +0.000 A 
ATOM     20  C   UNL     1      48.479   5.754  17.666  0.00  0.00    +0.000 A 
ATOM     21  C   UNL     1      48.294   5.125  16.434  0.00  0.00    +0.000 A 
ATOM     22  C   UNL     1      48.398   5.845  15.243  0.00  0.00    +0.000 A 
BRANCH  21  23
ATOM     23  S   UNL     1      47.738   3.443  16.359  0.00  0.00    +0.000 S 
ATOM     24  C   UNL     1      49.082   2.513  17.034  0.00  0.00    +0.000 C 
ATOM     25  O   UNL     1      46.606   3.321  17.261  0.00  0.00    +0.000 OA
ATOM     26  O   UNL     1      47.604   3.091  14.958  0.00  0.00    +0.000 OA
ENDBRANCH  21  23
ENDBRANCH  16  17
ENDBRANCH   1  16
TORSDOF 5
ENDMDL
MODEL 6
REMARK VINA RESULT:    -6.380      4.041      8.204
REMARK INTER + INTRA:          -8.953
REMARK INTER:                  -8.493
REMARK INTRA:                  -0.460
REMARK UNBOUND:                -0.708
REMARK  Name = 
REMARK  7 active torsions:
REMARK  status: ('A' for Active; 'I' for Inactive)
REMARK    1  A    between atoms: C_1  and  C_2
REMARK    2  A    between atoms: C_2  and  C_3
REMARK    3  A    between atoms: C_2  and  C_14
REMARK    4  A    between atoms: C_3  and  N_4
REMARK    5  A    between atoms: C_8  and  C_9
REMARK    6  A    between atoms: C_18  and  S_19
REMARK    7  A    between atoms: S_19  and  C_20
REMARK                            x       y       z     vdW  Elec       q    Type
REMARK                         _______ _______ _______ _____ _____    ______ ____
ROOT
ATOM      1  C   UNL     1      47.548   6.214  13.493  0.00  0.00    +0.000 C 
ENDROOT
BRANCH   1   2
ATOM      2  N   UNL     1      46.972   5.161  14.321  0.00  0.00    +0.000 N 
ATOM      3  C   UNL     1      47.591   5.013  15.574  0.00  0.00    +0.000 A 
ATOM      4  C   UNL     1      47.137   3.997  16.412  0.00  0.00    +0.000 A 
ATOM      5  C   UNL     1      47.731   3.817  17.662  0.00  0.00    +0.000 A 
ATOM      6  C   UNL     1      48.774   4.655  18.056  0.00  0.00    +0.000 A 
ATOM      7  C   UNL     1      49.154   5.645  17.164  0.00  0.00    +0.000 A 
ATOM      8  N   UNL     1      48.583   5.843  15.948  0.00  0.00    +0.000 NA
ATOM      9  H   UNL     1      47.025   4.259  13.860  0.00  0.00    +0.000 HD
BRANCH   6  10
ATOM     10  C   UNL     1      49.408   4.453  19.380  0.00  0.00    +0.000 C 
ATOM     11  N   UNL     1      48.647   3.997  20.419  0.00  0.00    +0.000 N 
ATOM     12  O   UNL     1      50.597   4.689  19.554  0.00  0.00    +0.000 OA
ATOM     13  H   UNL     1      47.663   3.780  20.390  0.00  0.00    +0.000 HD
ATOM     14  H   UNL     1      49.122   3.878  21.306  0.00  0.00    +0.000 HD
ENDBRANCH   6  10
ENDBRANCH   1   2
BRANCH   1  16
ATOM     15  C   UNL     1      46.028   8.255  13.041  0.00  0.00    +0.000 C 
ATOM     16  C   UNL     1      46.434   6.857  12.712  0.00  0.00    +0.000 C 
BRANCH  16  17
ATOM     17  C   UNL     1      45.453   5.968  12.083  0.00  0.00    +0.000 A 
ATOM     18  C   UNL     1      44.148   5.875  12.579  0.00  0.00    +0.000 A 
ATOM     19  C   UNL     1      43.183   5.138  11.886  0.00  0.00    +0.000 A 
ATOM     20  C   UNL     1      43.508   4.517  10.678  0.00  0.00    +0.000 A 
ATOM     21  C   UNL     1      44.815   4.601  10.197  0.00  0.00    +0.000 A 
ATOM     22  C   UNL     1      45.794   5.294  10.909  0.00  0.00    +0.000 A 
BRANCH  21  23
ATOM     23  S   UNL     1      45.219   3.990   8.582  0.00  0.00    +0.000 S 
ATOM     24  C   UNL     1      45.663   2.301   8.857  0.00  0.00    +0.000 C 
ATOM     25  O   UNL     1      43.998   4.014   7.794  0.00  0.00    +0.000 OA
ATOM     26  O   UNL     1      46.401   4.700   8.130  0.00  0.00    +0.000 OA
ENDBRANCH  21  23
ENDBRANCH  16  17
ENDBRANCH   1  16
TORSDOF 5
ENDMDL
MODEL 7
REMARK VINA RESULT:    -6.291      3.347      5.615
REMARK INTER + INTRA:          -8.838
REMARK INTER:                  -8.106
REMARK INTRA:                  -0.732
REMARK UNBOUND:                -0.708
REMARK  Name = 
REMARK  7 active torsions:
REMARK  status: ('A' for Active; 'I' for Inactive)
REMARK    1  A    between atoms: C_1  and  C_2
REMARK    2  A    between atoms: C_2  and  C_3
REMARK    3  A    between atoms: C_2  and  C_14
REMARK    4  A    between atoms: C_3  and  N_4
REMARK    5  A    between atoms: C_8  and  C_9
REMARK    6  A    between atoms: C_18  and  S_19
REMARK    7  A    between atoms: S_19  and  C_20
REMARK                            x       y       z     vdW  Elec       q    Type
REMARK                         _______ _______ _______ _____ _____    ______ ____
ROOT
ATOM      1  C   UNL     1      48.583   7.705  13.863  0.00  0.00    +0.000 C 
ENDROOT
BRANCH   1   2
ATOM      2  N   UNL     1      47.300   8.277  13.472  0.00  0.00    +0.000 N 
ATOM      3  C   UNL     1      46.455   7.382  12.793  0.00  0.00    +0.000 A 
ATOM      4  C   UNL     1      45.227   7.858  12.339  0.00  0.00    +0.000 A 
ATOM      5  C   UNL     1      44.365   6.999  11.656  0.00  0.00    +0.000 A 
ATOM      6  C   UNL     1      44.743   5.675  11.437  0.00  0.00    +0.000 A 
ATOM      7  C   UNL     1      45.976   5.284  11.934  0.00  0.00    +0.000 A 
ATOM      8  N   UNL     1      46.826   6.101  12.607  0.00  0.00    +0.000 NA
ATOM      9  H   UNL     1      47.423   9.080  12.864  0.00  0.00    +0.000 HD
BRANCH   6  10
ATOM     10  C   UNL     1      43.828   4.769  10.703  0.00  0.00    +0.000 C 
ATOM     11  N   UNL     1      43.962   4.643   9.350  0.00  0.00    +0.000 N 
ATOM     12  O   UNL     1      42.958   4.137  11.290  0.00  0.00    +0.000 OA
ATOM     13  H   UNL     1      44.633   5.119   8.767  0.00  0.00    +0.000 HD
ATOM     14  H   UNL     1      43.311   4.017   8.890  0.00  0.00    +0.000 HD
ENDBRANCH   6  10
ENDBRANCH   1   2
BRANCH   1  16
ATOM     15  C   UNL     1      49.897   9.283  15.433  0.00  0.00    +0.000 C 
ATOM     16  C   UNL     1      48.903   8.184  15.254  0.00  0.00    +0.000 C 
BRANCH  16  17
ATOM     17  C   UNL     1      48.685   7.244  16.356  0.00  0.00    +0.000 A 
ATOM     18  C   UNL     1      48.492   7.704  17.663  0.00  0.00    +0.000 A 
ATOM     19  C   UNL     1      48.142   6.810  18.679  0.00  0.00    +0.000 A 
ATOM     20  C   UNL     1      47.949   5.458  18.389  0.00  0.00    +0.000 A 
ATOM     21  C   UNL     1      48.159   5.002  17.086  0.00  0.00    +0.000 A 
ATOM     22  C   UNL     1      48.556   5.882  16.079  0.00  0.00    +0.000 A 
BRANCH  21  23
ATOM     23  S   UNL     1      47.744   3.338  16.639  0.00  0.00    +0.000 S 
ATOM     24  C   UNL     1      49.183   2.404  17.068  0.00  0.00    +0.000 C 
ATOM     25  O   UNL     1      46.656   2.916  17.505  0.00  0.00    +0.000 OA
ATOM     26  O   UNL     1      47.593   3.299  15.196  0.00  0.00    +0.000 OA
ENDBRANCH  21  23
ENDBRANCH  16  17
ENDBRANCH   1  16
TORSDOF 5
ENDMDL
MODEL 8
REMARK VINA RESULT:    -6.044      4.167      7.966
REMARK INTER + INTRA:          -8.519
REMARK INTER:                  -7.755
REMARK INTRA:                  -0.764
REMARK UNBOUND:                -0.708
REMARK  Name = 
REMARK  7 active torsions:
REMARK  status: ('A' for Active; 'I' for Inactive)
REMARK    1  A    between atoms: C_1  and  C_2
REMARK    2  A    between atoms: C_2  and  C_3
REMARK    3  A    between atoms: C_2  and  C_14
REMARK    4  A    between atoms: C_3  and  N_4
REMARK    5  A    between atoms: C_8  and  C_9
REMARK    6  A    between atoms: C_18  and  S_19
REMARK    7  A    between atoms: S_19  and  C_20
REMARK                            x       y       z     vdW  Elec       q    Type
REMARK                         _______ _______ _______ _____ _____    ______ ____
ROOT
ATOM      1  C   UNL     1      49.329   6.950  12.705  0.00  0.00    +0.000 C 
ENDROOT
BRANCH   1   2
ATOM      2  N   UNL     1      49.745   7.677  13.899  0.00  0.00    +0.000 N 
ATOM      3  C   UNL     1      49.322   7.091  15.104  0.00  0.00    +0.000 A 
ATOM      4  C   UNL     1      49.633   7.745  16.294  0.00  0.00    +0.000 A 
ATOM      5  C   UNL     1      49.225   7.195  17.511  0.00  0.00    +0.000 A 
ATOM      6  C   UNL     1      48.510   5.998  17.519  0.00  0.00    +0.000 A 
ATOM      7  C   UNL     1      48.255   5.410  16.290  0.00  0.00    +0.000 A 
ATOM      8  N   UNL     1      48.650   5.924  15.098  0.00  0.00    +0.000 NA
ATOM      9  H   UNL     1      49.389   8.627  13.895  0.00  0.00    +0.000 HD
BRANCH   6  10
ATOM     10  C   UNL     1      48.070   5.423  18.812  0.00  0.00    +0.000 C 
ATOM     11  N   UNL     1      46.737   5.386  19.104  0.00  0.00    +0.000 N 
ATOM     12  O   UNL     1      48.882   4.985  19.619  0.00  0.00    +0.000 OA
ATOM     13  H   UNL     1      45.986   5.724  18.521  0.00  0.00    +0.000 HD
ATOM     14  H   UNL     1      46.483   4.989  20.001  0.00  0.00    +0.000 HD
ENDBRANCH   6  10
ENDBRANCH   1   2
BRANCH   1  16
ATOM     15  C   UNL     1      48.548   9.219  11.745  0.00  0.00    +0.000 C 
ATOM     16  C   UNL     1      48.285   7.771  11.998  0.00  0.00    +0.000 C 
BRANCH  16  17
ATOM     17  C   UNL     1      46.896   7.311  12.080  0.00  0.00    +0.000 A 
ATOM     18  C   UNL     1      45.841   8.144  11.694  0.00  0.00    +0.000 A 
ATOM     19  C   UNL     1      44.536   7.646  11.639  0.00  0.00    +0.000 A 
ATOM     20  C   UNL     1      44.283   6.305  11.938  0.00  0.00    +0.000 A 
ATOM     21  C   UNL     1      45.338   5.484  12.338  0.00  0.00    +0.000 A 
ATOM     22  C   UNL     1      46.634   5.988  12.442  0.00  0.00    +0.000 A 
BRANCH  21  23
ATOM     23  S   UNL     1      45.091   3.740  12.543  0.00  0.00    +0.000 S 
ATOM     24  C   UNL     1      44.968   3.124  10.891  0.00  0.00    +0.000 C 
ATOM     25  O   UNL     1      46.300   3.199  13.139  0.00  0.00    +0.000 OA
ATOM     26  O   UNL     1      43.805   3.556  13.191  0.00  0.00    +0.000 OA
ENDBRANCH  21  23
ENDBRANCH  16  17
ENDBRANCH   1  16
TORSDOF 5
ENDMDL
MODEL 9
REMARK VINA RESULT:    -5.988      4.307      7.623
REMARK INTER + INTRA:          -8.447
REMARK INTER:                  -7.616
REMARK INTRA:                  -0.831
REMARK UNBOUND:                -0.708
REMARK  Name = 
REMARK  7 active torsions:
REMARK  status: ('A' for Active; 'I' for Inactive)
REMARK    1  A    between atoms: C_1  and  C_2
REMARK    2  A    between atoms: C_2  and  C_3
REMARK    3  A    between atoms: C_2  and  C_14
REMARK    4  A    between atoms: C_3  and  N_4
REMARK    5  A    between atoms: C_8  and  C_9
REMARK    6  A    between atoms: C_18  and  S_19
REMARK    7  A    between atoms: S_19  and  C_20
REMARK                            x       y       z     vdW  Elec       q    Type
REMARK                         _______ _______ _______ _____ _____    ______ ____
ROOT
ATOM      1  C   UNL     1      49.010   7.527  12.725  0.00  0.00    +0.000 C 
ENDROOT
BRANCH   1   2
ATOM      2  N   UNL     1      49.508   7.571  14.095  0.00  0.00    +0.000 N 
ATOM      3  C   UNL     1      48.964   6.585  14.936  0.00  0.00    +0.000 A 
ATOM      4  C   UNL     1      49.347   6.584  16.275  0.00  0.00    +0.000 A 
ATOM      5  C   UNL     1      48.822   5.622  17.141  0.00  0.00    +0.000 A 
ATOM      6  C   UNL     1      47.922   4.676  16.655  0.00  0.00    +0.000 A 
ATOM      7  C   UNL     1      47.606   4.745  15.307  0.00  0.00    +0.000 A 
ATOM      8  N   UNL     1      48.110   5.666  14.447  0.00  0.00    +0.000 NA
ATOM      9  H   UNL     1      49.312   8.467  14.530  0.00  0.00    +0.000 HD
BRANCH   6  10
ATOM     10  C   UNL     1      47.361   3.664  17.580  0.00  0.00    +0.000 C 
ATOM     11  N   UNL     1      47.988   3.432  18.771  0.00  0.00    +0.000 N 
ATOM     12  O   UNL     1      46.349   3.036  17.293  0.00  0.00    +0.000 OA
ATOM     13  H   UNL     1      48.827   3.882  19.104  0.00  0.00    +0.000 HD
ATOM     14  H   UNL     1      47.572   2.728  19.369  0.00  0.00    +0.000 HD
ENDBRANCH   6  10
ENDBRANCH   1   2
BRANCH   1  16
ATOM     15  C   UNL     1      48.474  10.017  13.161  0.00  0.00    +0.000 C 
ATOM     16  C   UNL     1      48.118   8.720  12.513  0.00  0.00    +0.000 C 
BRANCH  16  17
ATOM     17  C   UNL     1      46.715   8.462  12.177  0.00  0.00    +0.000 A 
ATOM     18  C   UNL     1      45.817   9.517  11.987  0.00  0.00    +0.000 A 
ATOM     19  C   UNL     1      44.522   9.264  11.527  0.00  0.00    +0.000 A 
ATOM     20  C   UNL     1      44.128   7.959  11.221  0.00  0.00    +0.000 A 
ATOM     21  C   UNL     1      45.024   6.909  11.428  0.00  0.00    +0.000 A 
ATOM     22  C   UNL     1      46.301   7.151  11.934  0.00  0.00    +0.000 A 
BRANCH  21  23
ATOM     23  S   UNL     1      44.629   5.271  10.878  0.00  0.00    +0.000 S 
ATOM     24  C   UNL     1      45.168   4.229  12.200  0.00  0.00    +0.000 C 
ATOM     25  O   UNL     1      43.181   5.180  10.793  0.00  0.00    +0.000 OA
ATOM     26  O   UNL     1      45.452   4.991   9.717  0.00  0.00    +0.000 OA
ENDBRANCH  21  23
ENDBRANCH  16  17
ENDBRANCH   1  16
TORSDOF 5
ENDMDL
