MODEL 1
REMARK VINA RESULT:    -8.484      0.000      0.000
REMARK INTER + INTRA:         -13.764
REMARK INTER:                 -12.699
REMARK INTRA:                  -1.064
REMARK UNBOUND:                -1.064
REMARK  Name = 
REMARK  9 active torsions:
REMARK  status: ('A' for Active; 'I' for Inactive)
REMARK    1  A    between atoms: C_2  and  C_4
REMARK    2  A    between atoms: C_7  and  N_8
REMARK    3  A    between atoms: N_8  and  C_9
REMARK    4  A    between atoms: C_9  and  C_10
REMARK    5  A    between atoms: C_10  and  C_11
REMARK    6  A    between atoms: C_10  and  C_13
REMARK    7  A    between atoms: C_11  and  O_12
REMARK    8  A    between atoms: C_17  and  O_18
REMARK    9  A    between atoms: O_18  and  C_19
REMARK                            x       y       z     vdW  Elec       q    Type
REMARK                         _______ _______ _______ _____ _____    ______ ____
ROOT
ATOM      1  C   UNL     1      43.993   5.021  12.377  0.00  0.00    +0.000 C 
ENDROOT
BRANCH   1   2
ATOM      2  C   UNL     1      45.433   5.450  12.630  0.00  0.00    +0.000 A 
ATOM      3  C   UNL     1      46.095   6.243  11.679  0.00  0.00    +0.000 A 
ATOM      4  C   UNL     1      47.403   6.681  11.901  0.00  0.00    +0.000 A 
ATOM      5  C   UNL     1      48.080   6.330  13.071  0.00  0.00    +0.000 A 
ATOM      6  C   UNL     1      47.449   5.518  14.008  0.00  0.00    +0.000 A 
ATOM      7  C   UNL     1      46.139   5.078  13.784  0.00  0.00    +0.000 A 
BRANCH   6   8
ATOM      8  O   UNL     1      47.988   5.123  15.206  0.00  0.00    +0.000 OA
BRANCH   8   9
ATOM      9  C   UNL     1      47.288   4.150  16.012  0.00  0.00    +0.000 C 
ATOM     10  C   UNL     1      47.166   4.412  17.518  0.00  0.00    +0.000 C 
ATOM     11  O   UNL     1      47.859   3.186  17.846  0.00  0.00    +0.000 OA
ATOM     12  C   UNL     1      48.138   2.947  16.449  0.00  0.00    +0.000 C 
ENDBRANCH   8   9
ENDBRANCH   6   8
ENDBRANCH   1   2
BRANCH   1  13
ATOM     13  C   UNL     1      43.635   5.169  10.881  0.00  0.00    +0.000 C 
BRANCH  13  14
ATOM     14  N   UNL     1      43.663   3.867  10.213  0.00  0.00    +0.000 N 
ATOM     15  H   UNL     1      43.479   3.095  10.866  0.00  0.00    +0.000 HD
BRANCH  14  19
ATOM     16  C   UNL     1      46.646   2.710   7.466  0.00  0.00    +0.000 A 
ATOM     17  C   UNL     1      46.333   4.063   7.613  0.00  0.00    +0.000 A 
ATOM     18  C   UNL     1      45.356   4.467   8.528  0.00  0.00    +0.000 A 
ATOM     19  C   UNL     1      44.691   3.535   9.330  0.00  0.00    +0.000 A 
ATOM     20  C   UNL     1      45.002   2.178   9.160  0.00  0.00    +0.000 A 
ATOM     21  C   UNL     1      45.965   1.764   8.232  0.00  0.00    +0.000 A 
BRANCH  16  23
ATOM     22  N   UNL     1      47.784   2.977   5.331  0.00  0.00    +0.000 N 
ATOM     23  C   UNL     1      47.653   2.245   6.480  0.00  0.00    +0.000 C 
ATOM     24  O   UNL     1      48.363   1.271   6.691  0.00  0.00    +0.000 OA
ATOM     25  H   UNL     1      48.542   2.712   4.718  0.00  0.00    +0.000 HD
ATOM     26  H   UNL     1      47.408   3.909   5.242  0.00  0.00    +0.000 HD
ENDBRANCH  16  23
ENDBRANCH  14  19
ENDBRANCH  13  14
ENDBRANCH   1  13
BRANCH   1  27
ATOM     27  C   UNL     1      43.686   3.598  12.890  0.00  0.00    +0.000 C 
BRANCH  27  28
ATOM     28  O   UNL     1      44.734   2.682  12.570  0.00  0.00    +0.000 OA
ATOM     29  H   UNL     1      45.494   3.210  12.263  0.00  0.00    +0.000 HD
ENDBRANCH  27  28
ENDBRANCH   1  27
TORSDOF 9
ENDMDL
MODEL 2
REMARK VINA RESULT:    -8.275      1.669      2.035
REMARK INTER + INTRA:         -13.452
REMARK INTER:                 -12.407
REMARK INTRA:                  -1.045
REMARK UNBOUND:                -1.064
REMARK  Name = 
REMARK  9 active torsions:
REMARK  status: ('A' for Active; 'I' for Inactive)
REMARK    1  A    between atoms: C_2  and  C_4
REMARK    2  A    between atoms: C_7  and  N_8
REMARK    3  A    between atoms: N_8  and  C_9
REMARK    4  A    between atoms: C_9  and  C_10
REMARK    5  A    between atoms: C_10  and  C_11
REMARK    6  A    between atoms: C_10  and  C_13
REMARK    7  A    between atoms: C_11  and  O_12
REMARK    8  A    between atoms: C_17  and  O_18
REMARK    9  A    between atoms: O_18  and  C_19
REMARK                            x       y       z     vdW  Elec       q    Type
REMARK                         _______ _______ _______ _____ _____    ______ ____
ROOT
ATOM      1  C   UNL     1      45.008   6.615  11.148  0.00  0.00    +0.000 C 
ENDROOT
BRANCH   1   2
ATOM      2  C   UNL     1      46.138   6.381  12.144  0.00  0.00    +0.000 A 
ATOM      3  C   UNL     1      47.306   7.155  12.058  0.00  0.00    +0.000 A 
ATOM      4  C   UNL     1      48.344   6.986  12.979  0.00  0.00    +0.000 A 
ATOM      5  C   UNL     1      48.240   6.036  13.998  0.00  0.00    +0.000 A 
ATOM      6  C   UNL     1      47.103   5.240  14.076  0.00  0.00    +0.000 A 
ATOM      7  C   UNL     1      46.065   5.408  13.152  0.00  0.00    +0.000 A 
BRANCH   6   8
ATOM      8  O   UNL     1      46.863   4.292  15.039  0.00  0.00    +0.000 OA
BRANCH   8   9
ATOM      9  C   UNL     1      47.761   4.181  16.164  0.00  0.00    +0.000 C 
ATOM     10  C   UNL     1      48.184   2.778  16.614  0.00  0.00    +0.000 C 
ATOM     11  O   UNL     1      47.633   2.973  17.938  0.00  0.00    +0.000 OA
ATOM     12  C   UNL     1      47.079   4.246  17.539  0.00  0.00    +0.000 C 
ENDBRANCH   8   9
ENDBRANCH   6   8
ENDBRANCH   1   2
BRANCH   1  13
ATOM     13  C   UNL     1      44.004   5.442  11.177  0.00  0.00    +0.000 C 
BRANCH  13  14
ATOM     14  N   UNL     1      43.763   4.935   9.825  0.00  0.00    +0.000 N 
ATOM     15  H   UNL     1      42.788   4.639   9.693  0.00  0.00    +0.000 HD
BRANCH  14  19
ATOM     16  C   UNL     1      46.252   2.070   7.987  0.00  0.00    +0.000 A 
ATOM     17  C   UNL     1      46.399   3.420   7.662  0.00  0.00    +0.000 A 
ATOM     18  C   UNL     1      45.592   4.386   8.270  0.00  0.00    +0.000 A 
ATOM     19  C   UNL     1      44.642   4.029   9.231  0.00  0.00    +0.000 A 
ATOM     20  C   UNL     1      44.491   2.669   9.536  0.00  0.00    +0.000 A 
ATOM     21  C   UNL     1      45.283   1.693   8.916  0.00  0.00    +0.000 A 
BRANCH  16  23
ATOM     22  N   UNL     1      46.776  -0.283   7.647  0.00  0.00    +0.000 N 
ATOM     23  C   UNL     1      47.069   1.017   7.335  0.00  0.00    +0.000 C 
ATOM     24  O   UNL     1      47.948   1.288   6.527  0.00  0.00    +0.000 OA
ATOM     25  H   UNL     1      47.268  -0.990   7.120  0.00  0.00    +0.000 HD
ATOM     26  H   UNL     1      45.911  -0.545   8.097  0.00  0.00    +0.000 HD
ENDBRANCH  16  23
ENDBRANCH  14  19
ENDBRANCH  13  14
ENDBRANCH   1  13
BRANCH   1  27
ATOM     27  C   UNL     1      44.297   7.970  11.349  0.00  0.00    +0.000 C 
BRANCH  27  28
ATOM     28  O   UNL     1      42.924   7.911  10.957  0.00  0.00    +0.000 OA
ATOM     29  H   UNL     1      42.445   7.433  11.659  0.00  0.00    +0.000 HD
ENDBRANCH  27  28
ENDBRANCH   1  27
TORSDOF 9
ENDMDL
MODEL 3
REMARK VINA RESULT:    -7.552      2.305      3.270
REMARK INTER + INTRA:         -12.369
REMARK INTER:                 -11.291
REMARK INTRA:                  -1.079
REMARK UNBOUND:                -1.064
REMARK  Name = 
REMARK  9 active torsions:
REMARK  status: ('A' for Active; 'I' for Inactive)
REMARK    1  A    between atoms: C_2  and  C_4
REMARK    2  A    between atoms: C_7  and  N_8
REMARK    3  A    between atoms: N_8  and  C_9
REMARK    4  A    between atoms: C_9  and  C_10
REMARK    5  A    between atoms: C_10  and  C_11
REMARK    6  A    between atoms: C_10  and  C_13
REMARK    7  A    between atoms: C_11  and  O_12
REMARK    8  A    between atoms: C_17  and  O_18
REMARK    9  A    between atoms: O_18  and  C_19
REMARK                            x       y       z     vdW  Elec       q    Type
REMARK                         _______ _______ _______ _____ _____    ______ ____
ROOT
ATOM      1  C   UNL     1      45.109   6.351  11.313  0.00  0.00    +0.000 C 
ENDROOT
BRANCH   1   2
ATOM      2  C   UNL     1      45.964   5.911  12.496  0.00  0.00    +0.000 A 
ATOM      3  C   UNL     1      45.539   4.838  13.295  0.00  0.00    +0.000 A 
ATOM      4  C   UNL     1      46.318   4.391  14.365  0.00  0.00    +0.000 A 
ATOM      5  C   UNL     1      47.534   5.011  14.664  0.00  0.00    +0.000 A 
ATOM      6  C   UNL     1      47.953   6.096  13.901  0.00  0.00    +0.000 A 
ATOM      7  C   UNL     1      47.170   6.545  12.832  0.00  0.00    +0.000 A 
BRANCH   6   8
ATOM      8  O   UNL     1      49.133   6.776  14.071  0.00  0.00    +0.000 OA
BRANCH   8   9
ATOM      9  C   UNL     1      49.317   7.595  15.246  0.00  0.00    +0.000 C 
ATOM     10  C   UNL     1      49.123   9.110  15.108  0.00  0.00    +0.000 C 
ATOM     11  O   UNL     1      50.478   9.381  15.534  0.00  0.00    +0.000 OA
ATOM     12  C   UNL     1      50.777   7.967  15.547  0.00  0.00    +0.000 C 
ENDBRANCH   8   9
ENDBRANCH   6   8
ENDBRANCH   1   2
BRANCH   1  13
ATOM     13  C   UNL     1      43.920   5.385  11.111  0.00  0.00    +0.000 C 
BRANCH  13  14
ATOM     14  N   UNL     1      43.771   5.038   9.697  0.00  0.00    +0.000 N 
ATOM     15  H   UNL     1      42.785   4.973   9.418  0.00  0.00    +0.000 HD
BRANCH  14  19
ATOM     16  C   UNL     1      46.200   2.034   8.007  0.00  0.00    +0.000 A 
ATOM     17  C   UNL     1      45.248   1.690   8.970  0.00  0.00    +0.000 A 
ATOM     18  C   UNL     1      44.426   2.670   9.532  0.00  0.00    +0.000 A 
ATOM     19  C   UNL     1      44.517   4.005   9.129  0.00  0.00    +0.000 A 
ATOM     20  C   UNL     1      45.489   4.341   8.175  0.00  0.00    +0.000 A 
ATOM     21  C   UNL     1      46.330   3.368   7.622  0.00  0.00    +0.000 A 
BRANCH  16  23
ATOM     22  N   UNL     1      46.797  -0.293   7.616  0.00  0.00    +0.000 N 
ATOM     23  C   UNL     1      47.112   1.024   7.416  0.00  0.00    +0.000 C 
ATOM     24  O   UNL     1      48.088   1.344   6.750  0.00  0.00    +0.000 OA
ATOM     25  H   UNL     1      47.365  -0.968   7.122  0.00  0.00    +0.000 HD
ATOM     26  H   UNL     1      45.883  -0.585   7.930  0.00  0.00    +0.000 HD
ENDBRANCH  16  23
ENDBRANCH  14  19
ENDBRANCH  13  14
ENDBRANCH   1  13
BRANCH   1  27
ATOM     27  C   UNL     1      44.634   7.815  11.420  0.00  0.00    +0.000 C 
BRANCH  27  28
ATOM     28  O   UNL     1      43.283   7.967  10.980  0.00  0.00    +0.000 OA
ATOM     29  H   UNL     1      42.977   7.090  10.685  0.00  0.00    +0.000 HD
ENDBRANCH  27  28
ENDBRANCH   1  27
TORSDOF 9
ENDMDL
MODEL 4
REMARK VINA RESULT:    -7.348      3.096      4.822
REMARK INTER + INTRA:         -12.064
REMARK INTER:                 -11.189
REMARK INTRA:                  -0.875
REMARK UNBOUND:                -1.064
REMARK  Name = 
REMARK  9 active torsions:
REMARK  status: ('A' for Active; 'I' for Inactive)
REMARK    1  A    between atoms: C_2  and  C_4
REMARK    2  A    between atoms: C_7  and  N_8
REMARK    3  A    between atoms: N_8  and  C_9
REMARK    4  A    between atoms: C_9  and  C_10
REMARK    5  A    between atoms: C_10  and  C_11
REMARK    6  A    between atoms: C_10  and  C_13
REMARK    7  A    between atoms: C_11  and  O_12
REMARK    8  A    between atoms: C_17  and  O_18
REMARK    9  A    between atoms: O_18  and  C_19
REMARK                            x       y       z     vdW  Elec       q    Type
REMARK                         _______ _______ _______ _____ _____    ______ ____
ROOT
ATOM      1  C   UNL     1      44.223   4.871  12.423  0.00  0.00    +0.000 C 
ENDROOT
BRANCH   1   2
ATOM      2  C   UNL     1      45.038   6.143  12.224  0.00  0.00    +0.000 A 
ATOM      3  C   UNL     1      46.435   6.057  12.109  0.00  0.00    +0.000 A 
ATOM      4  C   UNL     1      47.205   7.203  11.891  0.00  0.00    +0.000 A 
ATOM      5  C   UNL     1      46.598   8.457  11.792  0.00  0.00    +0.000 A 
ATOM      6  C   UNL     1      45.219   8.562  11.935  0.00  0.00    +0.000 A 
ATOM      7  C   UNL     1      44.448   7.414  12.156  0.00  0.00    +0.000 A 
BRANCH   6   8
ATOM      8  O   UNL     1      44.497   9.724  11.833  0.00  0.00    +0.000 OA
BRANCH   8   9
ATOM      9  C   UNL     1      43.773  10.005  10.615  0.00  0.00    +0.000 C 
ATOM     10  C   UNL     1      43.556  11.472  10.227  0.00  0.00    +0.000 C 
ATOM     11  O   UNL     1      42.117  11.325  10.250  0.00  0.00    +0.000 OA
ATOM     12  C   UNL     1      42.243   9.978  10.756  0.00  0.00    +0.000 C 
ENDBRANCH   8   9
ENDBRANCH   6   8
ENDBRANCH   1   2
BRANCH   1  13
ATOM     13  C   UNL     1      43.350   4.583  11.181  0.00  0.00    +0.000 C 
BRANCH  13  14
ATOM     14  N   UNL     1      44.023   5.035   9.962  0.00  0.00    +0.000 N 
ATOM     15  H   UNL     1      43.407   5.607   9.371  0.00  0.00    +0.000 HD
BRANCH  14  19
ATOM     16  C   UNL     1      46.470   2.468   7.681  0.00  0.00    +0.000 A 
ATOM     17  C   UNL     1      45.471   1.926   8.494  0.00  0.00    +0.000 A 
ATOM     18  C   UNL     1      44.642   2.762   9.247  0.00  0.00    +0.000 A 
ATOM     19  C   UNL     1      44.774   4.151   9.187  0.00  0.00    +0.000 A 
ATOM     20  C   UNL     1      45.792   4.683   8.382  0.00  0.00    +0.000 A 
ATOM     21  C   UNL     1      46.639   3.851   7.639  0.00  0.00    +0.000 A 
BRANCH  16  23
ATOM     22  N   UNL     1      48.418   2.228   6.242  0.00  0.00    +0.000 N 
ATOM     23  C   UNL     1      47.388   1.607   6.895  0.00  0.00    +0.000 C 
ATOM     24  O   UNL     1      47.257   0.391   6.853  0.00  0.00    +0.000 OA
ATOM     25  H   UNL     1      49.094   1.623   5.798  0.00  0.00    +0.000 HD
ATOM     26  H   UNL     1      48.701   3.172   6.461  0.00  0.00    +0.000 HD
ENDBRANCH  16  23
ENDBRANCH  14  19
ENDBRANCH  13  14
ENDBRANCH   1  13
BRANCH   1  27
ATOM     27  C   UNL     1      45.088   3.649  12.797  0.00  0.00    +0.000 C 
BRANCH  27  28
ATOM     28  O   UNL     1      44.442   2.419  12.463  0.00  0.00    +0.000 OA
ATOM     29  H   UNL     1      43.682   2.640  11.895  0.00  0.00    +0.000 HD
ENDBRANCH  27  28
ENDBRANCH   1  27
TORSDOF 9
ENDMDL
MODEL 5
REMARK VINA RESULT:    -7.329      2.550      4.027
REMARK INTER + INTRA:         -12.036
REMARK INTER:                 -10.992
REMARK INTRA:                  -1.043
REMARK UNBOUND:                -1.064
REMARK  Name = 
REMARK  9 active torsions:
REMARK  status: ('A' for Active; 'I' for Inactive)
REMARK    1  A    between atoms: C_2  and  C_4
REMARK    2  A    between atoms: C_7  and  N_8
REMARK    3  A    between atoms: N_8  and  C_9
REMARK    4  A    between atoms: C_9  and  C_10
REMARK    5  A    between atoms: C_10  and  C_11
REMARK    6  A    between atoms: C_10  and  C_13
REMARK    7  A    between atoms: C_11  and  O_12
REMARK    8  A    between atoms: C_17  and  O_18
REMARK    9  A    between atoms: O_18  and  C_19
REMARK                            x       y       z     vdW  Elec       q    Type
REMARK                         _______ _______ _______ _____ _____    ______ ____
ROOT
ATOM      1  C   UNL     1      45.070   6.495  11.245  0.00  0.00    +0.000 C 
ENDROOT
BRANCH   1   2
ATOM      2  C   UNL     1      46.223   6.507  12.243  0.00  0.00    +0.000 A 
ATOM      3  C   UNL     1      46.270   5.535  13.254  0.00  0.00    +0.000 A 
ATOM      4  C   UNL     1      47.333   5.499  14.161  0.00  0.00    +0.000 A 
ATOM      5  C   UNL     1      48.365   6.438  14.082  0.00  0.00    +0.000 A 
ATOM      6  C   UNL     1      48.315   7.426  13.105  0.00  0.00    +0.000 A 
ATOM      7  C   UNL     1      47.249   7.462  12.199  0.00  0.00    +0.000 A 
BRANCH   6   8
ATOM      8  O   UNL     1      49.272   8.388  12.900  0.00  0.00    +0.000 OA
BRANCH   8   9
ATOM      9  C   UNL     1      49.785   8.607  11.568  0.00  0.00    +0.000 C 
ATOM     10  C   UNL     1      51.235   8.202  11.277  0.00  0.00    +0.000 C 
ATOM     11  O   UNL     1      51.599   9.553  10.909  0.00  0.00    +0.000 OA
ATOM     12  C   UNL     1      50.293  10.032  11.301  0.00  0.00    +0.000 C 
ENDBRANCH   8   9
ENDBRANCH   6   8
ENDBRANCH   1   2
BRANCH   1  13
ATOM     13  C   UNL     1      44.221   5.215  11.408  0.00  0.00    +0.000 C 
BRANCH  13  14
ATOM     14  N   UNL     1      43.859   4.667  10.100  0.00  0.00    +0.000 N 
ATOM     15  H   UNL     1      42.965   4.160  10.128  0.00  0.00    +0.000 HD
BRANCH  14  19
ATOM     16  C   UNL     1      46.531   2.450   7.706  0.00  0.00    +0.000 A 
ATOM     17  C   UNL     1      46.495   3.842   7.592  0.00  0.00    +0.000 A 
ATOM     18  C   UNL     1      45.625   4.594   8.385  0.00  0.00    +0.000 A 
ATOM     19  C   UNL     1      44.794   3.980   9.325  0.00  0.00    +0.000 A 
ATOM     20  C   UNL     1      44.825   2.581   9.419  0.00  0.00    +0.000 A 
ATOM     21  C   UNL     1      45.680   1.818   8.613  0.00  0.00    +0.000 A 
BRANCH  16  23
ATOM     22  N   UNL     1      48.445   2.259   6.215  0.00  0.00    +0.000 N 
ATOM     23  C   UNL     1      47.418   1.620   6.855  0.00  0.00    +0.000 C 
ATOM     24  O   UNL     1      47.265   0.410   6.748  0.00  0.00    +0.000 OA
ATOM     25  H   UNL     1      49.101   1.668   5.724  0.00  0.00    +0.000 HD
ATOM     26  H   UNL     1      48.749   3.185   6.479  0.00  0.00    +0.000 HD
ENDBRANCH  16  23
ENDBRANCH  14  19
ENDBRANCH  13  14
ENDBRANCH   1  13
BRANCH   1  27
ATOM     27  C   UNL     1      44.195   7.764  11.318  0.00  0.00    +0.000 C 
BRANCH  27  28
ATOM     28  O   UNL     1      42.855   7.509  10.890  0.00  0.00    +0.000 OA
ATOM     29  H   UNL     1      42.858   6.645  10.438  0.00  0.00    +0.000 HD
ENDBRANCH  27  28
ENDBRANCH   1  27
TORSDOF 9
ENDMDL
MODEL 6
REMARK VINA RESULT:    -6.734      2.687      7.684
REMARK INTER + INTRA:         -11.145
REMARK INTER:                 -11.054
REMARK INTRA:                  -0.091
REMARK UNBOUND:                -1.064
REMARK  Name = 
REMARK  9 active torsions:
REMARK  status: ('A' for Active; 'I' for Inactive)
REMARK    1  A    between atoms: C_2  and  C_4
REMARK    2  A    between atoms: C_7  and  N_8
REMARK    3  A    between atoms: N_8  and  C_9
REMARK    4  A    between atoms: C_9  and  C_10
REMARK    5  A    between atoms: C_10  and  C_11
REMARK    6  A    between atoms: C_10  and  C_13
REMARK    7  A    between atoms: C_11  and  O_12
REMARK    8  A    between atoms: C_17  and  O_18
REMARK    9  A    between atoms: O_18  and  C_19
REMARK                            x       y       z     vdW  Elec       q    Type
REMARK                         _______ _______ _______ _____ _____    ______ ____
ROOT
ATOM      1  C   UNL     1      45.645   6.423  11.549  0.00  0.00    +0.000 C 
ENDROOT
BRANCH   1   2
ATOM      2  C   UNL     1      45.284   5.247  10.649  0.00  0.00    +0.000 A 
ATOM      3  C   UNL     1      44.377   4.278  11.109  0.00  0.00    +0.000 A 
ATOM      4  C   UNL     1      44.001   3.209  10.293  0.00  0.00    +0.000 A 
ATOM      5  C   UNL     1      44.527   3.079   9.005  0.00  0.00    +0.000 A 
ATOM      6  C   UNL     1      45.450   4.014   8.547  0.00  0.00    +0.000 A 
ATOM      7  C   UNL     1      45.829   5.083   9.367  0.00  0.00    +0.000 A 
BRANCH   6   8
ATOM      8  O   UNL     1      46.021   4.019   7.300  0.00  0.00    +0.000 OA
BRANCH   8   9
ATOM      9  C   UNL     1      46.288   2.764   6.636  0.00  0.00    +0.000 C 
ATOM     10  C   UNL     1      47.396   1.869   7.204  0.00  0.00    +0.000 C 
ATOM     11  O   UNL     1      48.142   1.908   5.965  0.00  0.00    +0.000 OA
ATOM     12  C   UNL     1      47.213   2.868   5.414  0.00  0.00    +0.000 C 
ENDBRANCH   8   9
ENDBRANCH   6   8
ENDBRANCH   1   2
BRANCH   1  13
ATOM     13  C   UNL     1      47.145   6.771  11.415  0.00  0.00    +0.000 C 
BRANCH  13  14
ATOM     14  N   UNL     1      47.696   7.178  12.708  0.00  0.00    +0.000 N 
ATOM     15  H   UNL     1      48.625   7.607  12.613  0.00  0.00    +0.000 HD
BRANCH  14  19
ATOM     16  C   UNL     1      47.631   4.423  15.900  0.00  0.00    +0.000 A 
ATOM     17  C   UNL     1      48.296   5.641  16.055  0.00  0.00    +0.000 A 
ATOM     18  C   UNL     1      48.318   6.572  15.013  0.00  0.00    +0.000 A 
ATOM     19  C   UNL     1      47.657   6.320  13.808  0.00  0.00    +0.000 A 
ATOM     20  C   UNL     1      47.009   5.085  13.657  0.00  0.00    +0.000 A 
ATOM     21  C   UNL     1      46.999   4.139  14.690  0.00  0.00    +0.000 A 
BRANCH  16  23
ATOM     22  N   UNL     1      48.831   2.991  17.461  0.00  0.00    +0.000 N 
ATOM     23  C   UNL     1      47.618   3.399  16.974  0.00  0.00    +0.000 C 
ATOM     24  O   UNL     1      46.573   2.956  17.433  0.00  0.00    +0.000 OA
ATOM     25  H   UNL     1      48.805   2.373  18.261  0.00  0.00    +0.000 HD
ATOM     26  H   UNL     1      49.679   3.510  17.292  0.00  0.00    +0.000 HD
ENDBRANCH  16  23
ENDBRANCH  14  19
ENDBRANCH  13  14
ENDBRANCH   1  13
BRANCH   1  27
ATOM     27  C   UNL     1      44.757   7.662  11.311  0.00  0.00    +0.000 C 
BRANCH  27  28
ATOM     28  O   UNL     1      43.398   7.299  11.055  0.00  0.00    +0.000 OA
ATOM     29  H   UNL     1      43.363   6.936  10.152  0.00  0.00    +0.000 HD
ENDBRANCH  27  28
ENDBRANCH   1  27
TORSDOF 9
ENDMDL
MODEL 7
REMARK VINA RESULT:    -6.405      3.141      7.389
REMARK INTER + INTRA:         -10.651
REMARK INTER:                  -9.848
REMARK INTRA:                  -0.804
REMARK UNBOUND:                -1.064
REMARK  Name = 
REMARK  9 active torsions:
REMARK  status: ('A' for Active; 'I' for Inactive)
REMARK    1  A    between atoms: C_2  and  C_4
REMARK    2  A    between atoms: C_7  and  N_8
REMARK    3  A    between atoms: N_8  and  C_9
REMARK    4  A    between atoms: C_9  and  C_10
REMARK    5  A    between atoms: C_10  and  C_11
REMARK    6  A    between atoms: C_10  and  C_13
REMARK    7  A    between atoms: C_11  and  O_12
REMARK    8  A    between atoms: C_17  and  O_18
REMARK    9  A    between atoms: O_18  and  C_19
REMARK                            x       y       z     vdW  Elec       q    Type
REMARK                         _______ _______ _______ _____ _____    ______ ____
ROOT
ATOM      1  C   UNL     1      44.087   5.432  11.621  0.00  0.00    +0.000 C 
ENDROOT
BRANCH   1   2
ATOM      2  C   UNL     1      44.360   4.249  10.699  0.00  0.00    +0.000 A 
ATOM      3  C   UNL     1      43.782   3.002  10.985  0.00  0.00    +0.000 A 
ATOM      4  C   UNL     1      43.986   1.910  10.138  0.00  0.00    +0.000 A 
ATOM      5  C   UNL     1      44.778   2.037   8.994  0.00  0.00    +0.000 A 
ATOM      6  C   UNL     1      45.384   3.258   8.715  0.00  0.00    +0.000 A 
ATOM      7  C   UNL     1      45.181   4.351   9.566  0.00  0.00    +0.000 A 
BRANCH   6   8
ATOM      8  O   UNL     1      46.161   3.525   7.617  0.00  0.00    +0.000 OA
BRANCH   8   9
ATOM      9  C   UNL     1      46.453   2.465   6.680  0.00  0.00    +0.000 C 
ATOM     10  C   UNL     1      47.597   1.501   7.015  0.00  0.00    +0.000 C 
ATOM     11  O   UNL     1      48.319   1.848   5.809  0.00  0.00    +0.000 OA
ATOM     12  C   UNL     1      47.352   2.877   5.504  0.00  0.00    +0.000 C 
ENDBRANCH   8   9
ENDBRANCH   6   8
ENDBRANCH   1   2
BRANCH   1  13
ATOM     13  C   UNL     1      44.444   6.762  10.922  0.00  0.00    +0.000 C 
BRANCH  13  14
ATOM     14  N   UNL     1      44.937   7.739  11.894  0.00  0.00    +0.000 N 
ATOM     15  H   UNL     1      44.749   8.705  11.598  0.00  0.00    +0.000 HD
BRANCH  14  19
ATOM     16  C   UNL     1      48.718   7.424  13.733  0.00  0.00    +0.000 A 
ATOM     17  C   UNL     1      48.356   6.510  12.741  0.00  0.00    +0.000 A 
ATOM     18  C   UNL     1      47.113   6.607  12.111  0.00  0.00    +0.000 A 
ATOM     19  C   UNL     1      46.216   7.628  12.438  0.00  0.00    +0.000 A 
ATOM     20  C   UNL     1      46.583   8.528  13.449  0.00  0.00    +0.000 A 
ATOM     21  C   UNL     1      47.820   8.426  14.098  0.00  0.00    +0.000 A 
BRANCH  16  23
ATOM     22  N   UNL     1      51.078   7.999  13.899  0.00  0.00    +0.000 N 
ATOM     23  C   UNL     1      50.016   7.329  14.445  0.00  0.00    +0.000 C 
ATOM     24  O   UNL     1      50.135   6.708  15.494  0.00  0.00    +0.000 OA
ATOM     25  H   UNL     1      51.926   8.012  14.446  0.00  0.00    +0.000 HD
ATOM     26  H   UNL     1      50.957   8.714  13.196  0.00  0.00    +0.000 HD
ENDBRANCH  16  23
ENDBRANCH  14  19
ENDBRANCH  13  14
ENDBRANCH   1  13
BRANCH   1  27
ATOM     27  C   UNL     1      42.643   5.453  12.167  0.00  0.00    +0.000 C 
BRANCH  27  28
ATOM     28  O   UNL     1      41.920   6.597  11.710  0.00  0.00    +0.000 OA
ATOM     29  H   UNL     1      41.003   6.311  11.546  0.00  0.00    +0.000 HD
ENDBRANCH  27  28
ENDBRANCH   1  27
TORSDOF 9
ENDMDL
MODEL 8
REMARK VINA RESULT:    -6.339      3.118      8.244
REMARK INTER + INTRA:         -10.553
REMARK INTER:                  -9.912
REMARK INTRA:                  -0.641
REMARK UNBOUND:                -1.064
REMARK  Name = 
REMARK  9 active torsions:
REMARK  status: ('A' for Active; 'I' for Inactive)
REMARK    1  A    between atoms: C_2  and  C_4
REMARK    2  A    between atoms: C_7  and  N_8
REMARK    3  A    between atoms: N_8  and  C_9
REMARK    4  A    between atoms: C_9  and  C_10
REMARK    5  A    between atoms: C_10  and  C_11
REMARK    6  A    between atoms: C_10  and  C_13
REMARK    7  A    between atoms: C_11  and  O_12
REMARK    8  A    between atoms: C_17  and  O_18
REMARK    9  A    between atoms: O_18  and  C_19
REMARK                            x       y       z     vdW  Elec       q    Type
REMARK                         _______ _______ _______ _____ _____    ______ ____
ROOT
ATOM      1  C   UNL     1      45.630   6.921  12.901  0.00  0.00    +0.000 C 
ENDROOT
BRANCH   1   2
ATOM      2  C   UNL     1      45.025   5.956  11.887  0.00  0.00    +0.000 A 
ATOM      3  C   UNL     1      43.828   5.291  12.195  0.00  0.00    +0.000 A 
ATOM      4  C   UNL     1      43.232   4.428  11.272  0.00  0.00    +0.000 A 
ATOM      5  C   UNL     1      43.823   4.206  10.025  0.00  0.00    +0.000 A 
ATOM      6  C   UNL     1      45.025   4.834   9.717  0.00  0.00    +0.000 A 
ATOM      7  C   UNL     1      45.623   5.696  10.645  0.00  0.00    +0.000 A 
BRANCH   6   8
ATOM      8  O   UNL     1      45.694   4.724   8.525  0.00  0.00    +0.000 OA
BRANCH   8   9
ATOM      9  C   UNL     1      45.529   3.533   7.725  0.00  0.00    +0.000 C 
ATOM     10  C   UNL     1      46.059   2.208   8.287  0.00  0.00    +0.000 C 
ATOM     11  O   UNL     1      46.951   2.022   7.163  0.00  0.00    +0.000 OA
ATOM     12  C   UNL     1      46.606   3.327   6.649  0.00  0.00    +0.000 C 
ENDBRANCH   8   9
ENDBRANCH   6   8
ENDBRANCH   1   2
BRANCH   1  13
ATOM     13  C   UNL     1      47.080   6.512  13.244  0.00  0.00    +0.000 C 
BRANCH  13  14
ATOM     14  N   UNL     1      47.101   5.225  13.941  0.00  0.00    +0.000 N 
ATOM     15  H   UNL     1      46.230   4.697  13.801  0.00  0.00    +0.000 HD
BRANCH  14  19
ATOM     16  C   UNL     1      48.453   4.741  17.905  0.00  0.00    +0.000 A 
ATOM     17  C   UNL     1      48.832   5.874  17.182  0.00  0.00    +0.000 A 
ATOM     18  C   UNL     1      48.383   6.057  15.871  0.00  0.00    +0.000 A 
ATOM     19  C   UNL     1      47.530   5.132  15.265  0.00  0.00    +0.000 A 
ATOM     20  C   UNL     1      47.171   3.989  15.995  0.00  0.00    +0.000 A 
ATOM     21  C   UNL     1      47.632   3.788  17.302  0.00  0.00    +0.000 A 
BRANCH  16  23
ATOM     22  N   UNL     1      48.433   3.409  19.943  0.00  0.00    +0.000 N 
ATOM     23  C   UNL     1      48.939   4.498  19.286  0.00  0.00    +0.000 C 
ATOM     24  O   UNL     1      49.779   5.217  19.812  0.00  0.00    +0.000 OA
ATOM     25  H   UNL     1      48.848   3.197  20.840  0.00  0.00    +0.000 HD
ATOM     26  H   UNL     1      47.948   2.668  19.460  0.00  0.00    +0.000 HD
ENDBRANCH  16  23
ENDBRANCH  14  19
ENDBRANCH  13  14
ENDBRANCH   1  13
BRANCH   1  27
ATOM     27  C   UNL     1      45.552   8.396  12.453  0.00  0.00    +0.000 C 
BRANCH  27  28
ATOM     28  O   UNL     1      46.122   9.275  13.424  0.00  0.00    +0.000 OA
ATOM     29  H   UNL     1      46.049  10.180  13.070  0.00  0.00    +0.000 HD
ENDBRANCH  27  28
ENDBRANCH   1  27
TORSDOF 9
ENDMDL
MODEL 9
REMARK VINA RESULT:    -6.079      2.980      5.332
REMARK INTER + INTRA:         -10.163
REMARK INTER:                  -9.384
REMARK INTRA:                  -0.780
REMARK UNBOUND:                -1.064
REMARK  Name = 
REMARK  9 active torsions:
REMARK  status: ('A' for Active; 'I' for Inactive)
REMARK    1  A    between atoms: C_2  and  C_4
REMARK    2  A    between atoms: C_7  and  N_8
REMARK    3  A    between atoms: N_8  and  C_9
REMARK    4  A    between atoms: C_9  and  C_10
REMARK    5  A    between atoms: C_10  and  C_11
REMARK    6  A    between atoms: C_10  and  C_13
REMARK    7  A    between atoms: C_11  and  O_12
REMARK    8  A    between atoms: C_17  and  O_18
REMARK    9  A    between atoms: O_18  and  C_19
REMARK                            x       y       z     vdW  Elec       q    Type
REMARK                         _______ _______ _______ _____ _____    ______ ____
ROOT
ATOM      1  C   UNL     1      49.295   7.778  14.626  0.00  0.00    +0.000 C 
ENDROOT
BRANCH   1   2
ATOM      2  C   UNL     1      49.930   6.858  15.663  0.00  0.00    +0.000 A 
ATOM      3  C   UNL     1      51.311   6.933  15.899  0.00  0.00    +0.000 A 
ATOM      4  C   UNL     1      51.915   6.127  16.868  0.00  0.00    +0.000 A 
ATOM      5  C   UNL     1      51.153   5.225  17.615  0.00  0.00    +0.000 A 
ATOM      6  C   UNL     1      49.788   5.116  17.370  0.00  0.00    +0.000 A 
ATOM      7  C   UNL     1      49.185   5.922  16.397  0.00  0.00    +0.000 A 
BRANCH   6   8
ATOM      8  O   UNL     1      48.924   4.293  18.046  0.00  0.00    +0.000 OA
BRANCH   8   9
ATOM      9  C   UNL     1      48.907   2.881  17.744  0.00  0.00    +0.000 C 
ATOM     10  C   UNL     1      50.169   2.258  17.133  0.00  0.00    +0.000 C 
ATOM     11  O   UNL     1      49.454   1.831  15.950  0.00  0.00    +0.000 OA
ATOM     12  C   UNL     1      48.265   2.520  16.396  0.00  0.00    +0.000 C 
ENDBRANCH   8   9
ENDBRANCH   6   8
ENDBRANCH   1   2
BRANCH   1  13
ATOM     13  C   UNL     1      48.644   6.955  13.492  0.00  0.00    +0.000 C 
BRANCH  13  14
ATOM     14  N   UNL     1      47.187   6.953  13.628  0.00  0.00    +0.000 N 
ATOM     15  H   UNL     1      46.889   7.139  14.594  0.00  0.00    +0.000 HD
BRANCH  14  19
ATOM     16  C   UNL     1      44.929   3.951  11.712  0.00  0.00    +0.000 A 
ATOM     17  C   UNL     1      45.654   3.638  12.864  0.00  0.00    +0.000 A 
ATOM     18  C   UNL     1      46.398   4.623  13.520  0.00  0.00    +0.000 A 
ATOM     19  C   UNL     1      46.414   5.941  13.057  0.00  0.00    +0.000 A 
ATOM     20  C   UNL     1      45.697   6.239  11.889  0.00  0.00    +0.000 A 
ATOM     21  C   UNL     1      44.965   5.253  11.215  0.00  0.00    +0.000 A 
BRANCH  16  23
ATOM     22  N   UNL     1      44.760   2.351   9.885  0.00  0.00    +0.000 N 
ATOM     23  C   UNL     1      44.156   2.922  10.973  0.00  0.00    +0.000 C 
ATOM     24  O   UNL     1      43.040   2.569  11.331  0.00  0.00    +0.000 OA
ATOM     25  H   UNL     1      44.268   1.581   9.455  0.00  0.00    +0.000 HD
ATOM     26  H   UNL     1      45.753   2.428   9.720  0.00  0.00    +0.000 HD
ENDBRANCH  16  23
ENDBRANCH  14  19
ENDBRANCH  13  14
ENDBRANCH   1  13
BRANCH   1  27
ATOM     27  C   UNL     1      48.294   8.780  15.239  0.00  0.00    +0.000 C 
BRANCH  27  28
ATOM     28  O   UNL     1      47.775   9.679  14.257  0.00  0.00    +0.000 OA
ATOM     29  H   UNL     1      47.455   9.138  13.514  0.00  0.00    +0.000 HD
ENDBRANCH  27  28
ENDBRANCH   1  27
TORSDOF 9
ENDMDL
