MODEL 1
REMARK VINA RESULT:    -8.606      0.000      0.000
REMARK INTER + INTRA:         -11.298
REMARK INTER:                 -10.618
REMARK INTRA:                  -0.681
REMARK UNBOUND:                -0.681
REMARK  Name = 
REMARK  4 active torsions:
REMARK  status: ('A' for Active; 'I' for Inactive)
REMARK    1  A    between atoms: C_2  and  C_4
REMARK    2  A    between atoms: C_7  and  C_8
REMARK    3  A    between atoms: C_8  and  C_9
REMARK    4  A    between atoms: C_9  and  C_10
REMARK                            x       y       z     vdW  Elec       q    Type
REMARK                         _______ _______ _______ _____ _____    ______ ____
ROOT
ATOM      1  C   UNL     1      46.388   2.312   7.769  0.00  0.00    +0.000 A 
ATOM      2  C   UNL     1      46.333   3.700   7.606  0.00  0.00    +0.000 A 
ATOM      3  C   UNL     1      45.445   4.465   8.373  0.00  0.00    +0.000 A 
ATOM      4  C   UNL     1      44.590   3.861   9.302  0.00  0.00    +0.000 A 
ATOM      5  C   UNL     1      44.635   2.462   9.435  0.00  0.00    +0.000 A 
ATOM      6  C   UNL     1      45.517   1.692   8.668  0.00  0.00    +0.000 A 
ENDROOT
BRANCH   1   8
ATOM      7  N   UNL     1      48.477   2.085   6.541  0.00  0.00    +0.000 N 
ATOM      8  C   UNL     1      47.356   1.468   7.024  0.00  0.00    +0.000 C 
ATOM      9  O   UNL     1      47.193   0.261   6.891  0.00  0.00    +0.000 OA
ATOM     10  H   UNL     1      49.188   1.479   6.152  0.00  0.00    +0.000 HD
ATOM     11  H   UNL     1      48.763   2.999   6.860  0.00  0.00    +0.000 HD
ENDBRANCH   1   8
BRANCH   4  12
ATOM     12  C   UNL     1      43.719   4.649  10.260  0.00  0.00    +0.000 C 
BRANCH  12  13
ATOM     13  C   UNL     1      44.110   4.595  11.728  0.00  0.00    +0.000 C 
ATOM     14  C   UNL     1      43.495   3.510  12.603  0.00  0.00    +0.000 C 
ATOM     15  C   UNL     1      43.006   4.916  12.740  0.00  0.00    +0.000 C 
BRANCH  13  16
ATOM     16  C   UNL     1      45.492   5.129  12.099  0.00  0.00    +0.000 A 
ATOM     17  C   UNL     1      46.000   6.278  11.477  0.00  0.00    +0.000 A 
ATOM     18  C   UNL     1      47.165   6.873  11.958  0.00  0.00    +0.000 A 
ATOM     19  C   UNL     1      47.811   6.292  13.033  0.00  0.00    +0.000 A 
ATOM     20  F   UNL     1      48.908   6.858  13.551  0.00  0.00    +0.000 F 
ATOM     21  C   UNL     1      47.290   5.134  13.575  0.00  0.00    +0.000 A 
ATOM     22  N   UNL     1      46.151   4.547  13.137  0.00  0.00    +0.000 NA
ENDBRANCH  13  16
ENDBRANCH  12  13
ENDBRANCH   4  12
TORSDOF 4
ENDMDL
MODEL 2
REMARK VINA RESULT:    -8.402      0.693      1.547
REMARK INTER + INTRA:         -11.048
REMARK INTER:                 -10.308
REMARK INTRA:                  -0.740
REMARK UNBOUND:                -0.681
REMARK  Name = 
REMARK  4 active torsions:
REMARK  status: ('A' for Active; 'I' for Inactive)
REMARK    1  A    between atoms: C_2  and  C_4
REMARK    2  A    between atoms: C_7  and  C_8
REMARK    3  A    between atoms: C_8  and  C_9
REMARK    4  A    between atoms: C_9  and  C_10
REMARK                            x       y       z     vdW  Elec       q    Type
REMARK                         _______ _______ _______ _____ _____    ______ ____
ROOT
ATOM      1  C   UNL     1      46.451   2.467   7.715  0.00  0.00    +0.000 A 
ATOM      2  C   UNL     1      45.669   1.778   8.647  0.00  0.00    +0.000 A 
ATOM      3  C   UNL     1      44.833   2.483   9.523  0.00  0.00    +0.000 A 
ATOM      4  C   UNL     1      44.773   3.882   9.494  0.00  0.00    +0.000 A 
ATOM      5  C   UNL     1      45.586   4.562   8.571  0.00  0.00    +0.000 A 
ATOM      6  C   UNL     1      46.426   3.863   7.696  0.00  0.00    +0.000 A 
ENDROOT
BRANCH   1   8
ATOM      7  N   UNL     1      48.312   2.482   6.146  0.00  0.00    +0.000 N 
ATOM      8  C   UNL     1      47.304   1.761   6.725  0.00  0.00    +0.000 C 
ATOM      9  O   UNL     1      47.155   0.571   6.476  0.00  0.00    +0.000 OA
ATOM     10  H   UNL     1      48.964   1.959   5.576  0.00  0.00    +0.000 HD
ATOM     11  H   UNL     1      48.621   3.366   6.522  0.00  0.00    +0.000 HD
ENDBRANCH   1   8
BRANCH   4  12
ATOM     12  C   UNL     1      43.782   4.685  10.311  0.00  0.00    +0.000 C 
BRANCH  12  13
ATOM     13  C   UNL     1      44.034   4.745  11.809  0.00  0.00    +0.000 C 
ATOM     14  C   UNL     1      43.396   3.681  12.695  0.00  0.00    +0.000 C 
ATOM     15  C   UNL     1      42.823   5.062  12.692  0.00  0.00    +0.000 C 
BRANCH  13  16
ATOM     16  C   UNL     1      45.344   5.380  12.268  0.00  0.00    +0.000 A 
ATOM     17  C   UNL     1      46.108   4.779  13.279  0.00  0.00    +0.000 A 
ATOM     18  C   UNL     1      47.392   5.248  13.553  0.00  0.00    +0.000 A 
ATOM     19  C   UNL     1      47.875   6.322  12.828  0.00  0.00    +0.000 A 
ATOM     20  F   UNL     1      49.118   6.773  13.032  0.00  0.00    +0.000 F 
ATOM     21  C   UNL     1      47.059   6.903  11.878  0.00  0.00    +0.000 A 
ATOM     22  N   UNL     1      45.815   6.456  11.582  0.00  0.00    +0.000 NA
ENDBRANCH  13  16
ENDBRANCH  12  13
ENDBRANCH   4  12
TORSDOF 4
ENDMDL
MODEL 3
REMARK VINA RESULT:    -6.380      3.736      6.220
REMARK INTER + INTRA:          -8.553
REMARK INTER:                  -8.108
REMARK INTRA:                  -0.446
REMARK UNBOUND:                -0.681
REMARK  Name = 
REMARK  4 active torsions:
REMARK  status: ('A' for Active; 'I' for Inactive)
REMARK    1  A    between atoms: C_2  and  C_4
REMARK    2  A    between atoms: C_7  and  C_8
REMARK    3  A    between atoms: C_8  and  C_9
REMARK    4  A    between atoms: C_9  and  C_10
REMARK                            x       y       z     vdW  Elec       q    Type
REMARK                         _______ _______ _______ _____ _____    ______ ____
ROOT
ATOM      1  C   UNL     1      48.307   6.631  13.909  0.00  0.00    +0.000 A 
ATOM      2  C   UNL     1      47.765   6.824  12.634  0.00  0.00    +0.000 A 
ATOM      3  C   UNL     1      46.727   6.002  12.177  0.00  0.00    +0.000 A 
ATOM      4  C   UNL     1      46.224   4.967  12.975  0.00  0.00    +0.000 A 
ATOM      5  C   UNL     1      46.797   4.765  14.242  0.00  0.00    +0.000 A 
ATOM      6  C   UNL     1      47.837   5.582  14.702  0.00  0.00    +0.000 A 
ENDROOT
BRANCH   1   8
ATOM      7  N   UNL     1      50.555   7.557  13.787  0.00  0.00    +0.000 N 
ATOM      8  C   UNL     1      49.365   7.517  14.460  0.00  0.00    +0.000 C 
ATOM      9  O   UNL     1      49.169   8.226  15.439  0.00  0.00    +0.000 OA
ATOM     10  H   UNL     1      51.217   8.257  14.093  0.00  0.00    +0.000 HD
ATOM     11  H   UNL     1      50.651   7.200  12.847  0.00  0.00    +0.000 HD
ENDBRANCH   1   8
BRANCH   4  12
ATOM     12  C   UNL     1      45.008   4.146  12.594  0.00  0.00    +0.000 C 
BRANCH  12  13
ATOM     13  C   UNL     1      44.296   4.549  11.313  0.00  0.00    +0.000 C 
ATOM     14  C   UNL     1      43.669   5.936  11.238  0.00  0.00    +0.000 C 
ATOM     15  C   UNL     1      42.780   4.746  11.409  0.00  0.00    +0.000 C 
BRANCH  13  16
ATOM     16  C   UNL     1      44.775   3.898  10.017  0.00  0.00    +0.000 A 
ATOM     17  C   UNL     1      45.363   4.675   9.008  0.00  0.00    +0.000 A 
ATOM     18  C   UNL     1      45.977   4.055   7.921  0.00  0.00    +0.000 A 
ATOM     19  C   UNL     1      45.968   2.675   7.853  0.00  0.00    +0.000 A 
ATOM     20  F   UNL     1      46.585   2.042   6.848  0.00  0.00    +0.000 F 
ATOM     21  C   UNL     1      45.333   1.964   8.852  0.00  0.00    +0.000 A 
ATOM     22  N   UNL     1      44.744   2.542   9.926  0.00  0.00    +0.000 NA
ENDBRANCH  13  16
ENDBRANCH  12  13
ENDBRANCH   4  12
TORSDOF 4
ENDMDL
MODEL 4
REMARK VINA RESULT:    -6.376      3.897      6.458
REMARK INTER + INTRA:          -8.547
REMARK INTER:                  -8.171
REMARK INTRA:                  -0.376
REMARK UNBOUND:                -0.681
REMARK  Name = 
REMARK  4 active torsions:
REMARK  status: ('A' for Active; 'I' for Inactive)
REMARK    1  A    between atoms: C_2  and  C_4
REMARK    2  A    between atoms: C_7  and  C_8
REMARK    3  A    between atoms: C_8  and  C_9
REMARK    4  A    between atoms: C_9  and  C_10
REMARK                            x       y       z     vdW  Elec       q    Type
REMARK                         _______ _______ _______ _____ _____    ______ ____
ROOT
ATOM      1  C   UNL     1      47.139   8.969  12.198  0.00  0.00    +0.000 A 
ATOM      2  C   UNL     1      45.789   8.805  12.527  0.00  0.00    +0.000 A 
ATOM      3  C   UNL     1      45.203   7.534  12.483  0.00  0.00    +0.000 A 
ATOM      4  C   UNL     1      45.944   6.411  12.097  0.00  0.00    +0.000 A 
ATOM      5  C   UNL     1      47.291   6.595  11.740  0.00  0.00    +0.000 A 
ATOM      6  C   UNL     1      47.882   7.863  11.779  0.00  0.00    +0.000 A 
ENDROOT
BRANCH   1   8
ATOM      7  N   UNL     1      47.052  11.359  12.651  0.00  0.00    +0.000 N 
ATOM      8  C   UNL     1      47.820  10.286  12.291  0.00  0.00    +0.000 C 
ATOM      9  O   UNL     1      49.025  10.404  12.110  0.00  0.00    +0.000 OA
ATOM     10  H   UNL     1      47.548  12.220  12.838  0.00  0.00    +0.000 HD
ATOM     11  H   UNL     1      46.135  11.248  13.059  0.00  0.00    +0.000 HD
ENDBRANCH   1   8
BRANCH   4  12
ATOM     12  C   UNL     1      45.404   4.997  12.173  0.00  0.00    +0.000 C 
BRANCH  12  13
ATOM     13  C   UNL     1      44.376   4.610  11.122  0.00  0.00    +0.000 C 
ATOM     14  C   UNL     1      43.102   5.440  11.014  0.00  0.00    +0.000 C 
ATOM     15  C   UNL     1      43.034   4.085  11.642  0.00  0.00    +0.000 C 
BRANCH  13  16
ATOM     16  C   UNL     1      44.894   3.910   9.868  0.00  0.00    +0.000 A 
ATOM     17  C   UNL     1      45.506   4.647   8.845  0.00  0.00    +0.000 A 
ATOM     18  C   UNL     1      46.153   3.987   7.801  0.00  0.00    +0.000 A 
ATOM     19  C   UNL     1      46.152   2.604   7.790  0.00  0.00    +0.000 A 
ATOM     20  F   UNL     1      46.799   1.934   6.830  0.00  0.00    +0.000 F 
ATOM     21  C   UNL     1      45.492   1.932   8.800  0.00  0.00    +0.000 A 
ATOM     22  N   UNL     1      44.871   2.550   9.832  0.00  0.00    +0.000 NA
ENDBRANCH  13  16
ENDBRANCH  12  13
ENDBRANCH   4  12
TORSDOF 4
ENDMDL
MODEL 5
REMARK VINA RESULT:    -5.630      1.599      2.413
REMARK INTER + INTRA:          -7.627
REMARK INTER:                  -8.155
REMARK INTRA:                   0.528
REMARK UNBOUND:                -0.681
REMARK  Name = 
REMARK  4 active torsions:
REMARK  status: ('A' for Active; 'I' for Inactive)
REMARK    1  A    between atoms: C_2  and  C_4
REMARK    2  A    between atoms: C_7  and  C_8
REMARK    3  A    between atoms: C_8  and  C_9
REMARK    4  A    between atoms: C_9  and  C_10
REMARK                            x       y       z     vdW  Elec       q    Type
REMARK                         _______ _______ _______ _____ _____    ______ ____
ROOT
ATOM      1  C   UNL     1      46.364   2.176   7.855  0.00  0.00    +0.000 A 
ATOM      2  C   UNL     1      45.475   1.661   8.804  0.00  0.00    +0.000 A 
ATOM      3  C   UNL     1      44.685   2.525   9.573  0.00  0.00    +0.000 A 
ATOM      4  C   UNL     1      44.778   3.914   9.420  0.00  0.00    +0.000 A 
ATOM      5  C   UNL     1      45.697   4.419   8.483  0.00  0.00    +0.000 A 
ATOM      6  C   UNL     1      46.491   3.560   7.715  0.00  0.00    +0.000 A 
ENDROOT
BRANCH   1   8
ATOM      7  N   UNL     1      46.866  -0.035   6.970  0.00  0.00    +0.000 N 
ATOM      8  C   UNL     1      47.175   1.297   6.974  0.00  0.00    +0.000 C 
ATOM      9  O   UNL     1      48.046   1.746   6.239  0.00  0.00    +0.000 OA
ATOM     10  H   UNL     1      47.334  -0.600   6.274  0.00  0.00    +0.000 HD
ATOM     11  H   UNL     1      45.999  -0.384   7.352  0.00  0.00    +0.000 HD
ENDBRANCH   1   8
BRANCH   4  12
ATOM     12  C   UNL     1      43.847   4.887  10.114  0.00  0.00    +0.000 C 
BRANCH  12  13
ATOM     13  C   UNL     1      44.464   5.753  11.200  0.00  0.00    +0.000 C 
ATOM     14  C   UNL     1      43.808   7.091  11.520  0.00  0.00    +0.000 C 
ATOM     15  C   UNL     1      45.085   7.077  10.744  0.00  0.00    +0.000 C 
BRANCH  13  16
ATOM     16  C   UNL     1      45.228   5.037  12.311  0.00  0.00    +0.000 A 
ATOM     17  C   UNL     1      45.251   3.636  12.367  0.00  0.00    +0.000 A 
ATOM     18  C   UNL     1      46.109   2.989  13.256  0.00  0.00    +0.000 A 
ATOM     19  C   UNL     1      46.905   3.755  14.086  0.00  0.00    +0.000 A 
ATOM     20  F   UNL     1      47.772   3.172  14.921  0.00  0.00    +0.000 F 
ATOM     21  C   UNL     1      46.805   5.131  14.018  0.00  0.00    +0.000 A 
ATOM     22  N   UNL     1      45.993   5.783  13.153  0.00  0.00    +0.000 NA
ENDBRANCH  13  16
ENDBRANCH  12  13
ENDBRANCH   4  12
TORSDOF 4
ENDMDL
