MODEL 1
REMARK VINA RESULT:    -8.380      0.000      0.000
REMARK INTER + INTRA:         -13.606
REMARK INTER:                 -12.299
REMARK INTRA:                  -1.307
REMARK UNBOUND:                -1.307
REMARK  Name = 
REMARK  9 active torsions:
REMARK  status: ('A' for Active; 'I' for Inactive)
REMARK    1  A    between atoms: C_1  and  O_2
REMARK    2  A    between atoms: O_2  and  C_3
REMARK    3  A    between atoms: C_10  and  C_11
REMARK    4  A    between atoms: N_13  and  C_14
REMARK    5  A    between atoms: C_14  and  C_15
REMARK    6  A    between atoms: C_18  and  N_19
REMARK    7  A    between atoms: N_19  and  C_20
REMARK    8  A    between atoms: C_20  and  C_21
REMARK    9  A    between atoms: C_21  and  C_22
REMARK                            x       y       z     vdW  Elec       q    Type
REMARK                         _______ _______ _______ _____ _____    ______ ____
ROOT
ATOM      1  C   UNL     1      47.151   8.274  13.263  0.00  0.00    +0.000 C 
ENDROOT
BRANCH   1   2
ATOM      2  C   UNL     1      46.248   7.415  12.420  0.00  0.00    +0.000 A 
ATOM      3  C   UNL     1      46.773   6.638  11.383  0.00  0.00    +0.000 A 
ATOM      4  C   UNL     1      45.937   5.832  10.606  0.00  0.00    +0.000 A 
ATOM      5  C   UNL     1      44.564   5.761  10.863  0.00  0.00    +0.000 A 
ATOM      6  C   UNL     1      44.035   6.597  11.849  0.00  0.00    +0.000 A 
ATOM      7  C   UNL     1      44.865   7.408  12.631  0.00  0.00    +0.000 A 
BRANCH   5   8
ATOM      8  N   UNL     1      43.670   4.965  10.129  0.00  0.00    +0.000 N 
ATOM      9  H   UNL     1      42.827   5.510   9.940  0.00  0.00    +0.000 HD
BRANCH   8  10
ATOM     10  C   UNL     1      44.162   4.335   8.893  0.00  0.00    +0.000 C 
BRANCH  10  11
ATOM     11  C   UNL     1      44.525   2.861   9.120  0.00  0.00    +0.000 C 
BRANCH  11  12
ATOM     12  C   UNL     1      45.687   2.407   8.276  0.00  0.00    +0.000 A 
ATOM     13  C   UNL     1      46.319   3.314   7.425  0.00  0.00    +0.000 A 
ATOM     14  C   UNL     1      47.359   2.866   6.619  0.00  0.00    +0.000 A 
ATOM     15  C   UNL     1      47.733   1.529   6.667  0.00  0.00    +0.000 A 
ATOM     16  C   UNL     1      47.040   0.688   7.522  0.00  0.00    +0.000 A 
ATOM     17  N   UNL     1      46.029   1.097   8.318  0.00  0.00    +0.000 NA
ENDBRANCH  11  12
ENDBRANCH  10  11
ENDBRANCH   8  10
ENDBRANCH   5   8
ENDBRANCH   1   2
BRANCH   1  20
ATOM     18  C   UNL     1      48.703   6.882  14.547  0.00  0.00    +0.000 C 
ATOM     19  O   UNL     1      49.453   6.793  13.578  0.00  0.00    +0.000 OA
ATOM     20  N   UNL     1      47.539   7.595  14.474  0.00  0.00    +0.000 N 
ATOM     21  H   UNL     1      46.900   7.622  15.259  0.00  0.00    +0.000 HD
BRANCH  18  29
ATOM     22  C   UNL     1      47.298   4.263  16.298  0.00  0.00    +0.000 A 
ATOM     23  N   UNL     1      46.968   3.293  17.174  0.00  0.00    +0.000 NA
ATOM     24  C   UNL     1      47.708   3.161  18.277  0.00  0.00    +0.000 A 
ATOM     25  N   UNL     1      48.759   3.897  18.628  0.00  0.00    +0.000 NA
ATOM     26  C   UNL     1      49.059   4.846  17.726  0.00  0.00    +0.000 A 
ATOM     27  S   UNL     1      50.372   5.881  18.014  0.00  0.00    +0.000 S 
ATOM     28  C   UNL     1      50.102   6.708  16.556  0.00  0.00    +0.000 A 
ATOM     29  C   UNL     1      49.025   6.223  15.822  0.00  0.00    +0.000 A 
ATOM     30  C   UNL     1      48.399   5.107  16.527  0.00  0.00    +0.000 A 
BRANCH  22  32
ATOM     31  C   UNL     1      47.137   3.652  14.049  0.00  0.00    +0.000 C 
ATOM     32  O   UNL     1      46.556   4.366  15.139  0.00  0.00    +0.000 OA
ENDBRANCH  22  32
ENDBRANCH  18  29
ENDBRANCH   1  20
TORSDOF 8
ENDMDL
MODEL 2
REMARK VINA RESULT:    -7.648      2.483      3.178
REMARK INTER + INTRA:         -12.532
REMARK INTER:                 -11.390
REMARK INTRA:                  -1.141
REMARK UNBOUND:                -1.307
REMARK  Name = 
REMARK  9 active torsions:
REMARK  status: ('A' for Active; 'I' for Inactive)
REMARK    1  A    between atoms: C_1  and  O_2
REMARK    2  A    between atoms: O_2  and  C_3
REMARK    3  A    between atoms: C_10  and  C_11
REMARK    4  A    between atoms: N_13  and  C_14
REMARK    5  A    between atoms: C_14  and  C_15
REMARK    6  A    between atoms: C_18  and  N_19
REMARK    7  A    between atoms: N_19  and  C_20
REMARK    8  A    between atoms: C_20  and  C_21
REMARK    9  A    between atoms: C_21  and  C_22
REMARK                            x       y       z     vdW  Elec       q    Type
REMARK                         _______ _______ _______ _____ _____    ______ ____
ROOT
ATOM      1  C   UNL     1      48.366   6.451  14.069  0.00  0.00    +0.000 C 
ENDROOT
BRANCH   1   2
ATOM      2  C   UNL     1      47.195   5.924  13.286  0.00  0.00    +0.000 A 
ATOM      3  C   UNL     1      46.686   6.642  12.200  0.00  0.00    +0.000 A 
ATOM      4  C   UNL     1      45.604   6.149  11.465  0.00  0.00    +0.000 A 
ATOM      5  C   UNL     1      45.023   4.916  11.780  0.00  0.00    +0.000 A 
ATOM      6  C   UNL     1      45.486   4.240  12.913  0.00  0.00    +0.000 A 
ATOM      7  C   UNL     1      46.568   4.728  13.654  0.00  0.00    +0.000 A 
BRANCH   5   8
ATOM      8  N   UNL     1      43.942   4.357  11.080  0.00  0.00    +0.000 N 
ATOM      9  H   UNL     1      43.135   4.974  11.177  0.00  0.00    +0.000 HD
BRANCH   8  10
ATOM     10  C   UNL     1      44.148   3.999   9.666  0.00  0.00    +0.000 C 
BRANCH  10  11
ATOM     11  C   UNL     1      44.623   2.546   9.519  0.00  0.00    +0.000 C 
BRANCH  11  12
ATOM     12  C   UNL     1      45.631   2.369   8.413  0.00  0.00    +0.000 A 
ATOM     13  C   UNL     1      45.846   3.403   7.502  0.00  0.00    +0.000 A 
ATOM     14  C   UNL     1      46.746   3.204   6.461  0.00  0.00    +0.000 A 
ATOM     15  C   UNL     1      47.395   1.981   6.343  0.00  0.00    +0.000 A 
ATOM     16  C   UNL     1      47.109   0.999   7.276  0.00  0.00    +0.000 A 
ATOM     17  N   UNL     1      46.242   1.165   8.299  0.00  0.00    +0.000 NA
ENDBRANCH  11  12
ENDBRANCH  10  11
ENDBRANCH   8  10
ENDBRANCH   5   8
ENDBRANCH   1   2
BRANCH   1  20
ATOM     18  C   UNL     1      49.088   6.321  16.405  0.00  0.00    +0.000 C 
ATOM     19  O   UNL     1      50.257   6.176  16.055  0.00  0.00    +0.000 OA
ATOM     20  N   UNL     1      48.088   6.461  15.484  0.00  0.00    +0.000 N 
ATOM     21  H   UNL     1      47.122   6.531  15.777  0.00  0.00    +0.000 HD
BRANCH  18  29
ATOM     22  C   UNL     1      47.759   8.739  18.476  0.00  0.00    +0.000 A 
ATOM     23  N   UNL     1      47.254   9.470  19.490  0.00  0.00    +0.000 NA
ATOM     24  C   UNL     1      47.148   8.896  20.690  0.00  0.00    +0.000 A 
ATOM     25  N   UNL     1      47.494   7.654  21.015  0.00  0.00    +0.000 NA
ATOM     26  C   UNL     1      47.985   6.957  19.977  0.00  0.00    +0.000 A 
ATOM     27  S   UNL     1      48.481   5.352  20.214  0.00  0.00    +0.000 S 
ATOM     28  C   UNL     1      48.933   5.201  18.584  0.00  0.00    +0.000 A 
ATOM     29  C   UNL     1      48.717   6.349  17.829  0.00  0.00    +0.000 A 
ATOM     30  C   UNL     1      48.151   7.402  18.668  0.00  0.00    +0.000 A 
BRANCH  22  32
ATOM     31  C   UNL     1      49.085   9.951  16.983  0.00  0.00    +0.000 C 
ATOM     32  O   UNL     1      47.826   9.325  17.228  0.00  0.00    +0.000 OA
ENDBRANCH  22  32
ENDBRANCH  18  29
ENDBRANCH   1  20
TORSDOF 8
ENDMDL
MODEL 3
REMARK VINA RESULT:    -7.515      1.981      2.262
REMARK INTER + INTRA:         -12.337
REMARK INTER:                 -11.079
REMARK INTRA:                  -1.259
REMARK UNBOUND:                -1.307
REMARK  Name = 
REMARK  9 active torsions:
REMARK  status: ('A' for Active; 'I' for Inactive)
REMARK    1  A    between atoms: C_1  and  O_2
REMARK    2  A    between atoms: O_2  and  C_3
REMARK    3  A    between atoms: C_10  and  C_11
REMARK    4  A    between atoms: N_13  and  C_14
REMARK    5  A    between atoms: C_14  and  C_15
REMARK    6  A    between atoms: C_18  and  N_19
REMARK    7  A    between atoms: N_19  and  C_20
REMARK    8  A    between atoms: C_20  and  C_21
REMARK    9  A    between atoms: C_21  and  C_22
REMARK                            x       y       z     vdW  Elec       q    Type
REMARK                         _______ _______ _______ _____ _____    ______ ____
ROOT
ATOM      1  C   UNL     1      48.365   6.905  13.427  0.00  0.00    +0.000 C 
ENDROOT
BRANCH   1   2
ATOM      2  C   UNL     1      47.177   6.267  12.762  0.00  0.00    +0.000 A 
ATOM      3  C   UNL     1      46.814   6.626  11.460  0.00  0.00    +0.000 A 
ATOM      4  C   UNL     1      45.715   6.027  10.838  0.00  0.00    +0.000 A 
ATOM      5  C   UNL     1      44.972   5.036  11.488  0.00  0.00    +0.000 A 
ATOM      6  C   UNL     1      45.293   4.736  12.815  0.00  0.00    +0.000 A 
ATOM      7  C   UNL     1      46.390   5.333  13.445  0.00  0.00    +0.000 A 
BRANCH   5   8
ATOM      8  N   UNL     1      43.865   4.386  10.919  0.00  0.00    +0.000 N 
ATOM      9  H   UNL     1      43.062   5.014  10.955  0.00  0.00    +0.000 HD
BRANCH   8  10
ATOM     10  C   UNL     1      44.017   3.824   9.566  0.00  0.00    +0.000 C 
BRANCH  10  11
ATOM     11  C   UNL     1      44.782   2.493   9.593  0.00  0.00    +0.000 C 
BRANCH  11  12
ATOM     12  C   UNL     1      45.750   2.350   8.448  0.00  0.00    +0.000 A 
ATOM     13  C   UNL     1      45.979   3.432   7.599  0.00  0.00    +0.000 A 
ATOM     14  C   UNL     1      46.841   3.267   6.520  0.00  0.00    +0.000 A 
ATOM     15  C   UNL     1      47.437   2.031   6.304  0.00  0.00    +0.000 A 
ATOM     16  C   UNL     1      47.139   1.002   7.181  0.00  0.00    +0.000 A 
ATOM     17  N   UNL     1      46.310   1.134   8.239  0.00  0.00    +0.000 NA
ENDBRANCH  11  12
ENDBRANCH  10  11
ENDBRANCH   8  10
ENDBRANCH   5   8
ENDBRANCH   1   2
BRANCH   1  20
ATOM     18  C   UNL     1      48.968   7.905  15.579  0.00  0.00    +0.000 C 
ATOM     19  O   UNL     1      49.980   8.398  15.088  0.00  0.00    +0.000 OA
ATOM     20  N   UNL     1      48.115   7.148  14.826  0.00  0.00    +0.000 N 
ATOM     21  H   UNL     1      47.309   6.703  15.248  0.00  0.00    +0.000 HD
BRANCH  18  29
ATOM     22  C   UNL     1      48.212   5.766  18.178  0.00  0.00    +0.000 A 
ATOM     23  N   UNL     1      47.897   5.180  19.351  0.00  0.00    +0.000 NA
ATOM     24  C   UNL     1      47.677   5.964  20.409  0.00  0.00    +0.000 A 
ATOM     25  N   UNL     1      47.731   7.293  20.444  0.00  0.00    +0.000 NA
ATOM     26  C   UNL     1      48.054   7.837  19.259  0.00  0.00    +0.000 A 
ATOM     27  S   UNL     1      48.164   9.524  19.121  0.00  0.00    +0.000 S 
ATOM     28  C   UNL     1      48.569   9.411  17.476  0.00  0.00    +0.000 A 
ATOM     29  C   UNL     1      48.634   8.107  16.998  0.00  0.00    +0.000 A 
ATOM     30  C   UNL     1      48.322   7.163  18.069  0.00  0.00    +0.000 A 
BRANCH  22  32
ATOM     31  C   UNL     1      49.202   3.774  17.466  0.00  0.00    +0.000 C 
ATOM     32  O   UNL     1      48.478   4.948  17.099  0.00  0.00    +0.000 OA
ENDBRANCH  22  32
ENDBRANCH  18  29
ENDBRANCH   1  20
TORSDOF 8
ENDMDL
MODEL 4
REMARK VINA RESULT:    -7.463      1.475      2.018
REMARK INTER + INTRA:         -12.260
REMARK INTER:                 -11.221
REMARK INTRA:                  -1.039
REMARK UNBOUND:                -1.307
REMARK  Name = 
REMARK  9 active torsions:
REMARK  status: ('A' for Active; 'I' for Inactive)
REMARK    1  A    between atoms: C_1  and  O_2
REMARK    2  A    between atoms: O_2  and  C_3
REMARK    3  A    between atoms: C_10  and  C_11
REMARK    4  A    between atoms: N_13  and  C_14
REMARK    5  A    between atoms: C_14  and  C_15
REMARK    6  A    between atoms: C_18  and  N_19
REMARK    7  A    between atoms: N_19  and  C_20
REMARK    8  A    between atoms: C_20  and  C_21
REMARK    9  A    between atoms: C_21  and  C_22
REMARK                            x       y       z     vdW  Elec       q    Type
REMARK                         _______ _______ _______ _____ _____    ______ ____
ROOT
ATOM      1  C   UNL     1      47.356   7.837  13.667  0.00  0.00    +0.000 C 
ENDROOT
BRANCH   1   2
ATOM      2  C   UNL     1      46.712   6.611  13.082  0.00  0.00    +0.000 A 
ATOM      3  C   UNL     1      46.035   6.679  11.861  0.00  0.00    +0.000 A 
ATOM      4  C   UNL     1      45.445   5.537  11.311  0.00  0.00    +0.000 A 
ATOM      5  C   UNL     1      45.540   4.298  11.952  0.00  0.00    +0.000 A 
ATOM      6  C   UNL     1      46.151   4.252  13.208  0.00  0.00    +0.000 A 
ATOM      7  C   UNL     1      46.744   5.391  13.766  0.00  0.00    +0.000 A 
BRANCH   5   8
ATOM      8  N   UNL     1      44.980   3.111  11.452  0.00  0.00    +0.000 N 
ATOM      9  H   UNL     1      44.430   2.672  12.191  0.00  0.00    +0.000 HD
BRANCH   8  10
ATOM     10  C   UNL     1      44.198   3.189  10.207  0.00  0.00    +0.000 C 
BRANCH  10  11
ATOM     11  C   UNL     1      44.429   1.957   9.321  0.00  0.00    +0.000 C 
BRANCH  11  12
ATOM     12  C   UNL     1      45.580   2.130   8.366  0.00  0.00    +0.000 A 
ATOM     13  C   UNL     1      45.748   3.343   7.698  0.00  0.00    +0.000 A 
ATOM     14  C   UNL     1      46.789   3.469   6.785  0.00  0.00    +0.000 A 
ATOM     15  C   UNL     1      47.624   2.384   6.548  0.00  0.00    +0.000 A 
ATOM     16  C   UNL     1      47.377   1.209   7.236  0.00  0.00    +0.000 A 
ATOM     17  N   UNL     1      46.376   1.059   8.130  0.00  0.00    +0.000 NA
ENDBRANCH  11  12
ENDBRANCH  10  11
ENDBRANCH   8  10
ENDBRANCH   5   8
ENDBRANCH   1   2
BRANCH   1  20
ATOM     18  C   UNL     1      49.624   7.362  14.459  0.00  0.00    +0.000 C 
ATOM     19  O   UNL     1      50.074   7.532  13.329  0.00  0.00    +0.000 OA
ATOM     20  N   UNL     1      48.287   7.491  14.713  0.00  0.00    +0.000 N 
ATOM     21  H   UNL     1      47.916   7.301  15.635  0.00  0.00    +0.000 HD
BRANCH  18  29
ATOM     22  C   UNL     1      49.307   5.246  17.164  0.00  0.00    +0.000 A 
ATOM     23  N   UNL     1      49.457   4.511  18.285  0.00  0.00    +0.000 NA
ATOM     24  C   UNL     1      50.599   4.626  18.966  0.00  0.00    +0.000 A 
ATOM     25  N   UNL     1      51.635   5.404  18.665  0.00  0.00    +0.000 NA
ATOM     26  C   UNL     1      51.449   6.113  17.540  0.00  0.00    +0.000 A 
ATOM     27  S   UNL     1      52.670   7.164  17.008  0.00  0.00    +0.000 S 
ATOM     28  C   UNL     1      51.745   7.635  15.664  0.00  0.00    +0.000 A 
ATOM     29  C   UNL     1      50.505   7.012  15.585  0.00  0.00    +0.000 A 
ATOM     30  C   UNL     1      50.327   6.101  16.713  0.00  0.00    +0.000 A 
BRANCH  22  32
ATOM     31  C   UNL     1      47.209   4.222  17.085  0.00  0.00    +0.000 C 
ATOM     32  O   UNL     1      48.141   5.090  16.442  0.00  0.00    +0.000 OA
ENDBRANCH  22  32
ENDBRANCH  18  29
ENDBRANCH   1  20
TORSDOF 8
ENDMDL
MODEL 5
REMARK VINA RESULT:    -7.432      2.496      3.170
REMARK INTER + INTRA:         -12.215
REMARK INTER:                 -11.128
REMARK INTRA:                  -1.087
REMARK UNBOUND:                -1.307
REMARK  Name = 
REMARK  9 active torsions:
REMARK  status: ('A' for Active; 'I' for Inactive)
REMARK    1  A    between atoms: C_1  and  O_2
REMARK    2  A    between atoms: O_2  and  C_3
REMARK    3  A    between atoms: C_10  and  C_11
REMARK    4  A    between atoms: N_13  and  C_14
REMARK    5  A    between atoms: C_14  and  C_15
REMARK    6  A    between atoms: C_18  and  N_19
REMARK    7  A    between atoms: N_19  and  C_20
REMARK    8  A    between atoms: C_20  and  C_21
REMARK    9  A    between atoms: C_21  and  C_22
REMARK                            x       y       z     vdW  Elec       q    Type
REMARK                         _______ _______ _______ _____ _____    ______ ____
ROOT
ATOM      1  C   UNL     1      48.844   7.106  15.440  0.00  0.00    +0.000 C 
ENDROOT
BRANCH   1   2
ATOM      2  C   UNL     1      47.913   6.422  14.477  0.00  0.00    +0.000 A 
ATOM      3  C   UNL     1      47.347   5.184  14.796  0.00  0.00    +0.000 A 
ATOM      4  C   UNL     1      46.474   4.552  13.907  0.00  0.00    +0.000 A 
ATOM      5  C   UNL     1      46.125   5.151  12.693  0.00  0.00    +0.000 A 
ATOM      6  C   UNL     1      46.753   6.351  12.346  0.00  0.00    +0.000 A 
ATOM      7  C   UNL     1      47.629   6.989  13.231  0.00  0.00    +0.000 A 
BRANCH   5   8
ATOM      8  N   UNL     1      45.248   4.578  11.758  0.00  0.00    +0.000 N 
ATOM      9  H   UNL     1      44.304   4.588  12.146  0.00  0.00    +0.000 HD
BRANCH   8  10
ATOM     10  C   UNL     1      45.246   5.122  10.390  0.00  0.00    +0.000 C 
BRANCH  10  11
ATOM     11  C   UNL     1      44.464   4.217   9.427  0.00  0.00    +0.000 C 
BRANCH  11  12
ATOM     12  C   UNL     1      45.359   3.417   8.518  0.00  0.00    +0.000 A 
ATOM     13  C   UNL     1      45.539   2.054   8.751  0.00  0.00    +0.000 A 
ATOM     14  C   UNL     1      46.405   1.341   7.929  0.00  0.00    +0.000 A 
ATOM     15  C   UNL     1      47.081   2.002   6.912  0.00  0.00    +0.000 A 
ATOM     16  C   UNL     1      46.864   3.361   6.761  0.00  0.00    +0.000 A 
ATOM     17  N   UNL     1      46.026   4.078   7.541  0.00  0.00    +0.000 NA
ENDBRANCH  11  12
ENDBRANCH  10  11
ENDBRANCH   8  10
ENDBRANCH   5   8
ENDBRANCH   1   2
BRANCH   1  20
ATOM     18  C   UNL     1      50.094   6.018  17.243  0.00  0.00    +0.000 C 
ATOM     19  O   UNL     1      49.432   6.617  18.088  0.00  0.00    +0.000 OA
ATOM     20  N   UNL     1      49.868   6.205  15.908  0.00  0.00    +0.000 N 
ATOM     21  H   UNL     1      50.449   5.747  15.217  0.00  0.00    +0.000 HD
BRANCH  18  29
ATOM     22  C   UNL     1      50.409   2.586  17.095  0.00  0.00    +0.000 A 
ATOM     23  N   UNL     1      50.798   1.297  17.155  0.00  0.00    +0.000 NA
ATOM     24  C   UNL     1      51.998   1.024  17.672  0.00  0.00    +0.000 A 
ATOM     25  N   UNL     1      52.880   1.897  18.152  0.00  0.00    +0.000 NA
ATOM     26  C   UNL     1      52.457   3.169  18.067  0.00  0.00    +0.000 A 
ATOM     27  S   UNL     1      53.456   4.417  18.637  0.00  0.00    +0.000 S 
ATOM     28  C   UNL     1      52.307   5.594  18.215  0.00  0.00    +0.000 A 
ATOM     29  C   UNL     1      51.155   5.076  17.635  0.00  0.00    +0.000 A 
ATOM     30  C   UNL     1      51.245   3.621  17.550  0.00  0.00    +0.000 A 
BRANCH  22  32
ATOM     31  C   UNL     1      48.119   2.858  17.469  0.00  0.00    +0.000 C 
ATOM     32  O   UNL     1      49.185   2.864  16.521  0.00  0.00    +0.000 OA
ENDBRANCH  22  32
ENDBRANCH  18  29
ENDBRANCH   1  20
TORSDOF 8
ENDMDL
MODEL 6
REMARK VINA RESULT:    -7.354      2.070      3.545
REMARK INTER + INTRA:         -12.100
REMARK INTER:                 -10.634
REMARK INTRA:                  -1.466
REMARK UNBOUND:                -1.307
REMARK  Name = 
REMARK  9 active torsions:
REMARK  status: ('A' for Active; 'I' for Inactive)
REMARK    1  A    between atoms: C_1  and  O_2
REMARK    2  A    between atoms: O_2  and  C_3
REMARK    3  A    between atoms: C_10  and  C_11
REMARK    4  A    between atoms: N_13  and  C_14
REMARK    5  A    between atoms: C_14  and  C_15
REMARK    6  A    between atoms: C_18  and  N_19
REMARK    7  A    between atoms: N_19  and  C_20
REMARK    8  A    between atoms: C_20  and  C_21
REMARK    9  A    between atoms: C_21  and  C_22
REMARK                            x       y       z     vdW  Elec       q    Type
REMARK                         _______ _______ _______ _____ _____    ______ ____
ROOT
ATOM      1  C   UNL     1      47.209   4.050  14.944  0.00  0.00    +0.000 C 
ENDROOT
BRANCH   1   2
ATOM      2  C   UNL     1      46.369   4.307  13.724  0.00  0.00    +0.000 A 
ATOM      3  C   UNL     1      45.870   3.242  12.968  0.00  0.00    +0.000 A 
ATOM      4  C   UNL     1      45.080   3.479  11.840  0.00  0.00    +0.000 A 
ATOM      5  C   UNL     1      44.748   4.781  11.455  0.00  0.00    +0.000 A 
ATOM      6  C   UNL     1      45.312   5.843  12.168  0.00  0.00    +0.000 A 
ATOM      7  C   UNL     1      46.104   5.614  13.299  0.00  0.00    +0.000 A 
BRANCH   5   8
ATOM      8  N   UNL     1      43.952   5.091  10.340  0.00  0.00    +0.000 N 
ATOM      9  H   UNL     1      44.037   6.089  10.145  0.00  0.00    +0.000 HD
BRANCH   8  10
ATOM     10  C   UNL     1      44.156   4.308   9.110  0.00  0.00    +0.000 C 
BRANCH  10  11
ATOM     11  C   UNL     1      45.560   4.529   8.529  0.00  0.00    +0.000 C 
BRANCH  11  12
ATOM     12  C   UNL     1      46.171   3.268   7.977  0.00  0.00    +0.000 A 
ATOM     13  C   UNL     1      45.772   2.030   8.481  0.00  0.00    +0.000 A 
ATOM     14  C   UNL     1      46.381   0.879   7.992  0.00  0.00    +0.000 A 
ATOM     15  C   UNL     1      47.378   0.990   7.031  0.00  0.00    +0.000 A 
ATOM     16  C   UNL     1      47.731   2.257   6.600  0.00  0.00    +0.000 A 
ATOM     17  N   UNL     1      47.155   3.391   7.054  0.00  0.00    +0.000 NA
ENDBRANCH  11  12
ENDBRANCH  10  11
ENDBRANCH   8  10
ENDBRANCH   5   8
ENDBRANCH   1   2
BRANCH   1  20
ATOM     18  C   UNL     1      48.529   5.381  16.521  0.00  0.00    +0.000 C 
ATOM     19  O   UNL     1      49.298   4.439  16.698  0.00  0.00    +0.000 OA
ATOM     20  N   UNL     1      47.465   5.270  15.670  0.00  0.00    +0.000 N 
ATOM     21  H   UNL     1      46.806   6.031  15.566  0.00  0.00    +0.000 HD
BRANCH  18  29
ATOM     22  C   UNL     1      48.688   8.662  15.472  0.00  0.00    +0.000 A 
ATOM     23  N   UNL     1      48.784  10.002  15.350  0.00  0.00    +0.000 NA
ATOM     24  C   UNL     1      48.982  10.723  16.455  0.00  0.00    +0.000 A 
ATOM     25  N   UNL     1      49.103  10.264  17.698  0.00  0.00    +0.000 NA
ATOM     26  C   UNL     1      48.993   8.928  17.778  0.00  0.00    +0.000 A 
ATOM     27  S   UNL     1      49.126   8.171  19.290  0.00  0.00    +0.000 S 
ATOM     28  C   UNL     1      48.903   6.638  18.595  0.00  0.00    +0.000 A 
ATOM     29  C   UNL     1      48.720   6.663  17.218  0.00  0.00    +0.000 A 
ATOM     30  C   UNL     1      48.778   8.037  16.728  0.00  0.00    +0.000 A 
BRANCH  22  32
ATOM     31  C   UNL     1      49.638   7.535  13.660  0.00  0.00    +0.000 C 
ATOM     32  O   UNL     1      48.441   7.927  14.330  0.00  0.00    +0.000 OA
ENDBRANCH  22  32
ENDBRANCH  18  29
ENDBRANCH   1  20
TORSDOF 8
ENDMDL
MODEL 7
REMARK VINA RESULT:    -7.086      1.761      2.424
REMARK INTER + INTRA:         -11.707
REMARK INTER:                 -10.913
REMARK INTRA:                  -0.794
REMARK UNBOUND:                -1.307
REMARK  Name = 
REMARK  9 active torsions:
REMARK  status: ('A' for Active; 'I' for Inactive)
REMARK    1  A    between atoms: C_1  and  O_2
REMARK    2  A    between atoms: O_2  and  C_3
REMARK    3  A    between atoms: C_10  and  C_11
REMARK    4  A    between atoms: N_13  and  C_14
REMARK    5  A    between atoms: C_14  and  C_15
REMARK    6  A    between atoms: C_18  and  N_19
REMARK    7  A    between atoms: N_19  and  C_20
REMARK    8  A    between atoms: C_20  and  C_21
REMARK    9  A    between atoms: C_21  and  C_22
REMARK                            x       y       z     vdW  Elec       q    Type
REMARK                         _______ _______ _______ _____ _____    ______ ____
ROOT
ATOM      1  C   UNL     1      45.421   8.088  12.591  0.00  0.00    +0.000 C 
ENDROOT
BRANCH   1   2
ATOM      2  C   UNL     1      45.063   6.672  12.235  0.00  0.00    +0.000 A 
ATOM      3  C   UNL     1      43.800   6.368  11.717  0.00  0.00    +0.000 A 
ATOM      4  C   UNL     1      43.470   5.053  11.376  0.00  0.00    +0.000 A 
ATOM      5  C   UNL     1      44.399   4.018  11.517  0.00  0.00    +0.000 A 
ATOM      6  C   UNL     1      45.632   4.315  12.106  0.00  0.00    +0.000 A 
ATOM      7  C   UNL     1      45.969   5.628  12.451  0.00  0.00    +0.000 A 
BRANCH   5   8
ATOM      8  N   UNL     1      44.138   2.679  11.184  0.00  0.00    +0.000 N 
ATOM      9  H   UNL     1      43.254   2.402  11.613  0.00  0.00    +0.000 HD
BRANCH   8  10
ATOM     10  C   UNL     1      44.158   2.306   9.760  0.00  0.00    +0.000 C 
BRANCH  10  11
ATOM     11  C   UNL     1      44.842   3.383   8.907  0.00  0.00    +0.000 C 
BRANCH  11  12
ATOM     12  C   UNL     1      45.856   2.815   7.949  0.00  0.00    +0.000 A 
ATOM     13  C   UNL     1      46.205   3.532   6.805  0.00  0.00    +0.000 A 
ATOM     14  C   UNL     1      47.108   2.971   5.909  0.00  0.00    +0.000 A 
ATOM     15  C   UNL     1      47.626   1.708   6.164  0.00  0.00    +0.000 A 
ATOM     16  C   UNL     1      47.212   1.052   7.310  0.00  0.00    +0.000 A 
ATOM     17  N   UNL     1      46.340   1.574   8.199  0.00  0.00    +0.000 NA
ENDBRANCH  11  12
ENDBRANCH  10  11
ENDBRANCH   8  10
ENDBRANCH   5   8
ENDBRANCH   1   2
BRANCH   1  20
ATOM     18  C   UNL     1      47.741   8.407  13.305  0.00  0.00    +0.000 C 
ATOM     19  O   UNL     1      48.087   8.624  12.146  0.00  0.00    +0.000 OA
ATOM     20  N   UNL     1      46.438   8.130  13.612  0.00  0.00    +0.000 N 
ATOM     21  H   UNL     1      46.168   7.902  14.561  0.00  0.00    +0.000 HD
BRANCH  18  29
ATOM     22  C   UNL     1      48.717   6.104  15.680  0.00  0.00    +0.000 A 
ATOM     23  N   UNL     1      49.282   5.419  16.695  0.00  0.00    +0.000 NA
ATOM     24  C   UNL     1      50.208   6.034  17.434  0.00  0.00    +0.000 A 
ATOM     25  N   UNL     1      50.649   7.280  17.285  0.00  0.00    +0.000 NA
ATOM     26  C   UNL     1      50.068   7.925  16.260  0.00  0.00    +0.000 A 
ATOM     27  S   UNL     1      50.511   9.529  15.929  0.00  0.00    +0.000 S 
ATOM     28  C   UNL     1      49.427   9.608  14.624  0.00  0.00    +0.000 A 
ATOM     29  C   UNL     1      48.715   8.434  14.408  0.00  0.00    +0.000 A 
ATOM     30  C   UNL     1      49.099   7.426  15.393  0.00  0.00    +0.000 A 
BRANCH  22  32
ATOM     31  C   UNL     1      47.240   4.299  15.540  0.00  0.00    +0.000 C 
ATOM     32  O   UNL     1      47.791   5.446  14.895  0.00  0.00    +0.000 OA
ENDBRANCH  22  32
ENDBRANCH  18  29
ENDBRANCH   1  20
TORSDOF 8
ENDMDL
MODEL 8
REMARK VINA RESULT:    -6.966      2.639      3.421
REMARK INTER + INTRA:         -11.532
REMARK INTER:                 -10.442
REMARK INTRA:                  -1.090
REMARK UNBOUND:                -1.307
REMARK  Name = 
REMARK  9 active torsions:
REMARK  status: ('A' for Active; 'I' for Inactive)
REMARK    1  A    between atoms: C_1  and  O_2
REMARK    2  A    between atoms: O_2  and  C_3
REMARK    3  A    between atoms: C_10  and  C_11
REMARK    4  A    between atoms: N_13  and  C_14
REMARK    5  A    between atoms: C_14  and  C_15
REMARK    6  A    between atoms: C_18  and  N_19
REMARK    7  A    between atoms: N_19  and  C_20
REMARK    8  A    between atoms: C_20  and  C_21
REMARK    9  A    between atoms: C_21  and  C_22
REMARK                            x       y       z     vdW  Elec       q    Type
REMARK                         _______ _______ _______ _____ _____    ______ ____
ROOT
ATOM      1  C   UNL     1      47.564   4.716  14.843  0.00  0.00    +0.000 C 
ENDROOT
BRANCH   1   2
ATOM      2  C   UNL     1      46.634   4.777  13.662  0.00  0.00    +0.000 A 
ATOM      3  C   UNL     1      46.062   3.610  13.148  0.00  0.00    +0.000 A 
ATOM      4  C   UNL     1      45.190   3.666  12.057  0.00  0.00    +0.000 A 
ATOM      5  C   UNL     1      44.848   4.889  11.472  0.00  0.00    +0.000 A 
ATOM      6  C   UNL     1      45.482   6.044  11.940  0.00  0.00    +0.000 A 
ATOM      7  C   UNL     1      46.357   5.995  13.032  0.00  0.00    +0.000 A 
BRANCH   5   8
ATOM      8  N   UNL     1      43.972   5.020  10.382  0.00  0.00    +0.000 N 
ATOM      9  H   UNL     1      44.029   5.975  10.029  0.00  0.00    +0.000 HD
BRANCH   8  10
ATOM     10  C   UNL     1      44.099   4.055   9.277  0.00  0.00    +0.000 C 
BRANCH  10  11
ATOM     11  C   UNL     1      45.271   4.413   8.351  0.00  0.00    +0.000 C 
BRANCH  11  12
ATOM     12  C   UNL     1      46.005   3.201   7.841  0.00  0.00    +0.000 A 
ATOM     13  C   UNL     1      46.807   3.307   6.705  0.00  0.00    +0.000 A 
ATOM     14  C   UNL     1      47.441   2.168   6.221  0.00  0.00    +0.000 A 
ATOM     15  C   UNL     1      47.248   0.953   6.867  0.00  0.00    +0.000 A 
ATOM     16  C   UNL     1      46.418   0.928   7.975  0.00  0.00    +0.000 A 
ATOM     17  N   UNL     1      45.793   2.019   8.468  0.00  0.00    +0.000 NA
ENDBRANCH  11  12
ENDBRANCH  10  11
ENDBRANCH   8  10
ENDBRANCH   5   8
ENDBRANCH   1   2
BRANCH   1  20
ATOM     18  C   UNL     1      48.822   6.280  16.245  0.00  0.00    +0.000 C 
ATOM     19  O   UNL     1      49.633   5.401  16.528  0.00  0.00    +0.000 OA
ATOM     20  N   UNL     1      47.764   6.023  15.419  0.00  0.00    +0.000 N 
ATOM     21  H   UNL     1      47.071   6.736  15.229  0.00  0.00    +0.000 HD
BRANCH  18  29
ATOM     22  C   UNL     1      47.603   7.856  19.061  0.00  0.00    +0.000 A 
ATOM     23  N   UNL     1      47.278   8.704  20.058  0.00  0.00    +0.000 NA
ATOM     24  C   UNL     1      47.740   9.954  19.998  0.00  0.00    +0.000 A 
ATOM     25  N   UNL     1      48.502  10.480  19.043  0.00  0.00    +0.000 NA
ATOM     26  C   UNL     1      48.810   9.602  18.074  0.00  0.00    +0.000 A 
ATOM     27  S   UNL     1      49.774  10.105  16.772  0.00  0.00    +0.000 S 
ATOM     28  C   UNL     1      49.700   8.565  16.060  0.00  0.00    +0.000 A 
ATOM     29  C   UNL     1      48.955   7.642  16.786  0.00  0.00    +0.000 A 
ATOM     30  C   UNL     1      48.419   8.267  17.993  0.00  0.00    +0.000 A 
BRANCH  22  32
ATOM     31  C   UNL     1      48.040   5.721  19.904  0.00  0.00    +0.000 C 
ATOM     32  O   UNL     1      47.157   6.553  19.152  0.00  0.00    +0.000 OA
ENDBRANCH  22  32
ENDBRANCH  18  29
ENDBRANCH   1  20
TORSDOF 8
ENDMDL
MODEL 9
REMARK VINA RESULT:    -6.878      1.842      2.591
REMARK INTER + INTRA:         -11.402
REMARK INTER:                  -9.972
REMARK INTRA:                  -1.430
REMARK UNBOUND:                -1.307
REMARK  Name = 
REMARK  9 active torsions:
REMARK  status: ('A' for Active; 'I' for Inactive)
REMARK    1  A    between atoms: C_1  and  O_2
REMARK    2  A    between atoms: O_2  and  C_3
REMARK    3  A    between atoms: C_10  and  C_11
REMARK    4  A    between atoms: N_13  and  C_14
REMARK    5  A    between atoms: C_14  and  C_15
REMARK    6  A    between atoms: C_18  and  N_19
REMARK    7  A    between atoms: N_19  and  C_20
REMARK    8  A    between atoms: C_20  and  C_21
REMARK    9  A    between atoms: C_21  and  C_22
REMARK                            x       y       z     vdW  Elec       q    Type
REMARK                         _______ _______ _______ _____ _____    ______ ____
ROOT
ATOM      1  C   UNL     1      48.946   7.309  13.669  0.00  0.00    +0.000 C 
ENDROOT
BRANCH   1   2
ATOM      2  C   UNL     1      47.532   6.892  13.372  0.00  0.00    +0.000 A 
ATOM      3  C   UNL     1      47.132   5.564  13.546  0.00  0.00    +0.000 A 
ATOM      4  C   UNL     1      45.815   5.178  13.280  0.00  0.00    +0.000 A 
ATOM      5  C   UNL     1      44.862   6.112  12.862  0.00  0.00    +0.000 A 
ATOM      6  C   UNL     1      45.286   7.421  12.617  0.00  0.00    +0.000 A 
ATOM      7  C   UNL     1      46.603   7.815  12.879  0.00  0.00    +0.000 A 
BRANCH   5   8
ATOM      8  N   UNL     1      43.522   5.795  12.587  0.00  0.00    +0.000 N 
ATOM      9  H   UNL     1      42.936   6.584  12.864  0.00  0.00    +0.000 HD
BRANCH   8  10
ATOM     10  C   UNL     1      43.183   5.357  11.223  0.00  0.00    +0.000 C 
BRANCH  10  11
ATOM     11  C   UNL     1      43.403   3.848  11.046  0.00  0.00    +0.000 C 
BRANCH  11  12
ATOM     12  C   UNL     1      44.322   3.521   9.899  0.00  0.00    +0.000 A 
ATOM     13  C   UNL     1      44.613   2.189   9.605  0.00  0.00    +0.000 A 
ATOM     14  C   UNL     1      45.500   1.908   8.572  0.00  0.00    +0.000 A 
ATOM     15  C   UNL     1      46.086   2.954   7.871  0.00  0.00    +0.000 A 
ATOM     16  C   UNL     1      45.762   4.249   8.240  0.00  0.00    +0.000 A 
ATOM     17  N   UNL     1      44.901   4.551   9.236  0.00  0.00    +0.000 NA
ENDBRANCH  11  12
ENDBRANCH  10  11
ENDBRANCH   8  10
ENDBRANCH   5   8
ENDBRANCH   1   2
BRANCH   1  20
ATOM     18  C   UNL     1      49.035   8.036  16.006  0.00  0.00    +0.000 C 
ATOM     19  O   UNL     1      48.530   9.116  15.707  0.00  0.00    +0.000 OA
ATOM     20  N   UNL     1      49.278   7.085  15.054  0.00  0.00    +0.000 N 
ATOM     21  H   UNL     1      49.739   6.217  15.297  0.00  0.00    +0.000 HD
BRANCH  18  29
ATOM     22  C   UNL     1      48.452   5.337  18.074  0.00  0.00    +0.000 A 
ATOM     23  N   UNL     1      48.381   4.440  19.077  0.00  0.00    +0.000 NA
ATOM     24  C   UNL     1      48.962   4.745  20.239  0.00  0.00    +0.000 A 
ATOM     25  N   UNL     1      49.618   5.864  20.535  0.00  0.00    +0.000 NA
ATOM     26  C   UNL     1      49.673   6.728  19.507  0.00  0.00    +0.000 A 
ATOM     27  S   UNL     1      50.470   8.211  19.710  0.00  0.00    +0.000 S 
ATOM     28  C   UNL     1      50.117   8.673  18.114  0.00  0.00    +0.000 A 
ATOM     29  C   UNL     1      49.399   7.723  17.397  0.00  0.00    +0.000 A 
ATOM     30  C   UNL     1      49.130   6.558  18.235  0.00  0.00    +0.000 A 
BRANCH  22  32
ATOM     31  C   UNL     1      47.119   3.794  16.933  0.00  0.00    +0.000 C 
ATOM     32  O   UNL     1      47.885   4.996  16.862  0.00  0.00    +0.000 OA
ENDBRANCH  22  32
ENDBRANCH  18  29
ENDBRANCH   1  20
TORSDOF 8
ENDMDL
