MODEL 1
REMARK VINA RESULT:    -8.516      0.000      0.000
REMARK INTER + INTRA:         -13.498
REMARK INTER:                 -12.748
REMARK INTRA:                  -0.750
REMARK UNBOUND:                -0.750
REMARK  Name = 
REMARK  9 active torsions:
REMARK  status: ('A' for Active; 'I' for Inactive)
REMARK    1  A    between atoms: N_1  and  C_2
REMARK    2  A    between atoms: C_2  and  C_3
REMARK    3  A    between atoms: C_3  and  N_4
REMARK    4  A    between atoms: C_3  and  C_26
REMARK    5  A    between atoms: N_4  and  C_5
REMARK    6  A    between atoms: C_5  and  C_6
REMARK    7  A    between atoms: C_9  and  C_10
REMARK    8  A    between atoms: C_10  and  N_11
REMARK    9  A    between atoms: C_12  and  C_14
REMARK                            x       y       z     vdW  Elec       q    Type
REMARK                         _______ _______ _______ _____ _____    ______ ____
ROOT
ATOM      1  C   UNL     1      44.181   6.689  11.685  0.00  0.00    +0.000 A 
ATOM      2  C   UNL     1      44.466   8.020  11.376  0.00  0.00    +0.000 A 
ATOM      3  C   UNL     1      45.523   8.669  12.010  0.00  0.00    +0.000 A 
ATOM      4  C   UNL     1      46.284   7.965  12.940  0.00  0.00    +0.000 A 
ATOM      5  N   UNL     1      46.006   6.682  13.282  0.00  0.00    +0.000 NA
ATOM      6  C   UNL     1      44.972   6.080  12.652  0.00  0.00    +0.000 A 
ENDROOT
BRANCH   1   7
ATOM      7  C   UNL     1      43.021   5.964  11.059  0.00  0.00    +0.000 C 
BRANCH   7   8
ATOM      8  N   UNL     1      43.437   5.110   9.944  0.00  0.00    +0.000 NA
ATOM      9  H   UNL     1      43.987   5.676   9.293  0.00  0.00    +0.000 HD
BRANCH   8  10
ATOM     10  C   UNL     1      44.313   3.986  10.376  0.00  0.00    +0.000 C 
BRANCH  10  11
ATOM     11  C   UNL     1      45.142   3.450   9.200  0.00  0.00    +0.000 A 
ATOM     12  C   UNL     1      45.416   2.086   9.075  0.00  0.00    +0.000 A 
ATOM     13  C   UNL     1      46.235   1.650   8.035  0.00  0.00    +0.000 A 
ATOM     14  C   UNL     1      46.760   2.577   7.146  0.00  0.00    +0.000 A 
ATOM     15  C   UNL     1      46.423   3.909   7.321  0.00  0.00    +0.000 A 
ATOM     16  N   UNL     1      45.618   4.363   8.309  0.00  0.00    +0.000 NA
ENDBRANCH  10  11
BRANCH  10  17
ATOM     17  C   UNL     1      43.533   2.818  11.065  0.00  0.00    +0.000 C 
BRANCH  17  18
ATOM     18  N   UNL     1      43.860   2.597  12.479  0.00  0.00    +0.000 NA
ATOM     19  H   UNL     1      43.626   3.429  13.017  0.00  0.00    +0.000 HD
ATOM     20  H   UNL     1      44.865   2.452  12.580  0.00  0.00    +0.000 HD
ENDBRANCH  17  18
ENDBRANCH  10  17
ENDBRANCH   8  10
ENDBRANCH   7   8
ENDBRANCH   1   7
BRANCH   4  21
ATOM     21  C   UNL     1      47.436   8.638  13.649  0.00  0.00    +0.000 C 
BRANCH  21  22
ATOM     22  N   UNL     1      47.782   7.942  14.869  0.00  0.00    +0.000 N 
ATOM     23  C   UNL     1      48.729   6.953  14.891  0.00  0.00    +0.000 C 
ATOM     24  O   UNL     1      49.378   6.652  13.893  0.00  0.00    +0.000 OA
ATOM     25  H   UNL     1      47.102   8.010  15.621  0.00  0.00    +0.000 HD
BRANCH  23  26
ATOM     26  C   UNL     1      48.987   6.315  16.186  0.00  0.00    +0.000 A 
ATOM     27  C   UNL     1      49.895   6.893  17.063  0.00  0.00    +0.000 A 
ATOM     28  S   UNL     1      50.058   6.050  18.536  0.00  0.00    +0.000 S 
ATOM     29  C   UNL     1      48.958   4.854  18.032  0.00  0.00    +0.000 A 
ATOM     30  N   UNL     1      48.665   3.794  18.832  0.00  0.00    +0.000 NA
ATOM     31  C   UNL     1      47.836   2.949  18.317  0.00  0.00    +0.000 A 
ATOM     32  N   UNL     1      47.266   3.071  17.079  0.00  0.00    +0.000 N 
ATOM     33  C   UNL     1      47.506   4.142  16.249  0.00  0.00    +0.000 A 
ATOM     34  O   UNL     1      46.938   4.251  15.168  0.00  0.00    +0.000 OA
ATOM     35  C   UNL     1      48.448   5.107  16.772  0.00  0.00    +0.000 A 
ATOM     36  H   UNL     1      46.613   2.381  16.738  0.00  0.00    +0.000 HD
ENDBRANCH  23  26
ENDBRANCH  21  22
ENDBRANCH   4  21
TORSDOF 9
ENDMDL
MODEL 2
REMARK VINA RESULT:    -8.036      1.758      2.148
REMARK INTER + INTRA:         -12.779
REMARK INTER:                 -11.870
REMARK INTRA:                  -0.909
REMARK UNBOUND:                -0.750
REMARK  Name = 
REMARK  9 active torsions:
REMARK  status: ('A' for Active; 'I' for Inactive)
REMARK    1  A    between atoms: N_1  and  C_2
REMARK    2  A    between atoms: C_2  and  C_3
REMARK    3  A    between atoms: C_3  and  N_4
REMARK    4  A    between atoms: C_3  and  C_26
REMARK    5  A    between atoms: N_4  and  C_5
REMARK    6  A    between atoms: C_5  and  C_6
REMARK    7  A    between atoms: C_9  and  C_10
REMARK    8  A    between atoms: C_10  and  N_11
REMARK    9  A    between atoms: C_12  and  C_14
REMARK                            x       y       z     vdW  Elec       q    Type
REMARK                         _______ _______ _______ _____ _____    ______ ____
ROOT
ATOM      1  C   UNL     1      44.857   5.754  11.645  0.00  0.00    +0.000 A 
ATOM      2  C   UNL     1      45.867   6.480  11.010  0.00  0.00    +0.000 A 
ATOM      3  C   UNL     1      47.037   6.791  11.699  0.00  0.00    +0.000 A 
ATOM      4  C   UNL     1      47.177   6.359  13.016  0.00  0.00    +0.000 A 
ATOM      5  N   UNL     1      46.197   5.681  13.665  0.00  0.00    +0.000 NA
ATOM      6  C   UNL     1      45.072   5.396  12.970  0.00  0.00    +0.000 A 
ENDROOT
BRANCH   1   7
ATOM      7  C   UNL     1      43.560   5.436  10.953  0.00  0.00    +0.000 C 
BRANCH   7   8
ATOM      8  N   UNL     1      43.748   4.560   9.795  0.00  0.00    +0.000 NA
ATOM      9  H   UNL     1      44.228   5.092   9.064  0.00  0.00    +0.000 HD
BRANCH   8  10
ATOM     10  C   UNL     1      44.607   3.382  10.098  0.00  0.00    +0.000 C 
BRANCH  10  11
ATOM     11  C   UNL     1      45.517   3.043   8.910  0.00  0.00    +0.000 A 
ATOM     12  C   UNL     1      45.974   4.040   8.045  0.00  0.00    +0.000 A 
ATOM     13  C   UNL     1      46.736   3.682   6.935  0.00  0.00    +0.000 A 
ATOM     14  C   UNL     1      47.028   2.343   6.712  0.00  0.00    +0.000 A 
ATOM     15  C   UNL     1      46.561   1.416   7.628  0.00  0.00    +0.000 A 
ATOM     16  N   UNL     1      45.833   1.732   8.723  0.00  0.00    +0.000 NA
ENDBRANCH  10  11
BRANCH  10  17
ATOM     17  C   UNL     1      43.797   2.117  10.538  0.00  0.00    +0.000 C 
BRANCH  17  18
ATOM     18  N   UNL     1      43.069   2.252  11.805  0.00  0.00    +0.000 NA
ATOM     19  H   UNL     1      43.703   2.081  12.583  0.00  0.00    +0.000 HD
ATOM     20  H   UNL     1      42.337   1.543  11.858  0.00  0.00    +0.000 HD
ENDBRANCH  17  18
ENDBRANCH  10  17
ENDBRANCH   8  10
ENDBRANCH   7   8
ENDBRANCH   1   7
BRANCH   4  21
ATOM     21  C   UNL     1      48.430   6.680  13.795  0.00  0.00    +0.000 C 
BRANCH  21  22
ATOM     22  N   UNL     1      48.140   6.887  15.197  0.00  0.00    +0.000 N 
ATOM     23  C   UNL     1      49.045   6.568  16.175  0.00  0.00    +0.000 C 
ATOM     24  O   UNL     1      50.170   6.153  15.910  0.00  0.00    +0.000 OA
ATOM     25  H   UNL     1      47.157   6.993  15.431  0.00  0.00    +0.000 HD
BRANCH  23  26
ATOM     26  C   UNL     1      48.633   6.814  17.561  0.00  0.00    +0.000 A 
ATOM     27  C   UNL     1      48.254   8.094  17.943  0.00  0.00    +0.000 A 
ATOM     28  S   UNL     1      47.772   8.209  19.574  0.00  0.00    +0.000 S 
ATOM     29  C   UNL     1      48.102   6.561  19.840  0.00  0.00    +0.000 A 
ATOM     30  N   UNL     1      47.930   6.005  21.070  0.00  0.00    +0.000 NA
ATOM     31  C   UNL     1      48.242   4.754  21.139  0.00  0.00    +0.000 A 
ATOM     32  N   UNL     1      48.701   4.006  20.088  0.00  0.00    +0.000 N 
ATOM     33  C   UNL     1      48.859   4.516  18.821  0.00  0.00    +0.000 A 
ATOM     34  O   UNL     1      49.220   3.807  17.888  0.00  0.00    +0.000 OA
ATOM     35  C   UNL     1      48.544   5.923  18.696  0.00  0.00    +0.000 A 
ATOM     36  H   UNL     1      48.915   3.027  20.204  0.00  0.00    +0.000 HD
ENDBRANCH  23  26
ENDBRANCH  21  22
ENDBRANCH   4  21
TORSDOF 9
ENDMDL
MODEL 3
REMARK VINA RESULT:    -7.933      3.007      3.876
REMARK INTER + INTRA:         -12.625
REMARK INTER:                 -11.369
REMARK INTRA:                  -1.256
REMARK UNBOUND:                -0.750
REMARK  Name = 
REMARK  9 active torsions:
REMARK  status: ('A' for Active; 'I' for Inactive)
REMARK    1  A    between atoms: N_1  and  C_2
REMARK    2  A    between atoms: C_2  and  C_3
REMARK    3  A    between atoms: C_3  and  N_4
REMARK    4  A    between atoms: C_3  and  C_26
REMARK    5  A    between atoms: N_4  and  C_5
REMARK    6  A    between atoms: C_5  and  C_6
REMARK    7  A    between atoms: C_9  and  C_10
REMARK    8  A    between atoms: C_10  and  N_11
REMARK    9  A    between atoms: C_12  and  C_14
REMARK                            x       y       z     vdW  Elec       q    Type
REMARK                         _______ _______ _______ _____ _____    ______ ____
ROOT
ATOM      1  C   UNL     1      46.719   4.916  14.007  0.00  0.00    +0.000 A 
ATOM      2  C   UNL     1      47.312   6.096  13.552  0.00  0.00    +0.000 A 
ATOM      3  C   UNL     1      48.302   6.714  14.312  0.00  0.00    +0.000 A 
ATOM      4  C   UNL     1      48.687   6.131  15.517  0.00  0.00    +0.000 A 
ATOM      5  N   UNL     1      48.103   5.004  15.996  0.00  0.00    +0.000 NA
ATOM      6  C   UNL     1      47.144   4.428  15.236  0.00  0.00    +0.000 A 
ENDROOT
BRANCH   1   7
ATOM      7  C   UNL     1      45.616   4.240  13.240  0.00  0.00    +0.000 C 
BRANCH   7   8
ATOM      8  N   UNL     1      44.631   5.196  12.726  0.00  0.00    +0.000 NA
ATOM      9  H   UNL     1      45.117   5.864  12.122  0.00  0.00    +0.000 HD
BRANCH   8  10
ATOM     10  C   UNL     1      43.583   4.549  11.890  0.00  0.00    +0.000 C 
BRANCH  10  11
ATOM     11  C   UNL     1      44.180   4.001  10.586  0.00  0.00    +0.000 A 
ATOM     12  C   UNL     1      44.121   2.638  10.284  0.00  0.00    +0.000 A 
ATOM     13  C   UNL     1      44.739   2.170   9.127  0.00  0.00    +0.000 A 
ATOM     14  C   UNL     1      45.400   3.066   8.297  0.00  0.00    +0.000 A 
ATOM     15  C   UNL     1      45.394   4.405   8.651  0.00  0.00    +0.000 A 
ATOM     16  N   UNL     1      44.789   4.893   9.758  0.00  0.00    +0.000 NA
ENDBRANCH  10  11
BRANCH  10  17
ATOM     17  C   UNL     1      42.368   5.484  11.579  0.00  0.00    +0.000 C 
BRANCH  17  18
ATOM     18  N   UNL     1      42.718   6.865  11.225  0.00  0.00    +0.000 NA
ATOM     19  H   UNL     1      42.812   6.945  10.214  0.00  0.00    +0.000 HD
ATOM     20  H   UNL     1      43.624   7.104  11.628  0.00  0.00    +0.000 HD
ENDBRANCH  17  18
ENDBRANCH  10  17
ENDBRANCH   8  10
ENDBRANCH   7   8
ENDBRANCH   1   7
BRANCH   4  21
ATOM     21  C   UNL     1      49.754   6.775  16.370  0.00  0.00    +0.000 C 
BRANCH  21  22
ATOM     22  N   UNL     1      50.729   5.804  16.816  0.00  0.00    +0.000 N 
ATOM     23  C   UNL     1      50.860   5.469  18.137  0.00  0.00    +0.000 C 
ATOM     24  O   UNL     1      50.116   5.925  19.001  0.00  0.00    +0.000 OA
ATOM     25  H   UNL     1      51.487   5.612  16.166  0.00  0.00    +0.000 HD
BRANCH  23  26
ATOM     26  C   UNL     1      51.890   4.478  18.468  0.00  0.00    +0.000 A 
ATOM     27  C   UNL     1      52.989   4.863  19.223  0.00  0.00    +0.000 A 
ATOM     28  S   UNL     1      54.077   3.592  19.550  0.00  0.00    +0.000 S 
ATOM     29  C   UNL     1      53.141   2.493  18.650  0.00  0.00    +0.000 A 
ATOM     30  N   UNL     1      53.538   1.201  18.497  0.00  0.00    +0.000 NA
ATOM     31  C   UNL     1      52.751   0.482  17.770  0.00  0.00    +0.000 A 
ATOM     32  N   UNL     1      51.597   0.935  17.189  0.00  0.00    +0.000 N 
ATOM     33  C   UNL     1      51.138   2.222  17.343  0.00  0.00    +0.000 A 
ATOM     34  O   UNL     1      50.073   2.583  16.856  0.00  0.00    +0.000 OA
ATOM     35  C   UNL     1      52.000   3.076  18.132  0.00  0.00    +0.000 A 
ATOM     36  H   UNL     1      51.015   0.318  16.641  0.00  0.00    +0.000 HD
ENDBRANCH  23  26
ENDBRANCH  21  22
ENDBRANCH   4  21
TORSDOF 9
ENDMDL
MODEL 4
REMARK VINA RESULT:    -7.616      2.783      8.108
REMARK INTER + INTRA:         -12.151
REMARK INTER:                 -10.518
REMARK INTRA:                  -1.632
REMARK UNBOUND:                -0.750
REMARK  Name = 
REMARK  9 active torsions:
REMARK  status: ('A' for Active; 'I' for Inactive)
REMARK    1  A    between atoms: N_1  and  C_2
REMARK    2  A    between atoms: C_2  and  C_3
REMARK    3  A    between atoms: C_3  and  N_4
REMARK    4  A    between atoms: C_3  and  C_26
REMARK    5  A    between atoms: N_4  and  C_5
REMARK    6  A    between atoms: C_5  and  C_6
REMARK    7  A    between atoms: C_9  and  C_10
REMARK    8  A    between atoms: C_10  and  N_11
REMARK    9  A    between atoms: C_12  and  C_14
REMARK                            x       y       z     vdW  Elec       q    Type
REMARK                         _______ _______ _______ _____ _____    ______ ____
ROOT
ATOM      1  C   UNL     1      48.960   7.676  16.146  0.00  0.00    +0.000 A 
ATOM      2  C   UNL     1      48.350   8.827  15.642  0.00  0.00    +0.000 A 
ATOM      3  C   UNL     1      47.880   8.847  14.331  0.00  0.00    +0.000 A 
ATOM      4  C   UNL     1      48.024   7.704  13.548  0.00  0.00    +0.000 A 
ATOM      5  N   UNL     1      48.643   6.586  14.003  0.00  0.00    +0.000 NA
ATOM      6  C   UNL     1      49.091   6.598  15.280  0.00  0.00    +0.000 A 
ENDROOT
BRANCH   1   7
ATOM      7  C   UNL     1      49.523   7.627  17.540  0.00  0.00    +0.000 C 
BRANCH   7   8
ATOM      8  N   UNL     1      48.544   7.141  18.516  0.00  0.00    +0.000 NA
ATOM      9  H   UNL     1      47.698   6.864  18.012  0.00  0.00    +0.000 HD
BRANCH   8  10
ATOM     10  C   UNL     1      49.016   5.936  19.252  0.00  0.00    +0.000 C 
BRANCH  10  11
ATOM     11  C   UNL     1      48.848   4.670  18.401  0.00  0.00    +0.000 A 
ATOM     12  C   UNL     1      49.945   3.866  18.081  0.00  0.00    +0.000 A 
ATOM     13  C   UNL     1      49.762   2.767  17.244  0.00  0.00    +0.000 A 
ATOM     14  C   UNL     1      48.496   2.493  16.746  0.00  0.00    +0.000 A 
ATOM     15  C   UNL     1      47.454   3.322  17.128  0.00  0.00    +0.000 A 
ATOM     16  N   UNL     1      47.595   4.385  17.951  0.00  0.00    +0.000 NA
ENDBRANCH  10  11
BRANCH  10  17
ATOM     17  C   UNL     1      48.329   5.747  20.645  0.00  0.00    +0.000 C 
BRANCH  17  18
ATOM     18  N   UNL     1      48.132   4.354  21.061  0.00  0.00    +0.000 NA
ATOM     19  H   UNL     1      48.443   3.729  20.319  0.00  0.00    +0.000 HD
ATOM     20  H   UNL     1      47.138   4.174  21.202  0.00  0.00    +0.000 HD
ENDBRANCH  17  18
ENDBRANCH  10  17
ENDBRANCH   8  10
ENDBRANCH   7   8
ENDBRANCH   1   7
BRANCH   4  21
ATOM     21  C   UNL     1      47.530   7.690  12.121  0.00  0.00    +0.000 C 
BRANCH  21  22
ATOM     22  N   UNL     1      46.829   6.462  11.818  0.00  0.00    +0.000 N 
ATOM     23  C   UNL     1      45.462   6.410  11.749  0.00  0.00    +0.000 C 
ATOM     24  O   UNL     1      44.766   7.414  11.875  0.00  0.00    +0.000 OA
ATOM     25  H   UNL     1      47.362   5.607  11.951  0.00  0.00    +0.000 HD
BRANCH  23  26
ATOM     26  C   UNL     1      44.865   5.106  11.443  0.00  0.00    +0.000 A 
ATOM     27  C   UNL     1      44.107   4.459  12.410  0.00  0.00    +0.000 A 
ATOM     28  S   UNL     1      43.456   2.972  11.890  0.00  0.00    +0.000 S 
ATOM     29  C   UNL     1      44.208   3.116  10.371  0.00  0.00    +0.000 A 
ATOM     30  N   UNL     1      44.080   2.138   9.434  0.00  0.00    +0.000 NA
ATOM     31  C   UNL     1      44.722   2.362   8.337  0.00  0.00    +0.000 A 
ATOM     32  N   UNL     1      45.472   3.480   8.087  0.00  0.00    +0.000 N 
ATOM     33  C   UNL     1      45.602   4.509   8.990  0.00  0.00    +0.000 A 
ATOM     34  O   UNL     1      46.237   5.522   8.716  0.00  0.00    +0.000 OA
ATOM     35  C   UNL     1      44.919   4.294  10.247  0.00  0.00    +0.000 A 
ATOM     36  H   UNL     1      45.940   3.603   7.201  0.00  0.00    +0.000 HD
ENDBRANCH  23  26
ENDBRANCH  21  22
ENDBRANCH   4  21
TORSDOF 9
ENDMDL
MODEL 5
REMARK VINA RESULT:    -7.437      2.947      7.676
REMARK INTER + INTRA:         -11.882
REMARK INTER:                 -10.150
REMARK INTRA:                  -1.731
REMARK UNBOUND:                -0.750
REMARK  Name = 
REMARK  9 active torsions:
REMARK  status: ('A' for Active; 'I' for Inactive)
REMARK    1  A    between atoms: N_1  and  C_2
REMARK    2  A    between atoms: C_2  and  C_3
REMARK    3  A    between atoms: C_3  and  N_4
REMARK    4  A    between atoms: C_3  and  C_26
REMARK    5  A    between atoms: N_4  and  C_5
REMARK    6  A    between atoms: C_5  and  C_6
REMARK    7  A    between atoms: C_9  and  C_10
REMARK    8  A    between atoms: C_10  and  N_11
REMARK    9  A    between atoms: C_12  and  C_14
REMARK                            x       y       z     vdW  Elec       q    Type
REMARK                         _______ _______ _______ _____ _____    ______ ____
ROOT
ATOM      1  C   UNL     1      48.880   7.870  16.177  0.00  0.00    +0.000 A 
ATOM      2  C   UNL     1      49.507   6.994  15.288  0.00  0.00    +0.000 A 
ATOM      3  C   UNL     1      49.281   7.115  13.919  0.00  0.00    +0.000 A 
ATOM      4  C   UNL     1      48.432   8.121  13.463  0.00  0.00    +0.000 A 
ATOM      5  N   UNL     1      47.786   8.962  14.309  0.00  0.00    +0.000 NA
ATOM      6  C   UNL     1      48.024   8.819  15.633  0.00  0.00    +0.000 A 
ENDROOT
BRANCH   1   7
ATOM      7  C   UNL     1      49.060   7.746  17.665  0.00  0.00    +0.000 C 
BRANCH   7   8
ATOM      8  N   UNL     1      48.125   6.788  18.260  0.00  0.00    +0.000 NA
ATOM      9  H   UNL     1      47.576   6.366  17.507  0.00  0.00    +0.000 HD
BRANCH   8  10
ATOM     10  C   UNL     1      48.816   5.671  18.962  0.00  0.00    +0.000 C 
BRANCH  10  11
ATOM     11  C   UNL     1      48.932   4.438  18.055  0.00  0.00    +0.000 A 
ATOM     12  C   UNL     1      47.878   4.057  17.220  0.00  0.00    +0.000 A 
ATOM     13  C   UNL     1      47.994   2.889  16.469  0.00  0.00    +0.000 A 
ATOM     14  C   UNL     1      49.152   2.130  16.564  0.00  0.00    +0.000 A 
ATOM     15  C   UNL     1      50.162   2.586  17.395  0.00  0.00    +0.000 A 
ATOM     16  N   UNL     1      50.087   3.722  18.124  0.00  0.00    +0.000 NA
ENDBRANCH  10  11
BRANCH  10  17
ATOM     17  C   UNL     1      48.148   5.283  20.323  0.00  0.00    +0.000 C 
BRANCH  17  18
ATOM     18  N   UNL     1      48.397   3.907  20.770  0.00  0.00    +0.000 NA
ATOM     19  H   UNL     1      47.693   3.638  21.455  0.00  0.00    +0.000 HD
ATOM     20  H   UNL     1      49.302   3.857  21.239  0.00  0.00    +0.000 HD
ENDBRANCH  17  18
ENDBRANCH  10  17
ENDBRANCH   8  10
ENDBRANCH   7   8
ENDBRANCH   1   7
BRANCH   4  21
ATOM     21  C   UNL     1      48.161   8.280  11.986  0.00  0.00    +0.000 C 
BRANCH  21  22
ATOM     22  N   UNL     1      47.503   7.112  11.444  0.00  0.00    +0.000 N 
ATOM     23  C   UNL     1      46.139   7.032  11.348  0.00  0.00    +0.000 C 
ATOM     24  O   UNL     1      45.409   7.970  11.657  0.00  0.00    +0.000 OA
ATOM     25  H   UNL     1      48.063   6.265  11.416  0.00  0.00    +0.000 HD
BRANCH  23  26
ATOM     26  C   UNL     1      45.587   5.793  10.789  0.00  0.00    +0.000 A 
ATOM     27  C   UNL     1      45.781   5.505   9.445  0.00  0.00    +0.000 A 
ATOM     28  S   UNL     1      45.109   4.016   8.958  0.00  0.00    +0.000 S 
ATOM     29  C   UNL     1      44.492   3.727  10.517  0.00  0.00    +0.000 A 
ATOM     30  N   UNL     1      43.765   2.609  10.782  0.00  0.00    +0.000 NA
ATOM     31  C   UNL     1      43.336   2.527  11.997  0.00  0.00    +0.000 A 
ATOM     32  N   UNL     1      43.575   3.456  12.973  0.00  0.00    +0.000 N 
ATOM     33  C   UNL     1      44.333   4.584  12.760  0.00  0.00    +0.000 A 
ATOM     34  O   UNL     1      44.576   5.371  13.669  0.00  0.00    +0.000 OA
ATOM     35  C   UNL     1      44.818   4.734  11.405  0.00  0.00    +0.000 A 
ATOM     36  H   UNL     1      43.222   3.327  13.910  0.00  0.00    +0.000 HD
ENDBRANCH  23  26
ENDBRANCH  21  22
ENDBRANCH   4  21
TORSDOF 9
ENDMDL
MODEL 6
REMARK VINA RESULT:    -7.009      2.223      2.709
REMARK INTER + INTRA:         -11.242
REMARK INTER:                 -10.699
REMARK INTRA:                  -0.542
REMARK UNBOUND:                -0.750
REMARK  Name = 
REMARK  9 active torsions:
REMARK  status: ('A' for Active; 'I' for Inactive)
REMARK    1  A    between atoms: N_1  and  C_2
REMARK    2  A    between atoms: C_2  and  C_3
REMARK    3  A    between atoms: C_3  and  N_4
REMARK    4  A    between atoms: C_3  and  C_26
REMARK    5  A    between atoms: N_4  and  C_5
REMARK    6  A    between atoms: C_5  and  C_6
REMARK    7  A    between atoms: C_9  and  C_10
REMARK    8  A    between atoms: C_10  and  N_11
REMARK    9  A    between atoms: C_12  and  C_14
REMARK                            x       y       z     vdW  Elec       q    Type
REMARK                         _______ _______ _______ _____ _____    ______ ____
ROOT
ATOM      1  C   UNL     1      45.869   5.484  13.081  0.00  0.00    +0.000 A 
ATOM      2  C   UNL     1      45.727   6.848  12.819  0.00  0.00    +0.000 A 
ATOM      3  C   UNL     1      46.809   7.706  13.002  0.00  0.00    +0.000 A 
ATOM      4  C   UNL     1      48.022   7.177  13.437  0.00  0.00    +0.000 A 
ATOM      5  N   UNL     1      48.175   5.861  13.729  0.00  0.00    +0.000 NA
ATOM      6  C   UNL     1      47.106   5.053  13.545  0.00  0.00    +0.000 A 
ENDROOT
BRANCH   1   7
ATOM      7  C   UNL     1      44.715   4.529  12.941  0.00  0.00    +0.000 C 
BRANCH   7   8
ATOM      8  N   UNL     1      44.976   3.483  11.949  0.00  0.00    +0.000 NA
ATOM      9  H   UNL     1      44.732   2.580  12.363  0.00  0.00    +0.000 HD
BRANCH   8  10
ATOM     10  C   UNL     1      44.142   3.630  10.725  0.00  0.00    +0.000 C 
BRANCH  10  11
ATOM     11  C   UNL     1      44.967   3.352   9.460  0.00  0.00    +0.000 A 
ATOM     12  C   UNL     1      45.335   2.050   9.113  0.00  0.00    +0.000 A 
ATOM     13  C   UNL     1      46.147   1.847   7.998  0.00  0.00    +0.000 A 
ATOM     14  C   UNL     1      46.571   2.941   7.256  0.00  0.00    +0.000 A 
ATOM     15  C   UNL     1      46.144   4.198   7.649  0.00  0.00    +0.000 A 
ATOM     16  N   UNL     1      45.343   4.427   8.715  0.00  0.00    +0.000 NA
ENDBRANCH  10  11
BRANCH  10  17
ATOM     17  C   UNL     1      43.435   5.022  10.616  0.00  0.00    +0.000 C 
BRANCH  17  18
ATOM     18  N   UNL     1      42.152   5.127  11.320  0.00  0.00    +0.000 NA
ATOM     19  H   UNL     1      41.618   5.907  10.942  0.00  0.00    +0.000 HD
ATOM     20  H   UNL     1      42.317   5.331  12.306  0.00  0.00    +0.000 HD
ENDBRANCH  17  18
ENDBRANCH  10  17
ENDBRANCH   8  10
ENDBRANCH   7   8
ENDBRANCH   1   7
BRANCH   4  21
ATOM     21  C   UNL     1      49.216   8.077  13.649  0.00  0.00    +0.000 C 
BRANCH  21  22
ATOM     22  N   UNL     1      50.289   7.380  14.322  0.00  0.00    +0.000 N 
ATOM     23  C   UNL     1      50.425   7.410  15.685  0.00  0.00    +0.000 C 
ATOM     24  O   UNL     1      49.610   7.976  16.408  0.00  0.00    +0.000 OA
ATOM     25  H   UNL     1      51.080   7.124  13.739  0.00  0.00    +0.000 HD
BRANCH  23  26
ATOM     26  C   UNL     1      51.558   6.671  16.251  0.00  0.00    +0.000 A 
ATOM     27  C   UNL     1      52.850   7.131  16.034  0.00  0.00    +0.000 A 
ATOM     28  S   UNL     1      54.052   6.184  16.785  0.00  0.00    +0.000 S 
ATOM     29  C   UNL     1      52.890   5.095  17.384  0.00  0.00    +0.000 A 
ATOM     30  N   UNL     1      53.263   4.004  18.106  0.00  0.00    +0.000 NA
ATOM     31  C   UNL     1      52.284   3.248  18.477  0.00  0.00    +0.000 A 
ATOM     32  N   UNL     1      50.966   3.489  18.200  0.00  0.00    +0.000 N 
ATOM     33  C   UNL     1      50.538   4.596  17.504  0.00  0.00    +0.000 A 
ATOM     34  O   UNL     1      49.346   4.812  17.320  0.00  0.00    +0.000 OA
ATOM     35  C   UNL     1      51.601   5.463  17.045  0.00  0.00    +0.000 A 
ATOM     36  H   UNL     1      50.244   2.866  18.531  0.00  0.00    +0.000 HD
ENDBRANCH  23  26
ENDBRANCH  21  22
ENDBRANCH   4  21
TORSDOF 9
ENDMDL
MODEL 7
REMARK VINA RESULT:    -6.900      4.890      9.532
REMARK INTER + INTRA:         -11.078
REMARK INTER:                  -9.840
REMARK INTRA:                  -1.238
REMARK UNBOUND:                -0.750
REMARK  Name = 
REMARK  9 active torsions:
REMARK  status: ('A' for Active; 'I' for Inactive)
REMARK    1  A    between atoms: N_1  and  C_2
REMARK    2  A    between atoms: C_2  and  C_3
REMARK    3  A    between atoms: C_3  and  N_4
REMARK    4  A    between atoms: C_3  and  C_26
REMARK    5  A    between atoms: N_4  and  C_5
REMARK    6  A    between atoms: C_5  and  C_6
REMARK    7  A    between atoms: C_9  and  C_10
REMARK    8  A    between atoms: C_10  and  N_11
REMARK    9  A    between atoms: C_12  and  C_14
REMARK                            x       y       z     vdW  Elec       q    Type
REMARK                         _______ _______ _______ _____ _____    ______ ____
ROOT
ATOM      1  C   UNL     1      51.122   2.417  17.539  0.00  0.00    +0.000 A 
ATOM      2  C   UNL     1      51.780   3.645  17.634  0.00  0.00    +0.000 A 
ATOM      3  C   UNL     1      51.061   4.830  17.495  0.00  0.00    +0.000 A 
ATOM      4  C   UNL     1      49.687   4.761  17.270  0.00  0.00    +0.000 A 
ATOM      5  N   UNL     1      49.032   3.581  17.140  0.00  0.00    +0.000 NA
ATOM      6  C   UNL     1      49.758   2.447  17.278  0.00  0.00    +0.000 A 
ENDROOT
BRANCH   1   7
ATOM      7  C   UNL     1      51.867   1.114  17.637  0.00  0.00    +0.000 C 
BRANCH   7   8
ATOM      8  N   UNL     1      53.192   1.183  17.016  0.00  0.00    +0.000 NA
ATOM      9  H   UNL     1      53.368   2.153  16.743  0.00  0.00    +0.000 HD
BRANCH   8  10
ATOM     10  C   UNL     1      54.286   0.799  17.950  0.00  0.00    +0.000 C 
BRANCH  10  11
ATOM     11  C   UNL     1      54.345  -0.725  18.131  0.00  0.00    +0.000 A 
ATOM     12  C   UNL     1      54.980  -1.538  17.189  0.00  0.00    +0.000 A 
ATOM     13  C   UNL     1      54.947  -2.921  17.352  0.00  0.00    +0.000 A 
ATOM     14  C   UNL     1      54.285  -3.463  18.446  0.00  0.00    +0.000 A 
ATOM     15  C   UNL     1      53.701  -2.591  19.349  0.00  0.00    +0.000 A 
ATOM     16  N   UNL     1      53.730  -1.244  19.229  0.00  0.00    +0.000 NA
ENDBRANCH  10  11
BRANCH  10  17
ATOM     17  C   UNL     1      54.195   1.507  19.342  0.00  0.00    +0.000 C 
BRANCH  17  18
ATOM     18  N   UNL     1      55.148   1.028  20.350  0.00  0.00    +0.000 NA
ATOM     19  H   UNL     1      56.085   1.009  19.952  0.00  0.00    +0.000 HD
ATOM     20  H   UNL     1      54.918   0.069  20.612  0.00  0.00    +0.000 HD
ENDBRANCH  17  18
ENDBRANCH  10  17
ENDBRANCH   8  10
ENDBRANCH   7   8
ENDBRANCH   1   7
BRANCH   4  21
ATOM     21  C   UNL     1      48.876   6.026  17.111  0.00  0.00    +0.000 C 
BRANCH  21  22
ATOM     22  N   UNL     1      47.971   5.932  15.987  0.00  0.00    +0.000 N 
ATOM     23  C   UNL     1      48.338   6.335  14.730  0.00  0.00    +0.000 C 
ATOM     24  O   UNL     1      49.472   6.734  14.480  0.00  0.00    +0.000 OA
ATOM     25  H   UNL     1      46.987   5.838  16.222  0.00  0.00    +0.000 HD
BRANCH  23  26
ATOM     26  C   UNL     1      47.331   6.199  13.673  0.00  0.00    +0.000 A 
ATOM     27  C   UNL     1      46.910   7.328  12.982  0.00  0.00    +0.000 A 
ATOM     28  S   UNL     1      45.763   7.000  11.764  0.00  0.00    +0.000 S 
ATOM     29  C   UNL     1      45.751   5.343  12.152  0.00  0.00    +0.000 A 
ATOM     30  N   UNL     1      44.936   4.478  11.490  0.00  0.00    +0.000 NA
ATOM     31  C   UNL     1      45.007   3.257  11.901  0.00  0.00    +0.000 A 
ATOM     32  N   UNL     1      45.824   2.819  12.908  0.00  0.00    +0.000 N 
ATOM     33  C   UNL     1      46.688   3.650  13.583  0.00  0.00    +0.000 A 
ATOM     34  O   UNL     1      47.448   3.218  14.443  0.00  0.00    +0.000 OA
ATOM     35  C   UNL     1      46.630   5.037  13.174  0.00  0.00    +0.000 A 
ATOM     36  H   UNL     1      45.843   1.846  13.175  0.00  0.00    +0.000 HD
ENDBRANCH  23  26
ENDBRANCH  21  22
ENDBRANCH   4  21
TORSDOF 9
ENDMDL
MODEL 8
REMARK VINA RESULT:    -6.893      4.104      5.412
REMARK INTER + INTRA:         -11.068
REMARK INTER:                  -9.962
REMARK INTRA:                  -1.105
REMARK UNBOUND:                -0.750
REMARK  Name = 
REMARK  9 active torsions:
REMARK  status: ('A' for Active; 'I' for Inactive)
REMARK    1  A    between atoms: N_1  and  C_2
REMARK    2  A    between atoms: C_2  and  C_3
REMARK    3  A    between atoms: C_3  and  N_4
REMARK    4  A    between atoms: C_3  and  C_26
REMARK    5  A    between atoms: N_4  and  C_5
REMARK    6  A    between atoms: C_5  and  C_6
REMARK    7  A    between atoms: C_9  and  C_10
REMARK    8  A    between atoms: C_10  and  N_11
REMARK    9  A    between atoms: C_12  and  C_14
REMARK                            x       y       z     vdW  Elec       q    Type
REMARK                         _______ _______ _______ _____ _____    ______ ____
ROOT
ATOM      1  C   UNL     1      46.317   7.174  12.499  0.00  0.00    +0.000 A 
ATOM      2  C   UNL     1      46.530   8.341  13.236  0.00  0.00    +0.000 A 
ATOM      3  C   UNL     1      47.694   8.485  13.987  0.00  0.00    +0.000 A 
ATOM      4  C   UNL     1      48.632   7.454  13.981  0.00  0.00    +0.000 A 
ATOM      5  N   UNL     1      48.432   6.298  13.300  0.00  0.00    +0.000 NA
ATOM      6  C   UNL     1      47.291   6.187  12.582  0.00  0.00    +0.000 A 
ENDROOT
BRANCH   1   7
ATOM      7  C   UNL     1      45.054   6.958  11.711  0.00  0.00    +0.000 C 
BRANCH   7   8
ATOM      8  N   UNL     1      45.290   6.193  10.484  0.00  0.00    +0.000 NA
ATOM      9  H   UNL     1      46.299   6.156  10.318  0.00  0.00    +0.000 HD
BRANCH   8  10
ATOM     10  C   UNL     1      44.823   4.783  10.587  0.00  0.00    +0.000 C 
BRANCH  10  11
ATOM     11  C   UNL     1      45.340   3.944   9.410  0.00  0.00    +0.000 A 
ATOM     12  C   UNL     1      45.294   2.548   9.446  0.00  0.00    +0.000 A 
ATOM     13  C   UNL     1      45.842   1.822   8.390  0.00  0.00    +0.000 A 
ATOM     14  C   UNL     1      46.420   2.499   7.325  0.00  0.00    +0.000 A 
ATOM     15  C   UNL     1      46.405   3.884   7.350  0.00  0.00    +0.000 A 
ATOM     16  N   UNL     1      45.867   4.618   8.351  0.00  0.00    +0.000 NA
ENDBRANCH  10  11
BRANCH  10  17
ATOM     17  C   UNL     1      43.268   4.649  10.706  0.00  0.00    +0.000 C 
BRANCH  17  18
ATOM     18  N   UNL     1      42.800   3.553  11.563  0.00  0.00    +0.000 NA
ATOM     19  H   UNL     1      43.441   3.433  12.344  0.00  0.00    +0.000 HD
ATOM     20  H   UNL     1      42.807   2.679  11.036  0.00  0.00    +0.000 HD
ENDBRANCH  17  18
ENDBRANCH  10  17
ENDBRANCH   8  10
ENDBRANCH   7   8
ENDBRANCH   1   7
BRANCH   4  21
ATOM     21  C   UNL     1      49.903   7.574  14.787  0.00  0.00    +0.000 C 
BRANCH  21  22
ATOM     22  N   UNL     1      51.066   7.641  13.929  0.00  0.00    +0.000 N 
ATOM     23  C   UNL     1      51.633   8.837  13.576  0.00  0.00    +0.000 C 
ATOM     24  O   UNL     1      51.225   9.906  14.019  0.00  0.00    +0.000 OA
ATOM     25  H   UNL     1      51.254   6.808  13.378  0.00  0.00    +0.000 HD
BRANCH  23  26
ATOM     26  C   UNL     1      52.804   8.777  12.694  0.00  0.00    +0.000 A 
ATOM     27  C   UNL     1      54.009   9.317  13.122  0.00  0.00    +0.000 A 
ATOM     28  S   UNL     1      55.279   9.139  11.998  0.00  0.00    +0.000 S 
ATOM     29  C   UNL     1      54.248   8.379  10.878  0.00  0.00    +0.000 A 
ATOM     30  N   UNL     1      54.709   7.989   9.659  0.00  0.00    +0.000 NA
ATOM     31  C   UNL     1      53.817   7.449   8.898  0.00  0.00    +0.000 A 
ATOM     32  N   UNL     1      52.508   7.256   9.248  0.00  0.00    +0.000 N 
ATOM     33  C   UNL     1      52.005   7.602  10.480  0.00  0.00    +0.000 A 
ATOM     34  O   UNL     1      50.841   7.366  10.783  0.00  0.00    +0.000 OA
ATOM     35  C   UNL     1      52.962   8.233  11.363  0.00  0.00    +0.000 A 
ATOM     36  H   UNL     1      51.861   6.814   8.611  0.00  0.00    +0.000 HD
ENDBRANCH  23  26
ENDBRANCH  21  22
ENDBRANCH   4  21
TORSDOF 9
ENDMDL
MODEL 9
REMARK VINA RESULT:    -6.789      3.101      7.865
REMARK INTER + INTRA:         -10.912
REMARK INTER:                  -8.916
REMARK INTRA:                  -1.996
REMARK UNBOUND:                -0.750
REMARK  Name = 
REMARK  9 active torsions:
REMARK  status: ('A' for Active; 'I' for Inactive)
REMARK    1  A    between atoms: N_1  and  C_2
REMARK    2  A    between atoms: C_2  and  C_3
REMARK    3  A    between atoms: C_3  and  N_4
REMARK    4  A    between atoms: C_3  and  C_26
REMARK    5  A    between atoms: N_4  and  C_5
REMARK    6  A    between atoms: C_5  and  C_6
REMARK    7  A    between atoms: C_9  and  C_10
REMARK    8  A    between atoms: C_10  and  N_11
REMARK    9  A    between atoms: C_12  and  C_14
REMARK                            x       y       z     vdW  Elec       q    Type
REMARK                         _______ _______ _______ _____ _____    ______ ____
ROOT
ATOM      1  C   UNL     1      51.560   7.028  16.939  0.00  0.00    +0.000 A 
ATOM      2  C   UNL     1      51.542   7.267  15.563  0.00  0.00    +0.000 A 
ATOM      3  C   UNL     1      50.484   7.972  14.995  0.00  0.00    +0.000 A 
ATOM      4  C   UNL     1      49.461   8.433  15.821  0.00  0.00    +0.000 A 
ATOM      5  N   UNL     1      49.439   8.184  17.154  0.00  0.00    +0.000 NA
ATOM      6  C   UNL     1      50.480   7.495  17.677  0.00  0.00    +0.000 A 
ENDROOT
BRANCH   1   7
ATOM      7  C   UNL     1      52.660   6.233  17.587  0.00  0.00    +0.000 C 
BRANCH   7   8
ATOM      8  N   UNL     1      52.142   5.189  18.475  0.00  0.00    +0.000 NA
ATOM      9  H   UNL     1      51.237   5.499  18.840  0.00  0.00    +0.000 HD
BRANCH   8  10
ATOM     10  C   UNL     1      51.899   3.901  17.769  0.00  0.00    +0.000 C 
BRANCH  10  11
ATOM     11  C   UNL     1      50.396   3.601  17.672  0.00  0.00    +0.000 A 
ATOM     12  C   UNL     1      49.495   4.131  18.598  0.00  0.00    +0.000 A 
ATOM     13  C   UNL     1      48.150   3.775  18.519  0.00  0.00    +0.000 A 
ATOM     14  C   UNL     1      47.733   2.903  17.523  0.00  0.00    +0.000 A 
ATOM     15  C   UNL     1      48.682   2.439  16.627  0.00  0.00    +0.000 A 
ATOM     16  N   UNL     1      49.991   2.779  16.666  0.00  0.00    +0.000 NA
ENDBRANCH  10  11
BRANCH  10  17
ATOM     17  C   UNL     1      52.653   2.689  18.408  0.00  0.00    +0.000 C 
BRANCH  17  18
ATOM     18  N   UNL     1      52.054   1.374  18.149  0.00  0.00    +0.000 NA
ATOM     19  H   UNL     1      52.598   0.652  18.618  0.00  0.00    +0.000 HD
ATOM     20  H   UNL     1      52.090   1.171  17.149  0.00  0.00    +0.000 HD
ENDBRANCH  17  18
ENDBRANCH  10  17
ENDBRANCH   8  10
ENDBRANCH   7   8
ENDBRANCH   1   7
BRANCH   4  21
ATOM     21  C   UNL     1      48.296   9.197  15.239  0.00  0.00    +0.000 C 
BRANCH  21  22
ATOM     22  N   UNL     1      47.354   8.309  14.593  0.00  0.00    +0.000 N 
ATOM     23  C   UNL     1      47.268   8.218  13.229  0.00  0.00    +0.000 C 
ATOM     24  O   UNL     1      48.028   8.834  12.487  0.00  0.00    +0.000 OA
ATOM     25  H   UNL     1      46.582   7.992  15.172  0.00  0.00    +0.000 HD
BRANCH  23  26
ATOM     26  C   UNL     1      46.269   7.289  12.692  0.00  0.00    +0.000 A 
ATOM     27  C   UNL     1      45.225   7.781  11.919  0.00  0.00    +0.000 A 
ATOM     28  S   UNL     1      44.169   6.574  11.342  0.00  0.00    +0.000 S 
ATOM     29  C   UNL     1      45.041   5.356  12.148  0.00  0.00    +0.000 A 
ATOM     30  N   UNL     1      44.638   4.057  12.092  0.00  0.00    +0.000 NA
ATOM     31  C   UNL     1      45.374   3.240  12.768  0.00  0.00    +0.000 A 
ATOM     32  N   UNL     1      46.481   3.601  13.488  0.00  0.00    +0.000 N 
ATOM     33  C   UNL     1      46.945   4.895  13.546  0.00  0.00    +0.000 A 
ATOM     34  O   UNL     1      47.971   5.178  14.154  0.00  0.00    +0.000 OA
ATOM     35  C   UNL     1      46.140   5.854  12.822  0.00  0.00    +0.000 A 
ATOM     36  H   UNL     1      47.023   2.911  13.986  0.00  0.00    +0.000 HD
ENDBRANCH  23  26
ENDBRANCH  21  22
ENDBRANCH   4  21
TORSDOF 9
ENDMDL
