MODEL 1
REMARK VINA RESULT:    -8.151      0.000      0.000
REMARK INTER + INTRA:         -10.433
REMARK INTER:                 -10.057
REMARK INTRA:                  -0.376
REMARK UNBOUND:                -0.376
REMARK  Name = 
REMARK  4 active torsions:
REMARK  status: ('A' for Active; 'I' for Inactive)
REMARK    1  A    between atoms: C_2  and  C_4
REMARK    2  A    between atoms: C_7  and  O_8
REMARK    3  A    between atoms: O_8  and  C_9
REMARK    4  A    between atoms: C_9  and  C_10
REMARK                            x       y       z     vdW  Elec       q    Type
REMARK                         _______ _______ _______ _____ _____    ______ ____
ROOT
ATOM      1  O   UNL     1      43.950   3.624  10.715  0.00  0.00    +0.000 OA
ENDROOT
BRANCH   1   5
ATOM      2  C   UNL     1      46.439   2.699   7.570  0.00  0.00    +0.000 A 
ATOM      3  C   UNL     1      45.935   1.694   8.394  0.00  0.00    +0.000 A 
ATOM      4  C   UNL     1      45.091   2.042   9.443  0.00  0.00    +0.000 A 
ATOM      5  C   UNL     1      44.770   3.384   9.629  0.00  0.00    +0.000 A 
ATOM      6  N   UNL     1      45.241   4.385   8.861  0.00  0.00    +0.000 NA
ATOM      7  C   UNL     1      46.081   4.015   7.850  0.00  0.00    +0.000 A 
BRANCH   2   9
ATOM      8  N   UNL     1      47.223   3.163   5.310  0.00  0.00    +0.000 N 
ATOM      9  C   UNL     1      47.364   2.416   6.452  0.00  0.00    +0.000 C 
ATOM     10  O   UNL     1      48.235   1.566   6.546  0.00  0.00    +0.000 OA
ATOM     11  H   UNL     1      47.905   3.005   4.580  0.00  0.00    +0.000 HD
ATOM     12  H   UNL     1      46.681   4.013   5.267  0.00  0.00    +0.000 HD
ENDBRANCH   2   9
ENDBRANCH   1   5
BRANCH   1  13
ATOM     13  C   UNL     1      43.966   4.929  11.332  0.00  0.00    +0.000 C 
ATOM     14  C   UNL     1      42.644   5.151  12.068  0.00  0.00    +0.000 C 
ATOM     15  C   UNL     1      43.000   6.014  10.906  0.00  0.00    +0.000 C 
BRANCH  13  16
ATOM     16  C   UNL     1      45.268   5.316  12.013  0.00  0.00    +0.000 A 
ATOM     17  C   UNL     1      46.082   6.352  11.518  0.00  0.00    +0.000 A 
ATOM     18  C   UNL     1      47.246   6.752  12.183  0.00  0.00    +0.000 A 
ATOM     19  C   UNL     1      47.623   6.127  13.371  0.00  0.00    +0.000 A 
ATOM     20 CL   UNL     1      49.044   6.701  14.167  0.00  0.00    +0.000 Cl
ATOM     21  C   UNL     1      46.843   5.084  13.878  0.00  0.00    +0.000 A 
ATOM     22 CL   UNL     1      47.249   4.255  15.341  0.00  0.00    +0.000 Cl
ATOM     23  C   UNL     1      45.682   4.687  13.201  0.00  0.00    +0.000 A 
ENDBRANCH  13  16
ENDBRANCH   1  13
TORSDOF 4
ENDMDL
MODEL 2
REMARK VINA RESULT:    -7.319      1.411      2.133
REMARK INTER + INTRA:          -9.407
REMARK INTER:                  -9.854
REMARK INTRA:                   0.447
REMARK UNBOUND:                -0.376
REMARK  Name = 
REMARK  4 active torsions:
REMARK  status: ('A' for Active; 'I' for Inactive)
REMARK    1  A    between atoms: C_2  and  C_4
REMARK    2  A    between atoms: C_7  and  O_8
REMARK    3  A    between atoms: O_8  and  C_9
REMARK    4  A    between atoms: C_9  and  C_10
REMARK                            x       y       z     vdW  Elec       q    Type
REMARK                         _______ _______ _______ _____ _____    ______ ____
ROOT
ATOM      1  O   UNL     1      43.773   4.120  10.303  0.00  0.00    +0.000 OA
ENDROOT
BRANCH   1   5
ATOM      2  C   UNL     1      46.558   2.785   7.583  0.00  0.00    +0.000 A 
ATOM      3  C   UNL     1      46.297   4.147   7.718  0.00  0.00    +0.000 A 
ATOM      4  C   UNL     1      45.354   4.562   8.652  0.00  0.00    +0.000 A 
ATOM      5  C   UNL     1      44.709   3.604   9.429  0.00  0.00    +0.000 A 
ATOM      6  N   UNL     1      44.928   2.279   9.324  0.00  0.00    +0.000 NA
ATOM      7  C   UNL     1      45.845   1.899   8.386  0.00  0.00    +0.000 A 
BRANCH   2   9
ATOM      8  N   UNL     1      47.523   2.826   5.345  0.00  0.00    +0.000 N 
ATOM      9  C   UNL     1      47.523   2.258   6.594  0.00  0.00    +0.000 C 
ATOM     10  O   UNL     1      48.307   1.368   6.882  0.00  0.00    +0.000 OA
ATOM     11  H   UNL     1      48.234   2.502   4.702  0.00  0.00    +0.000 HD
ATOM     12  H   UNL     1      47.063   3.699   5.133  0.00  0.00    +0.000 HD
ENDBRANCH   2   9
ENDBRANCH   1   5
BRANCH   1  13
ATOM     13  C   UNL     1      44.184   4.482  11.639  0.00  0.00    +0.000 C 
ATOM     14  C   UNL     1      44.639   3.225  12.381  0.00  0.00    +0.000 C 
ATOM     15  C   UNL     1      43.441   3.974  12.856  0.00  0.00    +0.000 C 
BRANCH  13  16
ATOM     16  C   UNL     1      45.014   5.750  11.749  0.00  0.00    +0.000 A 
ATOM     17  C   UNL     1      44.445   7.024  11.574  0.00  0.00    +0.000 A 
ATOM     18  C   UNL     1      45.196   8.192  11.741  0.00  0.00    +0.000 A 
ATOM     19  C   UNL     1      46.542   8.114  12.095  0.00  0.00    +0.000 A 
ATOM     20 CL   UNL     1      47.399   9.595  12.333  0.00  0.00    +0.000 Cl
ATOM     21  C   UNL     1      47.139   6.862  12.259  0.00  0.00    +0.000 A 
ATOM     22 CL   UNL     1      48.804   6.682  12.690  0.00  0.00    +0.000 Cl
ATOM     23  C   UNL     1      46.379   5.697  12.084  0.00  0.00    +0.000 A 
ENDBRANCH  13  16
ENDBRANCH   1  13
TORSDOF 4
ENDMDL
MODEL 3
REMARK VINA RESULT:    -7.291      3.914      6.241
REMARK INTER + INTRA:          -9.372
REMARK INTER:                  -8.980
REMARK INTRA:                  -0.392
REMARK UNBOUND:                -0.376
REMARK  Name = 
REMARK  4 active torsions:
REMARK  status: ('A' for Active; 'I' for Inactive)
REMARK    1  A    between atoms: C_2  and  C_4
REMARK    2  A    between atoms: C_7  and  O_8
REMARK    3  A    between atoms: O_8  and  C_9
REMARK    4  A    between atoms: C_9  and  C_10
REMARK                            x       y       z     vdW  Elec       q    Type
REMARK                         _______ _______ _______ _____ _____    ______ ____
ROOT
ATOM      1  O   UNL     1      44.626   5.349  11.447  0.00  0.00    +0.000 OA
ENDROOT
BRANCH   1   5
ATOM      2  C   UNL     1      48.078   6.563  13.332  0.00  0.00    +0.000 A 
ATOM      3  C   UNL     1      47.682   7.151  12.132  0.00  0.00    +0.000 A 
ATOM      4  C   UNL     1      46.506   6.720  11.527  0.00  0.00    +0.000 A 
ATOM      5  C   UNL     1      45.758   5.722  12.145  0.00  0.00    +0.000 A 
ATOM      6  N   UNL     1      46.110   5.125  13.300  0.00  0.00    +0.000 NA
ATOM      7  C   UNL     1      47.277   5.555  13.862  0.00  0.00    +0.000 A 
BRANCH   2   9
ATOM      8  N   UNL     1      50.230   7.707  13.329  0.00  0.00    +0.000 N 
ATOM      9  C   UNL     1      49.327   6.942  14.025  0.00  0.00    +0.000 C 
ATOM     10  O   UNL     1      49.542   6.609  15.180  0.00  0.00    +0.000 OA
ATOM     11  H   UNL     1      51.048   8.014  13.838  0.00  0.00    +0.000 HD
ATOM     12  H   UNL     1      50.003   8.189  12.472  0.00  0.00    +0.000 HD
ENDBRANCH   2   9
ENDBRANCH   1   5
BRANCH   1  13
ATOM     13  C   UNL     1      44.478   3.973  11.033  0.00  0.00    +0.000 C 
ATOM     14  C   UNL     1      43.044   3.519  11.308  0.00  0.00    +0.000 C 
ATOM     15  C   UNL     1      44.178   2.878  12.034  0.00  0.00    +0.000 C 
BRANCH  13  16
ATOM     16  C   UNL     1      45.128   3.614   9.707  0.00  0.00    +0.000 A 
ATOM     17  C   UNL     1      45.494   4.599   8.772  0.00  0.00    +0.000 A 
ATOM     18  C   UNL     1      46.152   4.272   7.582  0.00  0.00    +0.000 A 
ATOM     19  C   UNL     1      46.468   2.944   7.299  0.00  0.00    +0.000 A 
ATOM     20 CL   UNL     1      47.324   2.614   5.835  0.00  0.00    +0.000 Cl
ATOM     21  C   UNL     1      46.103   1.942   8.201  0.00  0.00    +0.000 A 
ATOM     22 CL   UNL     1      46.452   0.272   7.918  0.00  0.00    +0.000 Cl
ATOM     23  C   UNL     1      45.438   2.279   9.388  0.00  0.00    +0.000 A 
ENDBRANCH  13  16
ENDBRANCH   1  13
TORSDOF 4
ENDMDL
MODEL 4
REMARK VINA RESULT:    -6.102      3.886      6.526
REMARK INTER + INTRA:          -7.905
REMARK INTER:                  -7.550
REMARK INTRA:                  -0.355
REMARK UNBOUND:                -0.376
REMARK  Name = 
REMARK  4 active torsions:
REMARK  status: ('A' for Active; 'I' for Inactive)
REMARK    1  A    between atoms: C_2  and  C_4
REMARK    2  A    between atoms: C_7  and  O_8
REMARK    3  A    between atoms: O_8  and  C_9
REMARK    4  A    between atoms: C_9  and  C_10
REMARK                            x       y       z     vdW  Elec       q    Type
REMARK                         _______ _______ _______ _____ _____    ______ ____
ROOT
ATOM      1  O   UNL     1      44.699   6.740  11.591  0.00  0.00    +0.000 OA
ENDROOT
BRANCH   1   5
ATOM      2  C   UNL     1      47.986   7.231  14.019  0.00  0.00    +0.000 A 
ATOM      3  C   UNL     1      47.268   8.336  13.566  0.00  0.00    +0.000 A 
ATOM      4  C   UNL     1      46.159   8.133  12.752  0.00  0.00    +0.000 A 
ATOM      5  C   UNL     1      45.796   6.829  12.425  0.00  0.00    +0.000 A 
ATOM      6  N   UNL     1      46.466   5.735  12.837  0.00  0.00    +0.000 NA
ATOM      7  C   UNL     1      47.561   5.967  13.618  0.00  0.00    +0.000 A 
BRANCH   2   9
ATOM      8  N   UNL     1      50.404   7.454  14.224  0.00  0.00    +0.000 N 
ATOM      9  C   UNL     1      49.193   7.362  14.862  0.00  0.00    +0.000 C 
ATOM     10  O   UNL     1      49.116   7.410  16.080  0.00  0.00    +0.000 OA
ATOM     11  H   UNL     1      51.213   7.611  14.811  0.00  0.00    +0.000 HD
ATOM     12  H   UNL     1      50.498   7.646  13.238  0.00  0.00    +0.000 HD
ENDBRANCH   2   9
ENDBRANCH   1   5
BRANCH   1  13
ATOM     13  C   UNL     1      43.943   5.510  11.554  0.00  0.00    +0.000 C 
ATOM     14  C   UNL     1      42.451   5.841  11.498  0.00  0.00    +0.000 C 
ATOM     15  C   UNL     1      43.008   5.126  12.682  0.00  0.00    +0.000 C 
BRANCH  13  16
ATOM     16  C   UNL     1      44.496   4.426  10.644  0.00  0.00    +0.000 A 
ATOM     17  C   UNL     1      44.183   3.068  10.837  0.00  0.00    +0.000 A 
ATOM     18  C   UNL     1      44.639   2.079   9.959  0.00  0.00    +0.000 A 
ATOM     19  C   UNL     1      45.420   2.426   8.857  0.00  0.00    +0.000 A 
ATOM     20 CL   UNL     1      45.909   1.162   7.787  0.00  0.00    +0.000 Cl
ATOM     21  C   UNL     1      45.760   3.765   8.650  0.00  0.00    +0.000 A 
ATOM     22 CL   UNL     1      46.730   4.274   7.311  0.00  0.00    +0.000 Cl
ATOM     23  C   UNL     1      45.303   4.748   9.538  0.00  0.00    +0.000 A 
ENDBRANCH  13  16
ENDBRANCH   1  13
TORSDOF 4
ENDMDL
MODEL 5
REMARK VINA RESULT:    -6.052      4.628      6.625
REMARK INTER + INTRA:          -7.844
REMARK INTER:                  -7.531
REMARK INTRA:                  -0.313
REMARK UNBOUND:                -0.376
REMARK  Name = 
REMARK  4 active torsions:
REMARK  status: ('A' for Active; 'I' for Inactive)
REMARK    1  A    between atoms: C_2  and  C_4
REMARK    2  A    between atoms: C_7  and  O_8
REMARK    3  A    between atoms: O_8  and  C_9
REMARK    4  A    between atoms: C_9  and  C_10
REMARK                            x       y       z     vdW  Elec       q    Type
REMARK                         _______ _______ _______ _____ _____    ______ ____
ROOT
ATOM      1  O   UNL     1      47.830   3.014  15.283  0.00  0.00    +0.000 OA
ENDROOT
BRANCH   1   5
ATOM      2  C   UNL     1      46.212   5.555  12.479  0.00  0.00    +0.000 A 
ATOM      3  C   UNL     1      45.747   4.247  12.600  0.00  0.00    +0.000 A 
ATOM      4  C   UNL     1      46.313   3.418  13.564  0.00  0.00    +0.000 A 
ATOM      5  C   UNL     1      47.318   3.927  14.382  0.00  0.00    +0.000 A 
ATOM      6  N   UNL     1      47.798   5.182  14.292  0.00  0.00    +0.000 NA
ATOM      7  C   UNL     1      47.237   5.966  13.326  0.00  0.00    +0.000 A 
BRANCH   2   9
ATOM      8  N   UNL     1      45.412   5.983  10.217  0.00  0.00    +0.000 N 
ATOM      9  C   UNL     1      45.685   6.490  11.463  0.00  0.00    +0.000 C 
ATOM     10  O   UNL     1      45.478   7.665  11.724  0.00  0.00    +0.000 OA
ATOM     11  H   UNL     1      44.989   6.620   9.554  0.00  0.00    +0.000 HD
ATOM     12  H   UNL     1      45.350   4.995  10.022  0.00  0.00    +0.000 HD
ENDBRANCH   2   9
ENDBRANCH   1   5
BRANCH   1  13
ATOM     13  C   UNL     1      48.095   3.438  16.638  0.00  0.00    +0.000 C 
ATOM     14  C   UNL     1      47.065   2.802  17.572  0.00  0.00    +0.000 C 
ATOM     15  C   UNL     1      47.102   4.284  17.407  0.00  0.00    +0.000 C 
BRANCH  13  16
ATOM     16  C   UNL     1      49.558   3.451  17.047  0.00  0.00    +0.000 A 
ATOM     17  C   UNL     1      50.216   4.642  17.405  0.00  0.00    +0.000 A 
ATOM     18  C   UNL     1      51.544   4.643  17.845  0.00  0.00    +0.000 A 
ATOM     19  C   UNL     1      52.249   3.445  17.944  0.00  0.00    +0.000 A 
ATOM     20 CL   UNL     1      53.869   3.511  18.541  0.00  0.00    +0.000 Cl
ATOM     21  C   UNL     1      51.627   2.248  17.580  0.00  0.00    +0.000 A 
ATOM     22 CL   UNL     1      52.438   0.722  17.668  0.00  0.00    +0.000 Cl
ATOM     23  C   UNL     1      50.299   2.258  17.135  0.00  0.00    +0.000 A 
ENDBRANCH  13  16
ENDBRANCH   1  13
TORSDOF 4
ENDMDL
MODEL 6
REMARK VINA RESULT:    -5.951      4.287      7.065
REMARK INTER + INTRA:          -7.718
REMARK INTER:                  -7.406
REMARK INTRA:                  -0.312
REMARK UNBOUND:                -0.376
REMARK  Name = 
REMARK  4 active torsions:
REMARK  status: ('A' for Active; 'I' for Inactive)
REMARK    1  A    between atoms: C_2  and  C_4
REMARK    2  A    between atoms: C_7  and  O_8
REMARK    3  A    between atoms: O_8  and  C_9
REMARK    4  A    between atoms: C_9  and  C_10
REMARK                            x       y       z     vdW  Elec       q    Type
REMARK                         _______ _______ _______ _____ _____    ______ ____
ROOT
ATOM      1  O   UNL     1      47.561   6.578  12.790  0.00  0.00    +0.000 OA
ENDROOT
BRANCH   1   5
ATOM      2  C   UNL     1      48.007   4.773  16.462  0.00  0.00    +0.000 A 
ATOM      3  C   UNL     1      48.554   6.032  16.221  0.00  0.00    +0.000 A 
ATOM      4  C   UNL     1      48.378   6.615  14.970  0.00  0.00    +0.000 A 
ATOM      5  C   UNL     1      47.652   5.925  14.004  0.00  0.00    +0.000 A 
ATOM      6  N   UNL     1      47.113   4.705  14.195  0.00  0.00    +0.000 NA
ATOM      7  C   UNL     1      47.318   4.150  15.425  0.00  0.00    +0.000 A 
BRANCH   2   9
ATOM      8  N   UNL     1      47.306   3.047  18.033  0.00  0.00    +0.000 N 
ATOM      9  C   UNL     1      48.173   4.073  17.753  0.00  0.00    +0.000 C 
ATOM     10  O   UNL     1      49.062   4.377  18.534  0.00  0.00    +0.000 OA
ATOM     11  H   UNL     1      47.474   2.534  18.888  0.00  0.00    +0.000 HD
ATOM     12  H   UNL     1      46.714   2.616  17.338  0.00  0.00    +0.000 HD
ENDBRANCH   2   9
ENDBRANCH   1   5
BRANCH   1  13
ATOM     13  C   UNL     1      46.256   6.851  12.235  0.00  0.00    +0.000 C 
ATOM     14  C   UNL     1      46.189   8.319  11.813  0.00  0.00    +0.000 C 
ATOM     15  C   UNL     1      45.303   7.820  12.904  0.00  0.00    +0.000 C 
BRANCH  13  16
ATOM     16  C   UNL     1      45.703   5.786  11.304  0.00  0.00    +0.000 A 
ATOM     17  C   UNL     1      46.081   5.718   9.951  0.00  0.00    +0.000 A 
ATOM     18  C   UNL     1      45.623   4.698   9.111  0.00  0.00    +0.000 A 
ATOM     19  C   UNL     1      44.775   3.709   9.609  0.00  0.00    +0.000 A 
ATOM     20 CL   UNL     1      44.286   2.451   8.532  0.00  0.00    +0.000 Cl
ATOM     21  C   UNL     1      44.369   3.760  10.945  0.00  0.00    +0.000 A 
ATOM     22 CL   UNL     1      43.314   2.576  11.634  0.00  0.00    +0.000 Cl
ATOM     23  C   UNL     1      44.829   4.790  11.776  0.00  0.00    +0.000 A 
ENDBRANCH  13  16
ENDBRANCH   1  13
TORSDOF 4
ENDMDL
MODEL 7
REMARK VINA RESULT:    -5.884      3.205      5.003
REMARK INTER + INTRA:          -7.636
REMARK INTER:                  -7.204
REMARK INTRA:                  -0.432
REMARK UNBOUND:                -0.376
REMARK  Name = 
REMARK  4 active torsions:
REMARK  status: ('A' for Active; 'I' for Inactive)
REMARK    1  A    between atoms: C_2  and  C_4
REMARK    2  A    between atoms: C_7  and  O_8
REMARK    3  A    between atoms: O_8  and  C_9
REMARK    4  A    between atoms: C_9  and  C_10
REMARK                            x       y       z     vdW  Elec       q    Type
REMARK                         _______ _______ _______ _____ _____    ______ ____
ROOT
ATOM      1  O   UNL     1      46.354   7.692  12.705  0.00  0.00    +0.000 OA
ENDROOT
BRANCH   1   5
ATOM      2  C   UNL     1      44.613   4.183  11.444  0.00  0.00    +0.000 A 
ATOM      3  C   UNL     1      44.927   5.186  10.529  0.00  0.00    +0.000 A 
ATOM      4  C   UNL     1      45.521   6.356  10.990  0.00  0.00    +0.000 A 
ATOM      5  C   UNL     1      45.791   6.482  12.349  0.00  0.00    +0.000 A 
ATOM      6  N   UNL     1      45.497   5.539  13.266  0.00  0.00    +0.000 NA
ATOM      7  C   UNL     1      44.899   4.410  12.787  0.00  0.00    +0.000 A 
BRANCH   2   9
ATOM      8  N   UNL     1      44.524   2.212  10.013  0.00  0.00    +0.000 N 
ATOM      9  C   UNL     1      43.955   2.922  11.040  0.00  0.00    +0.000 C 
ATOM     10  O   UNL     1      42.957   2.513  11.612  0.00  0.00    +0.000 OA
ATOM     11  H   UNL     1      44.102   1.319   9.794  0.00  0.00    +0.000 HD
ATOM     12  H   UNL     1      45.456   2.385   9.669  0.00  0.00    +0.000 HD
ENDBRANCH   2   9
ENDBRANCH   1   5
BRANCH   1  13
ATOM     13  C   UNL     1      47.774   7.758  12.962  0.00  0.00    +0.000 C 
ATOM     14  C   UNL     1      48.411   8.762  12.000  0.00  0.00    +0.000 C 
ATOM     15  C   UNL     1      48.783   7.321  11.922  0.00  0.00    +0.000 C 
BRANCH  13  16
ATOM     16  C   UNL     1      48.175   7.779  14.427  0.00  0.00    +0.000 A 
ATOM     17  C   UNL     1      48.097   8.953  15.199  0.00  0.00    +0.000 A 
ATOM     18  C   UNL     1      48.404   8.955  16.564  0.00  0.00    +0.000 A 
ATOM     19  C   UNL     1      48.791   7.775  17.196  0.00  0.00    +0.000 A 
ATOM     20 CL   UNL     1      49.107   7.837  18.893  0.00  0.00    +0.000 Cl
ATOM     21  C   UNL     1      48.892   6.596  16.452  0.00  0.00    +0.000 A 
ATOM     22 CL   UNL     1      49.373   5.095  17.163  0.00  0.00    +0.000 Cl
ATOM     23  C   UNL     1      48.589   6.606  15.084  0.00  0.00    +0.000 A 
ENDBRANCH  13  16
ENDBRANCH   1  13
TORSDOF 4
ENDMDL
MODEL 8
REMARK VINA RESULT:    -5.837      2.553      4.191
REMARK INTER + INTRA:          -7.578
REMARK INTER:                  -7.569
REMARK INTRA:                  -0.009
REMARK UNBOUND:                -0.376
REMARK  Name = 
REMARK  4 active torsions:
REMARK  status: ('A' for Active; 'I' for Inactive)
REMARK    1  A    between atoms: C_2  and  C_4
REMARK    2  A    between atoms: C_7  and  O_8
REMARK    3  A    between atoms: O_8  and  C_9
REMARK    4  A    between atoms: C_9  and  C_10
REMARK                            x       y       z     vdW  Elec       q    Type
REMARK                         _______ _______ _______ _____ _____    ______ ____
ROOT
ATOM      1  O   UNL     1      46.086   6.256  13.391  0.00  0.00    +0.000 OA
ENDROOT
BRANCH   1   5
ATOM      2  C   UNL     1      44.970   3.789  10.292  0.00  0.00    +0.000 A 
ATOM      3  C   UNL     1      45.054   3.297  11.593  0.00  0.00    +0.000 A 
ATOM      4  C   UNL     1      45.428   4.161  12.617  0.00  0.00    +0.000 A 
ATOM      5  C   UNL     1      45.696   5.492  12.309  0.00  0.00    +0.000 A 
ATOM      6  N   UNL     1      45.633   6.004  11.065  0.00  0.00    +0.000 NA
ATOM      7  C   UNL     1      45.281   5.129  10.078  0.00  0.00    +0.000 A 
BRANCH   2   9
ATOM      8  N   UNL     1      44.301   3.555   7.960  0.00  0.00    +0.000 N 
ATOM      9  C   UNL     1      44.608   2.931   9.143  0.00  0.00    +0.000 C 
ATOM     10  O   UNL     1      44.604   1.714   9.234  0.00  0.00    +0.000 OA
ATOM     11  H   UNL     1      44.121   2.953   7.167  0.00  0.00    +0.000 HD
ATOM     12  H   UNL     1      44.507   4.525   7.775  0.00  0.00    +0.000 HD
ENDBRANCH   2   9
ENDBRANCH   1   5
BRANCH   1  13
ATOM     13  C   UNL     1      47.494   6.469  13.631  0.00  0.00    +0.000 C 
ATOM     14  C   UNL     1      47.869   7.884  13.189  0.00  0.00    +0.000 C 
ATOM     15  C   UNL     1      48.459   6.708  12.488  0.00  0.00    +0.000 C 
BRANCH  13  16
ATOM     16  C   UNL     1      48.023   5.941  14.953  0.00  0.00    +0.000 A 
ATOM     17  C   UNL     1      49.041   6.605  15.661  0.00  0.00    +0.000 A 
ATOM     18  C   UNL     1      49.480   6.155  16.910  0.00  0.00    +0.000 A 
ATOM     19  C   UNL     1      48.903   5.025  17.490  0.00  0.00    +0.000 A 
ATOM     20 CL   UNL     1      49.457   4.552  19.056  0.00  0.00    +0.000 Cl
ATOM     21  C   UNL     1      47.901   4.336  16.803  0.00  0.00    +0.000 A 
ATOM     22 CL   UNL     1      47.142   2.923  17.452  0.00  0.00    +0.000 Cl
ATOM     23  C   UNL     1      47.472   4.792  15.550  0.00  0.00    +0.000 A 
ENDBRANCH  13  16
ENDBRANCH   1  13
TORSDOF 4
ENDMDL
MODEL 9
REMARK VINA RESULT:    -5.748      5.098      8.265
REMARK INTER + INTRA:          -7.468
REMARK INTER:                  -7.104
REMARK INTRA:                  -0.364
REMARK UNBOUND:                -0.376
REMARK  Name = 
REMARK  4 active torsions:
REMARK  status: ('A' for Active; 'I' for Inactive)
REMARK    1  A    between atoms: C_2  and  C_4
REMARK    2  A    between atoms: C_7  and  O_8
REMARK    3  A    between atoms: O_8  and  C_9
REMARK    4  A    between atoms: C_9  and  C_10
REMARK                            x       y       z     vdW  Elec       q    Type
REMARK                         _______ _______ _______ _____ _____    ______ ____
ROOT
ATOM      1  O   UNL     1      48.509   5.941  14.249  0.00  0.00    +0.000 OA
ENDROOT
BRANCH   1   5
ATOM      2  C   UNL     1      48.177   5.440  18.320  0.00  0.00    +0.000 A 
ATOM      3  C   UNL     1      48.790   6.576  17.795  0.00  0.00    +0.000 A 
ATOM      4  C   UNL     1      48.879   6.715  16.414  0.00  0.00    +0.000 A 
ATOM      5  C   UNL     1      48.343   5.719  15.602  0.00  0.00    +0.000 A 
ATOM      6  N   UNL     1      47.749   4.605  16.071  0.00  0.00    +0.000 NA
ATOM      7  C   UNL     1      47.692   4.487  17.429  0.00  0.00    +0.000 A 
BRANCH   2   9
ATOM      8  N   UNL     1      48.605   4.040  20.269  0.00  0.00    +0.000 N 
ATOM      9  C   UNL     1      48.068   5.202  19.775  0.00  0.00    +0.000 C 
ATOM     10  O   UNL     1      47.540   6.017  20.516  0.00  0.00    +0.000 OA
ATOM     11  H   UNL     1      48.582   3.923  21.273  0.00  0.00    +0.000 HD
ATOM     12  H   UNL     1      49.239   3.456  19.744  0.00  0.00    +0.000 HD
ENDBRANCH   2   9
ENDBRANCH   1   5
BRANCH   1  13
ATOM     13  C   UNL     1      47.420   6.511  13.491  0.00  0.00    +0.000 C 
ATOM     14  C   UNL     1      47.977   7.555  12.522  0.00  0.00    +0.000 C 
ATOM     15  C   UNL     1      47.056   7.975  13.616  0.00  0.00    +0.000 C 
BRANCH  13  16
ATOM     16  C   UNL     1      46.377   5.523  12.997  0.00  0.00    +0.000 A 
ATOM     17  C   UNL     1      46.641   4.143  12.923  0.00  0.00    +0.000 A 
ATOM     18  C   UNL     1      45.659   3.228  12.531  0.00  0.00    +0.000 A 
ATOM     19  C   UNL     1      44.377   3.672  12.208  0.00  0.00    +0.000 A 
ATOM     20 CL   UNL     1      43.198   2.485  11.780  0.00  0.00    +0.000 Cl
ATOM     21  C   UNL     1      44.090   5.038  12.258  0.00  0.00    +0.000 A 
ATOM     22 CL   UNL     1      42.527   5.667  11.865  0.00  0.00    +0.000 Cl
ATOM     23  C   UNL     1      45.083   5.948  12.645  0.00  0.00    +0.000 A 
ENDBRANCH  13  16
ENDBRANCH   1  13
TORSDOF 4
ENDMDL
