MODEL 1
REMARK VINA RESULT:    -6.903      0.000      0.000
REMARK INTER + INTRA:          -9.797
REMARK INTER:                  -9.123
REMARK INTRA:                  -0.674
REMARK UNBOUND:                -0.674
REMARK  Name = 
REMARK  6 active torsions:
REMARK  status: ('A' for Active; 'I' for Inactive)
REMARK    1  A    between atoms: N_1  and  C_2
REMARK    2  A    between atoms: C_2  and  C_3
REMARK    3  A    between atoms: C_3  and  C_4
REMARK    4  A    between atoms: C_7  and  C_8
REMARK    5  A    between atoms: C_8  and  C_9
REMARK    6  A    between atoms: C_9  and  C_10
REMARK                            x       y       z     vdW  Elec       q    Type
REMARK                         _______ _______ _______ _____ _____    ______ ____
ROOT
ATOM      1  C   UNL     1      45.924   2.366   8.151  0.00  0.00    +0.000 A 
ATOM      2  C   UNL     1      46.026   3.750   8.074  0.00  0.00    +0.000 A 
ATOM      3  C   UNL     1      45.204   4.547   8.866  0.00  0.00    +0.000 A 
ATOM      4  C   UNL     1      44.267   3.949   9.707  0.00  0.00    +0.000 A 
ATOM      5  N   UNL     1      44.168   2.602   9.810  0.00  0.00    +0.000 NA
ATOM      6  C   UNL     1      44.992   1.846   9.043  0.00  0.00    +0.000 A 
ENDROOT
BRANCH   1   7
ATOM      7  C   UNL     1      46.820   1.473   7.338  0.00  0.00    +0.000 C 
BRANCH   7   8
ATOM      8  C   UNL     1      48.063   2.225   6.844  0.00  0.00    +0.000 C 
BRANCH   8   9
ATOM      9  N   UNL     1      48.404   1.835   5.479  0.00  0.00    +0.000 NA
ATOM     10  H   UNL     1      48.057   2.545   4.834  0.00  0.00    +0.000 HD
ATOM     11  H   UNL     1      47.921   0.972   5.235  0.00  0.00    +0.000 HD
ENDBRANCH   8   9
ENDBRANCH   7   8
ENDBRANCH   1   7
BRANCH   4  12
ATOM     12  C   UNL     1      43.334   4.762  10.584  0.00  0.00    +0.000 C 
BRANCH  12  13
ATOM     13  C   UNL     1      43.564   4.556  12.087  0.00  0.00    +0.000 C 
BRANCH  13  14
ATOM     14  C   UNL     1      44.823   5.179  12.638  0.00  0.00    +0.000 A 
ATOM     15  C   UNL     1      45.802   4.368  13.233  0.00  0.00    +0.000 A 
ATOM     16  C   UNL     1      47.015   4.909  13.658  0.00  0.00    +0.000 A 
ATOM     17  C   UNL     1      47.262   6.269  13.496  0.00  0.00    +0.000 A 
ATOM     18  C   UNL     1      46.292   7.090  12.921  0.00  0.00    +0.000 A 
ATOM     19  C   UNL     1      45.077   6.548  12.493  0.00  0.00    +0.000 A 
ENDBRANCH  13  14
ENDBRANCH  12  13
ENDBRANCH   4  12
TORSDOF 6
ENDMDL
MODEL 2
REMARK VINA RESULT:    -6.764      2.402      6.040
REMARK INTER + INTRA:          -9.613
REMARK INTER:                  -9.077
REMARK INTRA:                  -0.536
REMARK UNBOUND:                -0.674
REMARK  Name = 
REMARK  6 active torsions:
REMARK  status: ('A' for Active; 'I' for Inactive)
REMARK    1  A    between atoms: N_1  and  C_2
REMARK    2  A    between atoms: C_2  and  C_3
REMARK    3  A    between atoms: C_3  and  C_4
REMARK    4  A    between atoms: C_7  and  C_8
REMARK    5  A    between atoms: C_8  and  C_9
REMARK    6  A    between atoms: C_9  and  C_10
REMARK                            x       y       z     vdW  Elec       q    Type
REMARK                         _______ _______ _______ _____ _____    ______ ____
ROOT
ATOM      1  C   UNL     1      46.614   5.834  12.813  0.00  0.00    +0.000 A 
ATOM      2  C   UNL     1      46.535   6.382  11.538  0.00  0.00    +0.000 A 
ATOM      3  C   UNL     1      45.714   5.790  10.582  0.00  0.00    +0.000 A 
ATOM      4  C   UNL     1      45.000   4.636  10.905  0.00  0.00    +0.000 A 
ATOM      5  N   UNL     1      45.050   4.101  12.149  0.00  0.00    +0.000 NA
ATOM      6  C   UNL     1      45.843   4.705  13.068  0.00  0.00    +0.000 A 
ENDROOT
BRANCH   1   7
ATOM      7  C   UNL     1      47.462   6.467  13.880  0.00  0.00    +0.000 C 
BRANCH   7   8
ATOM      8  C   UNL     1      48.610   7.285  13.274  0.00  0.00    +0.000 C 
BRANCH   8   9
ATOM      9  N   UNL     1      49.874   6.989  13.941  0.00  0.00    +0.000 NA
ATOM     10  H   UNL     1      49.821   7.304  14.910  0.00  0.00    +0.000 HD
ATOM     11  H   UNL     1      50.626   7.527  13.511  0.00  0.00    +0.000 HD
ENDBRANCH   8   9
ENDBRANCH   7   8
ENDBRANCH   1   7
BRANCH   4  12
ATOM     12  C   UNL     1      44.100   3.937   9.905  0.00  0.00    +0.000 C 
BRANCH  12  13
ATOM     13  C   UNL     1      44.576   2.529   9.526  0.00  0.00    +0.000 C 
BRANCH  13  14
ATOM     14  C   UNL     1      45.588   2.469   8.408  0.00  0.00    +0.000 A 
ATOM     15  C   UNL     1      46.302   1.283   8.175  0.00  0.00    +0.000 A 
ATOM     16  C   UNL     1      47.166   1.173   7.086  0.00  0.00    +0.000 A 
ATOM     17  C   UNL     1      47.330   2.251   6.219  0.00  0.00    +0.000 A 
ATOM     18  C   UNL     1      46.639   3.440   6.449  0.00  0.00    +0.000 A 
ATOM     19  C   UNL     1      45.771   3.550   7.538  0.00  0.00    +0.000 A 
ENDBRANCH  13  14
ENDBRANCH  12  13
ENDBRANCH   4  12
TORSDOF 6
ENDMDL
MODEL 3
REMARK VINA RESULT:    -6.753      2.416      6.301
REMARK INTER + INTRA:          -9.598
REMARK INTER:                  -8.985
REMARK INTRA:                  -0.613
REMARK UNBOUND:                -0.674
REMARK  Name = 
REMARK  6 active torsions:
REMARK  status: ('A' for Active; 'I' for Inactive)
REMARK    1  A    between atoms: N_1  and  C_2
REMARK    2  A    between atoms: C_2  and  C_3
REMARK    3  A    between atoms: C_3  and  C_4
REMARK    4  A    between atoms: C_7  and  C_8
REMARK    5  A    between atoms: C_8  and  C_9
REMARK    6  A    between atoms: C_9  and  C_10
REMARK                            x       y       z     vdW  Elec       q    Type
REMARK                         _______ _______ _______ _____ _____    ______ ____
ROOT
ATOM      1  C   UNL     1      46.812   5.567  13.111  0.00  0.00    +0.000 A 
ATOM      2  C   UNL     1      46.322   6.054  11.904  0.00  0.00    +0.000 A 
ATOM      3  C   UNL     1      45.500   5.251  11.119  0.00  0.00    +0.000 A 
ATOM      4  C   UNL     1      45.200   3.954  11.536  0.00  0.00    +0.000 A 
ATOM      5  N   UNL     1      45.652   3.471  12.718  0.00  0.00    +0.000 NA
ATOM      6  C   UNL     1      46.435   4.278  13.475  0.00  0.00    +0.000 A 
ENDROOT
BRANCH   1   7
ATOM      7  C   UNL     1      47.672   6.418  14.002  0.00  0.00    +0.000 C 
BRANCH   7   8
ATOM      8  C   UNL     1      47.707   7.875  13.523  0.00  0.00    +0.000 C 
BRANCH   8   9
ATOM      9  N   UNL     1      47.122   8.769  14.518  0.00  0.00    +0.000 NA
ATOM     10  H   UNL     1      46.246   8.367  14.852  0.00  0.00    +0.000 HD
ATOM     11  H   UNL     1      46.877   9.657  14.084  0.00  0.00    +0.000 HD
ENDBRANCH   8   9
ENDBRANCH   7   8
ENDBRANCH   1   7
BRANCH   4  12
ATOM     12  C   UNL     1      44.322   3.026  10.719  0.00  0.00    +0.000 C 
BRANCH  12  13
ATOM     13  C   UNL     1      44.288   3.368   9.224  0.00  0.00    +0.000 C 
BRANCH  13  14
ATOM     14  C   UNL     1      45.387   2.749   8.395  0.00  0.00    +0.000 A 
ATOM     15  C   UNL     1      46.213   3.567   7.608  0.00  0.00    +0.000 A 
ATOM     16  C   UNL     1      47.297   3.029   6.915  0.00  0.00    +0.000 A 
ATOM     17  C   UNL     1      47.565   1.665   6.997  0.00  0.00    +0.000 A 
ATOM     18  C   UNL     1      46.743   0.839   7.762  0.00  0.00    +0.000 A 
ATOM     19  C   UNL     1      45.658   1.378   8.459  0.00  0.00    +0.000 A 
ENDBRANCH  13  14
ENDBRANCH  12  13
ENDBRANCH   4  12
TORSDOF 6
ENDMDL
MODEL 4
REMARK VINA RESULT:    -6.606      2.423      6.558
REMARK INTER + INTRA:          -9.404
REMARK INTER:                  -8.851
REMARK INTRA:                  -0.553
REMARK UNBOUND:                -0.674
REMARK  Name = 
REMARK  6 active torsions:
REMARK  status: ('A' for Active; 'I' for Inactive)
REMARK    1  A    between atoms: N_1  and  C_2
REMARK    2  A    between atoms: C_2  and  C_3
REMARK    3  A    between atoms: C_3  and  C_4
REMARK    4  A    between atoms: C_7  and  C_8
REMARK    5  A    between atoms: C_8  and  C_9
REMARK    6  A    between atoms: C_9  and  C_10
REMARK                            x       y       z     vdW  Elec       q    Type
REMARK                         _______ _______ _______ _____ _____    ______ ____
ROOT
ATOM      1  C   UNL     1      46.567   4.839  13.688  0.00  0.00    +0.000 A 
ATOM      2  C   UNL     1      46.251   3.519  13.388  0.00  0.00    +0.000 A 
ATOM      3  C   UNL     1      45.514   3.228  12.244  0.00  0.00    +0.000 A 
ATOM      4  C   UNL     1      45.074   4.267  11.425  0.00  0.00    +0.000 A 
ATOM      5  N   UNL     1      45.389   5.557  11.691  0.00  0.00    +0.000 NA
ATOM      6  C   UNL     1      46.124   5.814  12.800  0.00  0.00    +0.000 A 
ENDROOT
BRANCH   1   7
ATOM      7  C   UNL     1      47.392   5.187  14.895  0.00  0.00    +0.000 C 
BRANCH   7   8
ATOM      8  C   UNL     1      47.403   4.043  15.917  0.00  0.00    +0.000 C 
BRANCH   8   9
ATOM      9  N   UNL     1      46.740   4.439  17.156  0.00  0.00    +0.000 NA
ATOM     10  H   UNL     1      45.998   5.105  16.938  0.00  0.00    +0.000 HD
ATOM     11  H   UNL     1      47.396   4.937  17.755  0.00  0.00    +0.000 HD
ENDBRANCH   8   9
ENDBRANCH   7   8
ENDBRANCH   1   7
BRANCH   4  12
ATOM     12  C   UNL     1      44.255   4.017  10.173  0.00  0.00    +0.000 C 
BRANCH  12  13
ATOM     13  C   UNL     1      44.403   2.595   9.614  0.00  0.00    +0.000 C 
BRANCH  13  14
ATOM     14  C   UNL     1      45.378   2.449   8.472  0.00  0.00    +0.000 A 
ATOM     15  C   UNL     1      45.666   3.553   7.653  0.00  0.00    +0.000 A 
ATOM     16  C   UNL     1      46.638   3.467   6.657  0.00  0.00    +0.000 A 
ATOM     17  C   UNL     1      47.330   2.275   6.464  0.00  0.00    +0.000 A 
ATOM     18  C   UNL     1      47.042   1.166   7.259  0.00  0.00    +0.000 A 
ATOM     19  C   UNL     1      46.070   1.252   8.260  0.00  0.00    +0.000 A 
ENDBRANCH  13  14
ENDBRANCH  12  13
ENDBRANCH   4  12
TORSDOF 6
ENDMDL
MODEL 5
REMARK VINA RESULT:    -5.456      3.112      6.695
REMARK INTER + INTRA:          -7.885
REMARK INTER:                  -7.332
REMARK INTRA:                  -0.552
REMARK UNBOUND:                -0.674
REMARK  Name = 
REMARK  6 active torsions:
REMARK  status: ('A' for Active; 'I' for Inactive)
REMARK    1  A    between atoms: N_1  and  C_2
REMARK    2  A    between atoms: C_2  and  C_3
REMARK    3  A    between atoms: C_3  and  C_4
REMARK    4  A    between atoms: C_7  and  C_8
REMARK    5  A    between atoms: C_8  and  C_9
REMARK    6  A    between atoms: C_9  and  C_10
REMARK                            x       y       z     vdW  Elec       q    Type
REMARK                         _______ _______ _______ _____ _____    ______ ____
ROOT
ATOM      1  C   UNL     1      48.077   6.040  14.739  0.00  0.00    +0.000 A 
ATOM      2  C   UNL     1      47.640   6.575  13.533  0.00  0.00    +0.000 A 
ATOM      3  C   UNL     1      46.576   5.982  12.860  0.00  0.00    +0.000 A 
ATOM      4  C   UNL     1      45.978   4.838  13.387  0.00  0.00    +0.000 A 
ATOM      5  N   UNL     1      46.378   4.314  14.571  0.00  0.00    +0.000 NA
ATOM      6  C   UNL     1      47.403   4.920  15.218  0.00  0.00    +0.000 A 
ENDROOT
BRANCH   1   7
ATOM      7  C   UNL     1      49.198   6.675  15.512  0.00  0.00    +0.000 C 
BRANCH   7   8
ATOM      8  C   UNL     1      49.390   6.003  16.878  0.00  0.00    +0.000 C 
BRANCH   8   9
ATOM      9  N   UNL     1      50.606   5.195  16.899  0.00  0.00    +0.000 NA
ATOM     10  H   UNL     1      50.617   4.590  16.078  0.00  0.00    +0.000 HD
ATOM     11  H   UNL     1      50.593   4.574  17.707  0.00  0.00    +0.000 HD
ENDBRANCH   8   9
ENDBRANCH   7   8
ENDBRANCH   1   7
BRANCH   4  12
ATOM     12  C   UNL     1      44.825   4.137  12.694  0.00  0.00    +0.000 C 
BRANCH  12  13
ATOM     13  C   UNL     1      44.400   4.803  11.379  0.00  0.00    +0.000 C 
BRANCH  13  14
ATOM     14  C   UNL     1      44.857   4.100  10.124  0.00  0.00    +0.000 A 
ATOM     15  C   UNL     1      45.510   4.827   9.115  0.00  0.00    +0.000 A 
ATOM     16  C   UNL     1      46.029   4.180   7.993  0.00  0.00    +0.000 A 
ATOM     17  C   UNL     1      45.897   2.800   7.865  0.00  0.00    +0.000 A 
ATOM     18  C   UNL     1      45.236   2.069   8.852  0.00  0.00    +0.000 A 
ATOM     19  C   UNL     1      44.717   2.716   9.977  0.00  0.00    +0.000 A 
ENDBRANCH  13  14
ENDBRANCH  12  13
ENDBRANCH   4  12
TORSDOF 6
ENDMDL
MODEL 6
REMARK VINA RESULT:    -5.386      2.948      6.413
REMARK INTER + INTRA:          -7.792
REMARK INTER:                  -7.205
REMARK INTRA:                  -0.587
REMARK UNBOUND:                -0.674
REMARK  Name = 
REMARK  6 active torsions:
REMARK  status: ('A' for Active; 'I' for Inactive)
REMARK    1  A    between atoms: N_1  and  C_2
REMARK    2  A    between atoms: C_2  and  C_3
REMARK    3  A    between atoms: C_3  and  C_4
REMARK    4  A    between atoms: C_7  and  C_8
REMARK    5  A    between atoms: C_8  and  C_9
REMARK    6  A    between atoms: C_9  and  C_10
REMARK                            x       y       z     vdW  Elec       q    Type
REMARK                         _______ _______ _______ _____ _____    ______ ____
ROOT
ATOM      1  C   UNL     1      46.817   8.206  12.159  0.00  0.00    +0.000 A 
ATOM      2  C   UNL     1      47.388   6.941  12.235  0.00  0.00    +0.000 A 
ATOM      3  C   UNL     1      46.589   5.813  12.076  0.00  0.00    +0.000 A 
ATOM      4  C   UNL     1      45.218   5.962  11.869  0.00  0.00    +0.000 A 
ATOM      5  N   UNL     1      44.648   7.188  11.771  0.00  0.00    +0.000 NA
ATOM      6  C   UNL     1      45.450   8.272  11.912  0.00  0.00    +0.000 A 
ENDROOT
BRANCH   1   7
ATOM      7  C   UNL     1      47.655   9.447  12.290  0.00  0.00    +0.000 C 
BRANCH   7   8
ATOM      8  C   UNL     1      48.959   9.167  13.048  0.00  0.00    +0.000 C 
BRANCH   8   9
ATOM      9  N   UNL     1      48.806   9.440  14.474  0.00  0.00    +0.000 NA
ATOM     10  H   UNL     1      49.106  10.396  14.664  0.00  0.00    +0.000 HD
ATOM     11  H   UNL     1      49.429   8.838  15.010  0.00  0.00    +0.000 HD
ENDBRANCH   8   9
ENDBRANCH   7   8
ENDBRANCH   1   7
BRANCH   4  12
ATOM     12  C   UNL     1      44.292   4.773  11.702  0.00  0.00    +0.000 C 
BRANCH  12  13
ATOM     13  C   UNL     1      43.747   4.611  10.277  0.00  0.00    +0.000 C 
BRANCH  13  14
ATOM     14  C   UNL     1      44.599   3.776   9.351  0.00  0.00    +0.000 A 
ATOM     15  C   UNL     1      45.412   4.404   8.394  0.00  0.00    +0.000 A 
ATOM     16  C   UNL     1      46.281   3.658   7.598  0.00  0.00    +0.000 A 
ATOM     17  C   UNL     1      46.343   2.275   7.747  0.00  0.00    +0.000 A 
ATOM     18  C   UNL     1      45.529   1.638   8.682  0.00  0.00    +0.000 A 
ATOM     19  C   UNL     1      44.660   2.384   9.482  0.00  0.00    +0.000 A 
ENDBRANCH  13  14
ENDBRANCH  12  13
ENDBRANCH   4  12
TORSDOF 6
ENDMDL
MODEL 7
REMARK VINA RESULT:    -5.059      1.957      3.234
REMARK INTER + INTRA:          -7.360
REMARK INTER:                  -6.877
REMARK INTRA:                  -0.483
REMARK UNBOUND:                -0.674
REMARK  Name = 
REMARK  6 active torsions:
REMARK  status: ('A' for Active; 'I' for Inactive)
REMARK    1  A    between atoms: N_1  and  C_2
REMARK    2  A    between atoms: C_2  and  C_3
REMARK    3  A    between atoms: C_3  and  C_4
REMARK    4  A    between atoms: C_7  and  C_8
REMARK    5  A    between atoms: C_8  and  C_9
REMARK    6  A    between atoms: C_9  and  C_10
REMARK                            x       y       z     vdW  Elec       q    Type
REMARK                         _______ _______ _______ _____ _____    ______ ____
ROOT
ATOM      1  C   UNL     1      44.859   3.074   9.998  0.00  0.00    +0.000 A 
ATOM      2  C   UNL     1      44.717   2.817  11.357  0.00  0.00    +0.000 A 
ATOM      3  C   UNL     1      44.701   3.874  12.262  0.00  0.00    +0.000 A 
ATOM      4  C   UNL     1      44.858   5.180  11.800  0.00  0.00    +0.000 A 
ATOM      5  N   UNL     1      44.978   5.451  10.478  0.00  0.00    +0.000 NA
ATOM      6  C   UNL     1      44.972   4.407   9.614  0.00  0.00    +0.000 A 
ENDROOT
BRANCH   1   7
ATOM      7  C   UNL     1      44.844   1.961   8.989  0.00  0.00    +0.000 C 
BRANCH   7   8
ATOM      8  C   UNL     1      46.168   1.883   8.220  0.00  0.00    +0.000 C 
BRANCH   8   9
ATOM      9  N   UNL     1      46.543   0.495   7.960  0.00  0.00    +0.000 NA
ATOM     10  H   UNL     1      47.413   0.480   7.428  0.00  0.00    +0.000 HD
ATOM     11  H   UNL     1      45.843   0.053   7.367  0.00  0.00    +0.000 HD
ENDBRANCH   8   9
ENDBRANCH   7   8
ENDBRANCH   1   7
BRANCH   4  12
ATOM     12  C   UNL     1      44.865   6.373  12.737  0.00  0.00    +0.000 C 
BRANCH  12  13
ATOM     13  C   UNL     1      45.495   7.631  12.127  0.00  0.00    +0.000 C 
BRANCH  13  14
ATOM     14  C   UNL     1      46.938   7.874  12.497  0.00  0.00    +0.000 A 
ATOM     15  C   UNL     1      47.249   8.624  13.642  0.00  0.00    +0.000 A 
ATOM     16  C   UNL     1      48.572   8.776  14.058  0.00  0.00    +0.000 A 
ATOM     17  C   UNL     1      49.600   8.181  13.331  0.00  0.00    +0.000 A 
ATOM     18  C   UNL     1      49.306   7.447  12.183  0.00  0.00    +0.000 A 
ATOM     19  C   UNL     1      47.981   7.293  11.766  0.00  0.00    +0.000 A 
ENDBRANCH  13  14
ENDBRANCH  12  13
ENDBRANCH   4  12
TORSDOF 6
ENDMDL
MODEL 8
REMARK VINA RESULT:    -4.765      3.641      6.007
REMARK INTER + INTRA:          -6.971
REMARK INTER:                  -6.518
REMARK INTRA:                  -0.453
REMARK UNBOUND:                -0.674
REMARK  Name = 
REMARK  6 active torsions:
REMARK  status: ('A' for Active; 'I' for Inactive)
REMARK    1  A    between atoms: N_1  and  C_2
REMARK    2  A    between atoms: C_2  and  C_3
REMARK    3  A    between atoms: C_3  and  C_4
REMARK    4  A    between atoms: C_7  and  C_8
REMARK    5  A    between atoms: C_8  and  C_9
REMARK    6  A    between atoms: C_9  and  C_10
REMARK                            x       y       z     vdW  Elec       q    Type
REMARK                         _______ _______ _______ _____ _____    ______ ____
ROOT
ATOM      1  C   UNL     1      44.759   4.996  13.033  0.00  0.00    +0.000 A 
ATOM      2  C   UNL     1      44.874   6.350  12.741  0.00  0.00    +0.000 A 
ATOM      3  C   UNL     1      46.114   6.975  12.839  0.00  0.00    +0.000 A 
ATOM      4  C   UNL     1      47.224   6.243  13.258  0.00  0.00    +0.000 A 
ATOM      5  N   UNL     1      47.135   4.918  13.528  0.00  0.00    +0.000 NA
ATOM      6  C   UNL     1      45.921   4.327  13.407  0.00  0.00    +0.000 A 
ENDROOT
BRANCH   1   7
ATOM      7  C   UNL     1      43.445   4.279  12.904  0.00  0.00    +0.000 C 
BRANCH   7   8
ATOM      8  C   UNL     1      43.297   3.622  11.526  0.00  0.00    +0.000 C 
BRANCH   8   9
ATOM      9  N   UNL     1      43.041   2.190  11.653  0.00  0.00    +0.000 NA
ATOM     10  H   UNL     1      43.777   1.676  11.168  0.00  0.00    +0.000 HD
ATOM     11  H   UNL     1      42.172   1.951  11.177  0.00  0.00    +0.000 HD
ENDBRANCH   8   9
ENDBRANCH   7   8
ENDBRANCH   1   7
BRANCH   4  12
ATOM     12  C   UNL     1      48.598   6.869  13.399  0.00  0.00    +0.000 C 
BRANCH  12  13
ATOM     13  C   UNL     1      48.825   7.560  14.750  0.00  0.00    +0.000 C 
BRANCH  13  14
ATOM     14  C   UNL     1      49.566   6.739  15.777  0.00  0.00    +0.000 A 
ATOM     15  C   UNL     1      48.882   5.761  16.516  0.00  0.00    +0.000 A 
ATOM     16  C   UNL     1      49.566   4.924  17.397  0.00  0.00    +0.000 A 
ATOM     17  C   UNL     1      50.944   5.059  17.553  0.00  0.00    +0.000 A 
ATOM     18  C   UNL     1      51.633   6.037  16.837  0.00  0.00    +0.000 A 
ATOM     19  C   UNL     1      50.948   6.875  15.953  0.00  0.00    +0.000 A 
ENDBRANCH  13  14
ENDBRANCH  12  13
ENDBRANCH   4  12
TORSDOF 6
ENDMDL
MODEL 9
REMARK VINA RESULT:    -4.697      3.394      6.681
REMARK INTER + INTRA:          -6.881
REMARK INTER:                  -6.357
REMARK INTRA:                  -0.524
REMARK UNBOUND:                -0.674
REMARK  Name = 
REMARK  6 active torsions:
REMARK  status: ('A' for Active; 'I' for Inactive)
REMARK    1  A    between atoms: N_1  and  C_2
REMARK    2  A    between atoms: C_2  and  C_3
REMARK    3  A    between atoms: C_3  and  C_4
REMARK    4  A    between atoms: C_7  and  C_8
REMARK    5  A    between atoms: C_8  and  C_9
REMARK    6  A    between atoms: C_9  and  C_10
REMARK                            x       y       z     vdW  Elec       q    Type
REMARK                         _______ _______ _______ _____ _____    ______ ____
ROOT
ATOM      1  C   UNL     1      47.939   7.825  13.877  0.00  0.00    +0.000 A 
ATOM      2  C   UNL     1      48.096   6.658  13.138  0.00  0.00    +0.000 A 
ATOM      3  C   UNL     1      47.113   6.279  12.229  0.00  0.00    +0.000 A 
ATOM      4  C   UNL     1      45.965   7.059  12.090  0.00  0.00    +0.000 A 
ATOM      5  N   UNL     1      45.804   8.209  12.787  0.00  0.00    +0.000 NA
ATOM      6  C   UNL     1      46.784   8.568  13.653  0.00  0.00    +0.000 A 
ENDROOT
BRANCH   1   7
ATOM      7  C   UNL     1      48.996   8.285  14.841  0.00  0.00    +0.000 C 
BRANCH   7   8
ATOM      8  C   UNL     1      50.375   7.726  14.469  0.00  0.00    +0.000 C 
BRANCH   8   9
ATOM      9  N   UNL     1      51.427   8.350  15.267  0.00  0.00    +0.000 NA
ATOM     10  H   UNL     1      50.999   8.976  15.950  0.00  0.00    +0.000 HD
ATOM     11  H   UNL     1      52.010   8.937  14.673  0.00  0.00    +0.000 HD
ENDBRANCH   8   9
ENDBRANCH   7   8
ENDBRANCH   1   7
BRANCH   4  12
ATOM     12  C   UNL     1      44.851   6.692  11.127  0.00  0.00    +0.000 C 
BRANCH  12  13
ATOM     13  C   UNL     1      44.393   5.233  11.242  0.00  0.00    +0.000 C 
BRANCH  13  14
ATOM     14  C   UNL     1      44.878   4.316  10.146  0.00  0.00    +0.000 A 
ATOM     15  C   UNL     1      44.527   2.957  10.166  0.00  0.00    +0.000 A 
ATOM     16  C   UNL     1      44.879   2.114   9.112  0.00  0.00    +0.000 A 
ATOM     17  C   UNL     1      45.590   2.620   8.027  0.00  0.00    +0.000 A 
ATOM     18  C   UNL     1      45.959   3.965   8.002  0.00  0.00    +0.000 A 
ATOM     19  C   UNL     1      45.605   4.810   9.057  0.00  0.00    +0.000 A 
ENDBRANCH  13  14
ENDBRANCH  12  13
ENDBRANCH   4  12
TORSDOF 6
ENDMDL
