MODEL 1
REMARK VINA RESULT:    -7.709      0.000      0.000
REMARK INTER + INTRA:         -11.400
REMARK INTER:                 -10.413
REMARK INTRA:                  -0.987
REMARK UNBOUND:                -0.987
REMARK  Name = 
REMARK  6 active torsions:
REMARK  status: ('A' for Active; 'I' for Inactive)
REMARK    1  A    between atoms: C_2  and  C_20
REMARK    2  A    between atoms: N_3  and  C_4
REMARK    3  A    between atoms: C_4  and  C_5
REMARK    4  A    between atoms: C_8  and  C_9
REMARK    5  A    between atoms: C_9  and  N_10
REMARK    6  A    between atoms: C_11  and  C_13
REMARK                            x       y       z     vdW  Elec       q    Type
REMARK                         _______ _______ _______ _____ _____    ______ ____
ROOT
ATOM      1  C   UNL     1      46.639   4.781  14.455  0.00  0.00    +0.000 A 
ATOM      2  C   UNL     1      45.721   4.125  13.623  0.00  0.00    +0.000 A 
ATOM      3  C   UNL     1      45.479   4.581  12.321  0.00  0.00    +0.000 A 
ATOM      4  C   UNL     1      46.168   5.691  11.812  0.00  0.00    +0.000 A 
ATOM      5  C   UNL     1      47.092   6.341  12.640  0.00  0.00    +0.000 A 
ATOM      6  C   UNL     1      47.335   5.883  13.941  0.00  0.00    +0.000 A 
ENDROOT
BRANCH   1   7
ATOM      7  C   UNL     1      46.860   4.323  15.875  0.00  0.00    +0.000 C 
BRANCH   7  10
ATOM      8  O   UNL     1      47.827   4.782  18.420  0.00  0.00    +0.000 OA
ATOM      9  C   UNL     1      48.630   4.450  17.550  0.00  0.00    +0.000 C 
ATOM     10  N   UNL     1      48.255   4.282  16.237  0.00  0.00    +0.000 N 
ATOM     11  H   UNL     1      48.887   3.813  15.597  0.00  0.00    +0.000 HD
BRANCH   9  12
ATOM     12  C   UNL     1      50.048   4.240  17.868  0.00  0.00    +0.000 A 
ATOM     13  C   UNL     1      50.757   5.214  18.561  0.00  0.00    +0.000 A 
ATOM     14  S   UNL     1      52.381   4.788  18.865  0.00  0.00    +0.000 S 
ATOM     15  C   UNL     1      52.181   3.273  18.121  0.00  0.00    +0.000 A 
ATOM     16  N   UNL     1      53.197   2.370  18.078  0.00  0.00    +0.000 NA
ATOM     17  C   UNL     1      52.890   1.246  17.519  0.00  0.00    +0.000 A 
ATOM     18  N   UNL     1      51.667   0.949  16.982  0.00  0.00    +0.000 N 
ATOM     19  C   UNL     1      50.626   1.848  16.958  0.00  0.00    +0.000 A 
ATOM     20  O   UNL     1      49.566   1.579  16.397  0.00  0.00    +0.000 OA
ATOM     21  C   UNL     1      50.902   3.109  17.612  0.00  0.00    +0.000 A 
ATOM     22  H   UNL     1      51.496   0.059  16.537  0.00  0.00    +0.000 HD
ENDBRANCH   9  12
ENDBRANCH   7  10
ENDBRANCH   1   7
BRANCH   4  23
ATOM     23  C   UNL     1      45.931   6.169  10.401  0.00  0.00    +0.000 C 
BRANCH  23  24
ATOM     24  N   UNL     1      45.297   5.168   9.574  0.00  0.00    +0.000 N 
ATOM     25  C   UNL     1      45.899   4.741   8.407  0.00  0.00    +0.000 C 
ATOM     26  O   UNL     1      46.988   5.173   8.030  0.00  0.00    +0.000 OA
ATOM     27  H   UNL     1      44.504   4.661   9.947  0.00  0.00    +0.000 HD
BRANCH  25  28
ATOM     28  C   UNL     1      45.105   3.665   7.629  0.00  0.00    +0.000 C 
ATOM     29  C   UNL     1      45.995   2.791   6.762  0.00  0.00    +0.000 C 
ATOM     30  C   UNL     1      46.542   1.770   7.744  0.00  0.00    +0.000 C 
ATOM     31  C   UNL     1      45.459   1.632   8.803  0.00  0.00    +0.000 C 
ATOM     32  N   UNL     1      44.475   2.689   8.547  0.00  0.00    +0.000 NA
ATOM     33  H   UNL     1      44.256   3.165   9.427  0.00  0.00    +0.000 HD
ENDBRANCH  25  28
ENDBRANCH  23  24
ENDBRANCH   4  23
TORSDOF 6
ENDMDL
MODEL 2
REMARK VINA RESULT:    -7.107      2.483      2.997
REMARK INTER + INTRA:         -10.587
REMARK INTER:                  -9.688
REMARK INTRA:                  -0.899
REMARK UNBOUND:                -0.987
REMARK  Name = 
REMARK  6 active torsions:
REMARK  status: ('A' for Active; 'I' for Inactive)
REMARK    1  A    between atoms: C_2  and  C_20
REMARK    2  A    between atoms: N_3  and  C_4
REMARK    3  A    between atoms: C_4  and  C_5
REMARK    4  A    between atoms: C_8  and  C_9
REMARK    5  A    between atoms: C_9  and  N_10
REMARK    6  A    between atoms: C_11  and  C_13
REMARK                            x       y       z     vdW  Elec       q    Type
REMARK                         _______ _______ _______ _____ _____    ______ ____
ROOT
ATOM      1  C   UNL     1      46.744   4.148  13.895  0.00  0.00    +0.000 A 
ATOM      2  C   UNL     1      45.968   3.286  13.107  0.00  0.00    +0.000 A 
ATOM      3  C   UNL     1      45.291   3.763  11.976  0.00  0.00    +0.000 A 
ATOM      4  C   UNL     1      45.395   5.108  11.593  0.00  0.00    +0.000 A 
ATOM      5  C   UNL     1      46.179   5.966  12.376  0.00  0.00    +0.000 A 
ATOM      6  C   UNL     1      46.857   5.489  13.505  0.00  0.00    +0.000 A 
ENDROOT
BRANCH   1   7
ATOM      7  C   UNL     1      47.429   3.648  15.142  0.00  0.00    +0.000 C 
BRANCH   7  10
ATOM      8  O   UNL     1      46.934   3.474  17.852  0.00  0.00    +0.000 OA
ATOM      9  C   UNL     1      47.488   4.487  17.433  0.00  0.00    +0.000 C 
ATOM     10  N   UNL     1      47.701   4.699  16.090  0.00  0.00    +0.000 N 
ATOM     11  H   UNL     1      48.336   5.434  15.799  0.00  0.00    +0.000 HD
BRANCH   9  12
ATOM     12  C   UNL     1      47.933   5.543  18.350  0.00  0.00    +0.000 A 
ATOM     13  C   UNL     1      47.051   6.065  19.290  0.00  0.00    +0.000 A 
ATOM     14  S   UNL     1      47.749   7.262  20.287  0.00  0.00    +0.000 S 
ATOM     15  C   UNL     1      49.260   7.092  19.528  0.00  0.00    +0.000 A 
ATOM     16  N   UNL     1      50.340   7.809  19.943  0.00  0.00    +0.000 NA
ATOM     17  C   UNL     1      51.432   7.547  19.303  0.00  0.00    +0.000 A 
ATOM     18  N   UNL     1      51.540   6.650  18.275  0.00  0.00    +0.000 N 
ATOM     19  C   UNL     1      50.465   5.941  17.790  0.00  0.00    +0.000 A 
ATOM     20  O   UNL     1      50.579   5.203  16.814  0.00  0.00    +0.000 OA
ATOM     21  C   UNL     1      49.225   6.163  18.501  0.00  0.00    +0.000 A 
ATOM     22  H   UNL     1      52.418   6.508  17.799  0.00  0.00    +0.000 HD
ENDBRANCH   9  12
ENDBRANCH   7  10
ENDBRANCH   1   7
BRANCH   4  23
ATOM     23  C   UNL     1      44.692   5.619  10.362  0.00  0.00    +0.000 C 
BRANCH  23  24
ATOM     24  N   UNL     1      44.546   4.604   9.343  0.00  0.00    +0.000 N 
ATOM     25  C   UNL     1      45.507   4.455   8.363  0.00  0.00    +0.000 C 
ATOM     26  O   UNL     1      46.518   5.154   8.317  0.00  0.00    +0.000 OA
ATOM     27  H   UNL     1      43.831   3.896   9.461  0.00  0.00    +0.000 HD
BRANCH  25  28
ATOM     28  C   UNL     1      45.217   3.326   7.344  0.00  0.00    +0.000 C 
ATOM     29  C   UNL     1      46.348   3.128   6.350  0.00  0.00    +0.000 C 
ATOM     30  C   UNL     1      47.338   2.270   7.118  0.00  0.00    +0.000 C 
ATOM     31  C   UNL     1      46.484   1.458   8.079  0.00  0.00    +0.000 C 
ATOM     32  N   UNL     1      45.125   2.007   8.010  0.00  0.00    +0.000 NA
ATOM     33  H   UNL     1      44.771   2.147   8.961  0.00  0.00    +0.000 HD
ENDBRANCH  25  28
ENDBRANCH  23  24
ENDBRANCH   4  23
TORSDOF 6
ENDMDL
MODEL 3
REMARK VINA RESULT:    -7.081      2.929      3.776
REMARK INTER + INTRA:         -10.552
REMARK INTER:                  -9.147
REMARK INTRA:                  -1.406
REMARK UNBOUND:                -0.987
REMARK  Name = 
REMARK  6 active torsions:
REMARK  status: ('A' for Active; 'I' for Inactive)
REMARK    1  A    between atoms: C_2  and  C_20
REMARK    2  A    between atoms: N_3  and  C_4
REMARK    3  A    between atoms: C_4  and  C_5
REMARK    4  A    between atoms: C_8  and  C_9
REMARK    5  A    between atoms: C_9  and  N_10
REMARK    6  A    between atoms: C_11  and  C_13
REMARK                            x       y       z     vdW  Elec       q    Type
REMARK                         _______ _______ _______ _____ _____    ______ ____
ROOT
ATOM      1  C   UNL     1      48.731   8.074  13.152  0.00  0.00    +0.000 A 
ATOM      2  C   UNL     1      48.290   7.016  12.344  0.00  0.00    +0.000 A 
ATOM      3  C   UNL     1      47.001   7.023  11.794  0.00  0.00    +0.000 A 
ATOM      4  C   UNL     1      46.132   8.100  12.020  0.00  0.00    +0.000 A 
ATOM      5  C   UNL     1      46.577   9.160  12.819  0.00  0.00    +0.000 A 
ATOM      6  C   UNL     1      47.866   9.154  13.368  0.00  0.00    +0.000 A 
ENDROOT
BRANCH   1   7
ATOM      7  C   UNL     1      50.098   8.042  13.789  0.00  0.00    +0.000 C 
BRANCH   7  10
ATOM      8  O   UNL     1      49.564   8.458  16.465  0.00  0.00    +0.000 OA
ATOM      9  C   UNL     1      49.853   7.319  16.106  0.00  0.00    +0.000 C 
ATOM     10  N   UNL     1      50.215   7.032  14.811  0.00  0.00    +0.000 N 
ATOM     11  H   UNL     1      50.245   6.065  14.506  0.00  0.00    +0.000 HD
BRANCH   9  12
ATOM     12  C   UNL     1      49.851   6.201  17.058  0.00  0.00    +0.000 A 
ATOM     13  C   UNL     1      50.733   6.201  18.133  0.00  0.00    +0.000 A 
ATOM     14  S   UNL     1      50.569   4.839  19.148  0.00  0.00    +0.000 S 
ATOM     15  C   UNL     1      49.289   4.226  18.212  0.00  0.00    +0.000 A 
ATOM     16  N   UNL     1      48.645   3.081  18.565  0.00  0.00    +0.000 NA
ATOM     17  C   UNL     1      47.666   2.757  17.787  0.00  0.00    +0.000 A 
ATOM     18  N   UNL     1      47.283   3.462  16.678  0.00  0.00    +0.000 N 
ATOM     19  C   UNL     1      47.936   4.598  16.255  0.00  0.00    +0.000 A 
ATOM     20  O   UNL     1      47.618   5.163  15.211  0.00  0.00    +0.000 OA
ATOM     21  C   UNL     1      49.014   5.030  17.117  0.00  0.00    +0.000 A 
ATOM     22  H   UNL     1      46.523   3.144  16.095  0.00  0.00    +0.000 HD
ENDBRANCH   9  12
ENDBRANCH   7  10
ENDBRANCH   1   7
BRANCH   4  23
ATOM     23  C   UNL     1      44.754   8.125  11.407  0.00  0.00    +0.000 C 
BRANCH  23  24
ATOM     24  N   UNL     1      44.405   6.874  10.775  0.00  0.00    +0.000 N 
ATOM     25  C   UNL     1      43.721   5.901  11.478  0.00  0.00    +0.000 C 
ATOM     26  O   UNL     1      43.374   6.055  12.648  0.00  0.00    +0.000 OA
ATOM     27  H   UNL     1      44.506   6.791   9.770  0.00  0.00    +0.000 HD
BRANCH  25  28
ATOM     28  C   UNL     1      43.414   4.617  10.670  0.00  0.00    +0.000 C 
ATOM     29  C   UNL     1      44.670   3.894  10.218  0.00  0.00    +0.000 C 
ATOM     30  C   UNL     1      45.077   3.102  11.447  0.00  0.00    +0.000 C 
ATOM     31  C   UNL     1      43.772   2.814  12.173  0.00  0.00    +0.000 C 
ATOM     32  N   UNL     1      42.731   3.604  11.506  0.00  0.00    +0.000 NA
ATOM     33  H   UNL     1      42.173   4.089  12.215  0.00  0.00    +0.000 HD
ENDBRANCH  25  28
ENDBRANCH  23  24
ENDBRANCH   4  23
TORSDOF 6
ENDMDL
MODEL 4
REMARK VINA RESULT:    -7.000      3.662      9.751
REMARK INTER + INTRA:         -10.443
REMARK INTER:                  -9.543
REMARK INTRA:                  -0.899
REMARK UNBOUND:                -0.987
REMARK  Name = 
REMARK  6 active torsions:
REMARK  status: ('A' for Active; 'I' for Inactive)
REMARK    1  A    between atoms: C_2  and  C_20
REMARK    2  A    between atoms: N_3  and  C_4
REMARK    3  A    between atoms: C_4  and  C_5
REMARK    4  A    between atoms: C_8  and  C_9
REMARK    5  A    between atoms: C_9  and  N_10
REMARK    6  A    between atoms: C_11  and  C_13
REMARK                            x       y       z     vdW  Elec       q    Type
REMARK                         _______ _______ _______ _____ _____    ______ ____
ROOT
ATOM      1  C   UNL     1      48.678   3.677  17.042  0.00  0.00    +0.000 A 
ATOM      2  C   UNL     1      49.560   2.615  17.290  0.00  0.00    +0.000 A 
ATOM      3  C   UNL     1      50.869   2.858  17.727  0.00  0.00    +0.000 A 
ATOM      4  C   UNL     1      51.318   4.167  17.949  0.00  0.00    +0.000 A 
ATOM      5  C   UNL     1      50.433   5.226  17.710  0.00  0.00    +0.000 A 
ATOM      6  C   UNL     1      49.124   4.984  17.276  0.00  0.00    +0.000 A 
ENDROOT
BRANCH   1   7
ATOM      7  C   UNL     1      47.286   3.419  16.521  0.00  0.00    +0.000 C 
BRANCH   7  10
ATOM      8  O   UNL     1      47.252   3.246  13.766  0.00  0.00    +0.000 OA
ATOM      9  C   UNL     1      46.769   4.250  14.285  0.00  0.00    +0.000 C 
ATOM     10  N   UNL     1      46.816   4.462  15.644  0.00  0.00    +0.000 N 
ATOM     11  H   UNL     1      46.234   5.185  16.053  0.00  0.00    +0.000 HD
BRANCH   9  12
ATOM     12  C   UNL     1      46.135   5.294  13.471  0.00  0.00    +0.000 A 
ATOM     13  C   UNL     1      46.839   6.450  13.152  0.00  0.00    +0.000 A 
ATOM     14  S   UNL     1      45.956   7.538  12.178  0.00  0.00    +0.000 S 
ATOM     15  C   UNL     1      44.623   6.485  12.114  0.00  0.00    +0.000 A 
ATOM     16  N   UNL     1      43.516   6.795  11.386  0.00  0.00    +0.000 NA
ATOM     17  C   UNL     1      42.599   5.884  11.395  0.00  0.00    +0.000 A 
ATOM     18  N   UNL     1      42.679   4.701  12.079  0.00  0.00    +0.000 N 
ATOM     19  C   UNL     1      43.756   4.368  12.868  0.00  0.00    +0.000 A 
ATOM     20  O   UNL     1      43.762   3.335  13.533  0.00  0.00    +0.000 OA
ATOM     21  C   UNL     1      44.833   5.335  12.858  0.00  0.00    +0.000 A 
ATOM     22  H   UNL     1      41.917   4.039  12.065  0.00  0.00    +0.000 HD
ENDBRANCH   9  12
ENDBRANCH   7  10
ENDBRANCH   1   7
BRANCH   4  23
ATOM     23  C   UNL     1      52.717   4.432  18.446  0.00  0.00    +0.000 C 
BRANCH  23  24
ATOM     24  N   UNL     1      53.665   3.440  17.993  0.00  0.00    +0.000 N 
ATOM     25  C   UNL     1      54.224   2.547  18.886  0.00  0.00    +0.000 C 
ATOM     26  O   UNL     1      53.939   2.545  20.083  0.00  0.00    +0.000 OA
ATOM     27  H   UNL     1      53.776   3.292  16.996  0.00  0.00    +0.000 HD
BRANCH  25  28
ATOM     28  C   UNL     1      55.218   1.542  18.256  0.00  0.00    +0.000 C 
ATOM     29  C   UNL     1      55.184   0.182  18.930  0.00  0.00    +0.000 C 
ATOM     30  C   UNL     1      53.988  -0.496  18.284  0.00  0.00    +0.000 C 
ATOM     31  C   UNL     1      53.904   0.111  16.892  0.00  0.00    +0.000 C 
ATOM     32  N   UNL     1      54.854   1.228  16.856  0.00  0.00    +0.000 NA
ATOM     33  H   UNL     1      54.393   2.047  16.447  0.00  0.00    +0.000 HD
ENDBRANCH  25  28
ENDBRANCH  23  24
ENDBRANCH   4  23
TORSDOF 6
ENDMDL
MODEL 5
REMARK VINA RESULT:    -6.898      3.636      8.987
REMARK INTER + INTRA:         -10.304
REMARK INTER:                  -9.245
REMARK INTRA:                  -1.059
REMARK UNBOUND:                -0.987
REMARK  Name = 
REMARK  6 active torsions:
REMARK  status: ('A' for Active; 'I' for Inactive)
REMARK    1  A    between atoms: C_2  and  C_20
REMARK    2  A    between atoms: N_3  and  C_4
REMARK    3  A    between atoms: C_4  and  C_5
REMARK    4  A    between atoms: C_8  and  C_9
REMARK    5  A    between atoms: C_9  and  N_10
REMARK    6  A    between atoms: C_11  and  C_13
REMARK                            x       y       z     vdW  Elec       q    Type
REMARK                         _______ _______ _______ _____ _____    ______ ____
ROOT
ATOM      1  C   UNL     1      49.077   7.778  13.161  0.00  0.00    +0.000 A 
ATOM      2  C   UNL     1      50.399   8.215  13.330  0.00  0.00    +0.000 A 
ATOM      3  C   UNL     1      51.065   8.030  14.548  0.00  0.00    +0.000 A 
ATOM      4  C   UNL     1      50.433   7.383  15.619  0.00  0.00    +0.000 A 
ATOM      5  C   UNL     1      49.116   6.938  15.447  0.00  0.00    +0.000 A 
ATOM      6  C   UNL     1      48.451   7.121  14.228  0.00  0.00    +0.000 A 
ENDROOT
BRANCH   1   7
ATOM      7  C   UNL     1      48.341   8.024  11.868  0.00  0.00    +0.000 C 
BRANCH   7  10
ATOM      8  O   UNL     1      45.595   7.747  11.919  0.00  0.00    +0.000 OA
ATOM      9  C   UNL     1      46.254   6.850  11.398  0.00  0.00    +0.000 C 
ATOM     10  N   UNL     1      47.629   6.861  11.400  0.00  0.00    +0.000 N 
ATOM     11  H   UNL     1      48.131   6.224  10.790  0.00  0.00    +0.000 HD
BRANCH   9  12
ATOM     12  C   UNL     1      45.600   5.699  10.764  0.00  0.00    +0.000 A 
ATOM     13  C   UNL     1      45.769   5.465   9.404  0.00  0.00    +0.000 A 
ATOM     14  S   UNL     1      44.960   4.070   8.847  0.00  0.00    +0.000 S 
ATOM     15  C   UNL     1      44.394   3.707  10.408  0.00  0.00    +0.000 A 
ATOM     16  N   UNL     1      43.659   2.587  10.647  0.00  0.00    +0.000 NA
ATOM     17  C   UNL     1      43.333   2.418  11.886  0.00  0.00    +0.000 A 
ATOM     18  N   UNL     1      43.657   3.273  12.904  0.00  0.00    +0.000 N 
ATOM     19  C   UNL     1      44.355   4.442  12.701  0.00  0.00    +0.000 A 
ATOM     20  O   UNL     1      44.561   5.228  13.623  0.00  0.00    +0.000 OA
ATOM     21  C   UNL     1      44.784   4.659  11.336  0.00  0.00    +0.000 A 
ATOM     22  H   UNL     1      43.352   3.096  13.850  0.00  0.00    +0.000 HD
ENDBRANCH   9  12
ENDBRANCH   7  10
ENDBRANCH   1   7
BRANCH   4  23
ATOM     23  C   UNL     1      51.156   7.156  16.923  0.00  0.00    +0.000 C 
BRANCH  23  24
ATOM     24  N   UNL     1      50.370   6.398  17.869  0.00  0.00    +0.000 N 
ATOM     25  C   UNL     1      50.457   5.020  17.906  0.00  0.00    +0.000 C 
ATOM     26  O   UNL     1      51.202   4.386  17.160  0.00  0.00    +0.000 OA
ATOM     27  H   UNL     1      49.896   6.893  18.616  0.00  0.00    +0.000 HD
BRANCH  25  28
ATOM     28  C   UNL     1      49.560   4.346  18.972  0.00  0.00    +0.000 C 
ATOM     29  C   UNL     1      48.232   5.058  19.157  0.00  0.00    +0.000 C 
ATOM     30  C   UNL     1      47.389   4.523  18.013  0.00  0.00    +0.000 C 
ATOM     31  C   UNL     1      47.928   3.124  17.755  0.00  0.00    +0.000 C 
ATOM     32  N   UNL     1      49.152   2.986  18.552  0.00  0.00    +0.000 NA
ATOM     33  H   UNL     1      49.892   2.591  17.964  0.00  0.00    +0.000 HD
ENDBRANCH  25  28
ENDBRANCH  23  24
ENDBRANCH   4  23
TORSDOF 6
ENDMDL
MODEL 6
REMARK VINA RESULT:    -6.817      2.022      2.389
REMARK INTER + INTRA:         -10.195
REMARK INTER:                  -9.485
REMARK INTRA:                  -0.710
REMARK UNBOUND:                -0.987
REMARK  Name = 
REMARK  6 active torsions:
REMARK  status: ('A' for Active; 'I' for Inactive)
REMARK    1  A    between atoms: C_2  and  C_20
REMARK    2  A    between atoms: N_3  and  C_4
REMARK    3  A    between atoms: C_4  and  C_5
REMARK    4  A    between atoms: C_8  and  C_9
REMARK    5  A    between atoms: C_9  and  N_10
REMARK    6  A    between atoms: C_11  and  C_13
REMARK                            x       y       z     vdW  Elec       q    Type
REMARK                         _______ _______ _______ _____ _____    ______ ____
ROOT
ATOM      1  C   UNL     1      47.890   5.135  15.662  0.00  0.00    +0.000 A 
ATOM      2  C   UNL     1      47.059   4.369  14.832  0.00  0.00    +0.000 A 
ATOM      3  C   UNL     1      46.689   4.832  13.562  0.00  0.00    +0.000 A 
ATOM      4  C   UNL     1      47.162   6.062  13.083  0.00  0.00    +0.000 A 
ATOM      5  C   UNL     1      48.000   6.822  13.908  0.00  0.00    +0.000 A 
ATOM      6  C   UNL     1      48.371   6.358  15.177  0.00  0.00    +0.000 A 
ENDROOT
BRANCH   1   7
ATOM      7  C   UNL     1      48.244   4.662  17.050  0.00  0.00    +0.000 C 
BRANCH   7  10
ATOM      8  O   UNL     1      49.651   4.771  19.422  0.00  0.00    +0.000 OA
ATOM      9  C   UNL     1      50.232   4.342  18.428  0.00  0.00    +0.000 C 
ATOM     10  N   UNL     1      49.640   4.328  17.187  0.00  0.00    +0.000 N 
ATOM     11  H   UNL     1      50.062   3.785  16.441  0.00  0.00    +0.000 HD
BRANCH   9  12
ATOM     12  C   UNL     1      51.610   3.841  18.512  0.00  0.00    +0.000 A 
ATOM     13  C   UNL     1      52.586   4.595  19.154  0.00  0.00    +0.000 A 
ATOM     14  S   UNL     1      54.119   3.845  19.179  0.00  0.00    +0.000 S 
ATOM     15  C   UNL     1      53.522   2.473  18.373  0.00  0.00    +0.000 A 
ATOM     16  N   UNL     1      54.323   1.404  18.116  0.00  0.00    +0.000 NA
ATOM     17  C   UNL     1      53.725   0.416  17.536  0.00  0.00    +0.000 A 
ATOM     18  N   UNL     1      52.406   0.405  17.172  0.00  0.00    +0.000 N 
ATOM     19  C   UNL     1      51.572   1.482  17.366  0.00  0.00    +0.000 A 
ATOM     20  O   UNL     1      50.413   1.470  16.956  0.00  0.00    +0.000 OA
ATOM     21  C   UNL     1      52.179   2.600  18.054  0.00  0.00    +0.000 A 
ATOM     22  H   UNL     1      52.003  -0.390  16.698  0.00  0.00    +0.000 HD
ENDBRANCH   9  12
ENDBRANCH   7  10
ENDBRANCH   1   7
BRANCH   4  23
ATOM     23  C   UNL     1      46.790   6.551  11.706  0.00  0.00    +0.000 C 
BRANCH  23  24
ATOM     24  N   UNL     1      45.835   5.689  11.049  0.00  0.00    +0.000 N 
ATOM     25  C   UNL     1      44.480   5.866  11.250  0.00  0.00    +0.000 C 
ATOM     26  O   UNL     1      44.030   6.754  11.972  0.00  0.00    +0.000 OA
ATOM     27  H   UNL     1      46.160   5.078  10.310  0.00  0.00    +0.000 HD
BRANCH  25  28
ATOM     28  C   UNL     1      43.579   4.870  10.479  0.00  0.00    +0.000 C 
ATOM     29  C   UNL     1      44.372   3.769   9.797  0.00  0.00    +0.000 C 
ATOM     30  C   UNL     1      44.622   2.776  10.919  0.00  0.00    +0.000 C 
ATOM     31  C   UNL     1      43.434   2.940  11.854  0.00  0.00    +0.000 C 
ATOM     32  N   UNL     1      42.692   4.122  11.398  0.00  0.00    +0.000 NA
ATOM     33  H   UNL     1      42.481   4.717  12.204  0.00  0.00    +0.000 HD
ENDBRANCH  25  28
ENDBRANCH  23  24
ENDBRANCH   4  23
TORSDOF 6
ENDMDL
MODEL 7
REMARK VINA RESULT:    -6.782      2.698      3.723
REMARK INTER + INTRA:         -10.148
REMARK INTER:                  -9.223
REMARK INTRA:                  -0.925
REMARK UNBOUND:                -0.987
REMARK  Name = 
REMARK  6 active torsions:
REMARK  status: ('A' for Active; 'I' for Inactive)
REMARK    1  A    between atoms: C_2  and  C_20
REMARK    2  A    between atoms: N_3  and  C_4
REMARK    3  A    between atoms: C_4  and  C_5
REMARK    4  A    between atoms: C_8  and  C_9
REMARK    5  A    between atoms: C_9  and  N_10
REMARK    6  A    between atoms: C_11  and  C_13
REMARK                            x       y       z     vdW  Elec       q    Type
REMARK                         _______ _______ _______ _____ _____    ______ ____
ROOT
ATOM      1  C   UNL     1      47.939   4.197  16.537  0.00  0.00    +0.000 A 
ATOM      2  C   UNL     1      47.155   3.837  15.431  0.00  0.00    +0.000 A 
ATOM      3  C   UNL     1      47.021   4.701  14.336  0.00  0.00    +0.000 A 
ATOM      4  C   UNL     1      47.688   5.934  14.310  0.00  0.00    +0.000 A 
ATOM      5  C   UNL     1      48.479   6.288  15.411  0.00  0.00    +0.000 A 
ATOM      6  C   UNL     1      48.614   5.424  16.505  0.00  0.00    +0.000 A 
ENDROOT
BRANCH   1   7
ATOM      7  C   UNL     1      48.041   3.292  17.740  0.00  0.00    +0.000 C 
BRANCH   7  10
ATOM      8  O   UNL     1      49.732   1.734  16.212  0.00  0.00    +0.000 OA
ATOM      9  C   UNL     1      50.190   2.257  17.226  0.00  0.00    +0.000 C 
ATOM     10  N   UNL     1      49.404   2.981  18.091  0.00  0.00    +0.000 N 
ATOM     11  H   UNL     1      49.846   3.564  18.794  0.00  0.00    +0.000 HD
BRANCH   9  12
ATOM     12  C   UNL     1      51.608   2.113  17.579  0.00  0.00    +0.000 A 
ATOM     13  C   UNL     1      52.225   0.871  17.488  0.00  0.00    +0.000 A 
ATOM     14  S   UNL     1      53.878   0.898  17.910  0.00  0.00    +0.000 S 
ATOM     15  C   UNL     1      53.837   2.575  18.186  0.00  0.00    +0.000 A 
ATOM     16  N   UNL     1      54.959   3.258  18.537  0.00  0.00    +0.000 NA
ATOM     17  C   UNL     1      54.789   4.532  18.672  0.00  0.00    +0.000 A 
ATOM     18  N   UNL     1      53.596   5.183  18.509  0.00  0.00    +0.000 N 
ATOM     19  C   UNL     1      52.426   4.526  18.204  0.00  0.00    +0.000 A 
ATOM     20  O   UNL     1      51.356   5.129  18.142  0.00  0.00    +0.000 OA
ATOM     21  C   UNL     1      52.568   3.102  17.996  0.00  0.00    +0.000 A 
ATOM     22  H   UNL     1      53.522   6.179  18.653  0.00  0.00    +0.000 HD
ENDBRANCH   9  12
ENDBRANCH   7  10
ENDBRANCH   1   7
BRANCH   4  23
ATOM     23  C   UNL     1      47.570   6.854  13.122  0.00  0.00    +0.000 C 
BRANCH  23  24
ATOM     24  N   UNL     1      46.707   6.322  12.091  0.00  0.00    +0.000 N 
ATOM     25  C   UNL     1      45.429   6.817  11.925  0.00  0.00    +0.000 C 
ATOM     26  O   UNL     1      44.976   7.724  12.623  0.00  0.00    +0.000 OA
ATOM     27  H   UNL     1      47.109   5.716  11.386  0.00  0.00    +0.000 HD
BRANCH  25  28
ATOM     28  C   UNL     1      44.624   6.153  10.782  0.00  0.00    +0.000 C 
ATOM     29  C   UNL     1      44.674   4.637  10.833  0.00  0.00    +0.000 C 
ATOM     30  C   UNL     1      43.617   4.289  11.867  0.00  0.00    +0.000 C 
ATOM     31  C   UNL     1      42.597   5.413  11.771  0.00  0.00    +0.000 C 
ATOM     32  N   UNL     1      43.177   6.443  10.901  0.00  0.00    +0.000 NA
ATOM     33  H   UNL     1      43.064   7.359  11.344  0.00  0.00    +0.000 HD
ENDBRANCH  25  28
ENDBRANCH  23  24
ENDBRANCH   4  23
TORSDOF 6
ENDMDL
MODEL 8
REMARK VINA RESULT:    -6.456      3.188      9.239
REMARK INTER + INTRA:          -9.707
REMARK INTER:                  -8.558
REMARK INTRA:                  -1.150
REMARK UNBOUND:                -0.987
REMARK  Name = 
REMARK  6 active torsions:
REMARK  status: ('A' for Active; 'I' for Inactive)
REMARK    1  A    between atoms: C_2  and  C_20
REMARK    2  A    between atoms: N_3  and  C_4
REMARK    3  A    between atoms: C_4  and  C_5
REMARK    4  A    between atoms: C_8  and  C_9
REMARK    5  A    between atoms: C_9  and  N_10
REMARK    6  A    between atoms: C_11  and  C_13
REMARK                            x       y       z     vdW  Elec       q    Type
REMARK                         _______ _______ _______ _____ _____    ______ ____
ROOT
ATOM      1  C   UNL     1      48.253   7.759  13.254  0.00  0.00    +0.000 A 
ATOM      2  C   UNL     1      48.989   8.901  13.601  0.00  0.00    +0.000 A 
ATOM      3  C   UNL     1      49.699   8.957  14.809  0.00  0.00    +0.000 A 
ATOM      4  C   UNL     1      49.708   7.863  15.685  0.00  0.00    +0.000 A 
ATOM      5  C   UNL     1      48.981   6.719  15.333  0.00  0.00    +0.000 A 
ATOM      6  C   UNL     1      48.273   6.662  14.125  0.00  0.00    +0.000 A 
ENDROOT
BRANCH   1   7
ATOM      7  C   UNL     1      47.446   7.718  11.981  0.00  0.00    +0.000 C 
BRANCH   7  10
ATOM      8  O   UNL     1      44.722   7.277  12.066  0.00  0.00    +0.000 OA
ATOM      9  C   UNL     1      45.447   6.338  11.748  0.00  0.00    +0.000 C 
ATOM     10  N   UNL     1      46.819   6.439  11.758  0.00  0.00    +0.000 N 
ATOM     11  H   UNL     1      47.372   5.725  11.298  0.00  0.00    +0.000 HD
BRANCH   9  12
ATOM     12  C   UNL     1      44.880   5.040  11.361  0.00  0.00    +0.000 A 
ATOM     13  C   UNL     1      44.067   4.344  12.248  0.00  0.00    +0.000 A 
ATOM     14  S   UNL     1      43.476   2.872  11.619  0.00  0.00    +0.000 S 
ATOM     15  C   UNL     1      44.250   3.134  10.129  0.00  0.00    +0.000 A 
ATOM     16  N   UNL     1      44.112   2.254   9.100  0.00  0.00    +0.000 NA
ATOM     17  C   UNL     1      44.721   2.603   8.014  0.00  0.00    +0.000 A 
ATOM     18  N   UNL     1      45.471   3.738   7.869  0.00  0.00    +0.000 N 
ATOM     19  C   UNL     1      45.679   4.630   8.896  0.00  0.00    +0.000 A 
ATOM     20  O   UNL     1      46.422   5.599   8.756  0.00  0.00    +0.000 OA
ATOM     21  C   UNL     1      44.982   4.311  10.123  0.00  0.00    +0.000 A 
ATOM     22  H   UNL     1      45.943   3.943   7.000  0.00  0.00    +0.000 HD
ENDBRANCH   9  12
ENDBRANCH   7  10
ENDBRANCH   1   7
BRANCH   4  23
ATOM     23  C   UNL     1      50.493   7.909  16.972  0.00  0.00    +0.000 C 
BRANCH  23  24
ATOM     24  N   UNL     1      50.225   6.774  17.826  0.00  0.00    +0.000 N 
ATOM     25  C   UNL     1      51.050   5.667  17.797  0.00  0.00    +0.000 C 
ATOM     26  O   UNL     1      52.039   5.599  17.068  0.00  0.00    +0.000 OA
ATOM     27  H   UNL     1      49.539   6.872  18.565  0.00  0.00    +0.000 HD
BRANCH  25  28
ATOM     28  C   UNL     1      50.641   4.532  18.767  0.00  0.00    +0.000 C 
ATOM     29  C   UNL     1      49.146   4.264  18.758  0.00  0.00    +0.000 C 
ATOM     30  C   UNL     1      48.960   3.377  17.539  0.00  0.00    +0.000 C 
ATOM     31  C   UNL     1      50.274   2.624  17.403  0.00  0.00    +0.000 C 
ATOM     32  N   UNL     1      51.214   3.233  18.351  0.00  0.00    +0.000 NA
ATOM     33  H   UNL     1      52.104   3.407  17.875  0.00  0.00    +0.000 HD
ENDBRANCH  25  28
ENDBRANCH  23  24
ENDBRANCH   4  23
TORSDOF 6
ENDMDL
MODEL 9
REMARK VINA RESULT:    -6.395      2.509      3.243
REMARK INTER + INTRA:          -9.625
REMARK INTER:                  -8.775
REMARK INTRA:                  -0.850
REMARK UNBOUND:                -0.987
REMARK  Name = 
REMARK  6 active torsions:
REMARK  status: ('A' for Active; 'I' for Inactive)
REMARK    1  A    between atoms: C_2  and  C_20
REMARK    2  A    between atoms: N_3  and  C_4
REMARK    3  A    between atoms: C_4  and  C_5
REMARK    4  A    between atoms: C_8  and  C_9
REMARK    5  A    between atoms: C_9  and  N_10
REMARK    6  A    between atoms: C_11  and  C_13
REMARK                            x       y       z     vdW  Elec       q    Type
REMARK                         _______ _______ _______ _____ _____    ______ ____
ROOT
ATOM      1  C   UNL     1      47.533   7.203  12.636  0.00  0.00    +0.000 A 
ATOM      2  C   UNL     1      47.287   5.828  12.754  0.00  0.00    +0.000 A 
ATOM      3  C   UNL     1      46.059   5.282  12.356  0.00  0.00    +0.000 A 
ATOM      4  C   UNL     1      45.058   6.096  11.807  0.00  0.00    +0.000 A 
ATOM      5  C   UNL     1      45.309   7.468  11.680  0.00  0.00    +0.000 A 
ATOM      6  C   UNL     1      46.537   8.013  12.077  0.00  0.00    +0.000 A 
ENDROOT
BRANCH   1   7
ATOM      7  C   UNL     1      48.834   7.799  13.114  0.00  0.00    +0.000 C 
BRANCH   7  10
ATOM      8  O   UNL     1      48.159   8.867  15.569  0.00  0.00    +0.000 OA
ATOM      9  C   UNL     1      48.809   7.824  15.554  0.00  0.00    +0.000 C 
ATOM     10  N   UNL     1      49.261   7.263  14.382  0.00  0.00    +0.000 N 
ATOM     11  H   UNL     1      49.608   6.310  14.390  0.00  0.00    +0.000 HD
BRANCH   9  12
ATOM     12  C   UNL     1      49.160   7.131  16.800  0.00  0.00    +0.000 A 
ATOM     13  C   UNL     1      49.814   7.817  17.817  0.00  0.00    +0.000 A 
ATOM     14  S   UNL     1      50.116   6.862  19.199  0.00  0.00    +0.000 S 
ATOM     15  C   UNL     1      49.346   5.515  18.504  0.00  0.00    +0.000 A 
ATOM     16  N   UNL     1      49.210   4.350  19.193  0.00  0.00    +0.000 NA
ATOM     17  C   UNL     1      48.568   3.426  18.557  0.00  0.00    +0.000 A 
ATOM     18  N   UNL     1      48.067   3.553  17.290  0.00  0.00    +0.000 N 
ATOM     19  C   UNL     1      48.225   4.694  16.538  0.00  0.00    +0.000 A 
ATOM     20  O   UNL     1      47.833   4.748  15.374  0.00  0.00    +0.000 OA
ATOM     21  C   UNL     1      48.899   5.778  17.219  0.00  0.00    +0.000 A 
ATOM     22  H   UNL     1      47.594   2.784  16.838  0.00  0.00    +0.000 HD
ENDBRANCH   9  12
ENDBRANCH   7  10
ENDBRANCH   1   7
BRANCH   4  23
ATOM     23  C   UNL     1      43.746   5.509  11.351  0.00  0.00    +0.000 C 
BRANCH  23  24
ATOM     24  N   UNL     1      43.855   4.826  10.082  0.00  0.00    +0.000 N 
ATOM     25  C   UNL     1      44.106   3.469  10.039  0.00  0.00    +0.000 C 
ATOM     26  O   UNL     1      44.234   2.788  11.055  0.00  0.00    +0.000 OA
ATOM     27  H   UNL     1      43.569   5.313   9.241  0.00  0.00    +0.000 HD
BRANCH  25  28
ATOM     28  C   UNL     1      44.192   2.875   8.612  0.00  0.00    +0.000 C 
ATOM     29  C   UNL     1      44.947   3.773   7.648  0.00  0.00    +0.000 C 
ATOM     30  C   UNL     1      46.402   3.451   7.940  0.00  0.00    +0.000 C 
ATOM     31  C   UNL     1      46.392   2.005   8.412  0.00  0.00    +0.000 C 
ATOM     32  N   UNL     1      44.987   1.626   8.594  0.00  0.00    +0.000 NA
ATOM     33  H   UNL     1      44.880   1.159   9.499  0.00  0.00    +0.000 HD
ENDBRANCH  25  28
ENDBRANCH  23  24
ENDBRANCH   4  23
TORSDOF 6
ENDMDL
