MODEL 1
REMARK VINA RESULT:    -7.963      0.000      0.000
REMARK INTER + INTRA:         -12.738
REMARK INTER:                 -11.687
REMARK INTRA:                  -1.051
REMARK UNBOUND:                -1.051
REMARK  Name = 
REMARK  9 active torsions:
REMARK  status: ('A' for Active; 'I' for Inactive)
REMARK    1  A    between atoms: C_1  and  O_2
REMARK    2  A    between atoms: O_2  and  C_3
REMARK    3  A    between atoms: C_10  and  C_11
REMARK    4  A    between atoms: N_13  and  C_14
REMARK    5  A    between atoms: C_14  and  C_15
REMARK    6  A    between atoms: C_18  and  C_19
REMARK    7  A    between atoms: C_19  and  N_20
REMARK    8  A    between atoms: N_20  and  C_21
REMARK    9  A    between atoms: C_21  and  C_22
REMARK                            x       y       z     vdW  Elec       q    Type
REMARK                         _______ _______ _______ _____ _____    ______ ____
ROOT
ATOM      1  C   UNL     1      47.967   6.937  13.281  0.00  0.00    +0.000 C 
ENDROOT
BRANCH   1   2
ATOM      2  C   UNL     1      46.825   6.125  12.722  0.00  0.00    +0.000 A 
ATOM      3  C   UNL     1      46.197   5.141  13.498  0.00  0.00    +0.000 A 
ATOM      4  C   UNL     1      45.140   4.387  12.973  0.00  0.00    +0.000 A 
ATOM      5  C   UNL     1      44.690   4.593  11.660  0.00  0.00    +0.000 A 
ATOM      6  C   UNL     1      45.340   5.556  10.877  0.00  0.00    +0.000 A 
ATOM      7  C   UNL     1      46.399   6.308  11.399  0.00  0.00    +0.000 A 
BRANCH   5   8
ATOM      8  C   UNL     1      43.540   3.783  11.099  0.00  0.00    +0.000 C 
BRANCH   8   9
ATOM      9  N   UNL     1      43.763   3.448   9.697  0.00  0.00    +0.000 NA
ATOM     10  H   UNL     1      44.319   4.180   9.251  0.00  0.00    +0.000 HD
BRANCH   9  11
ATOM     11  C   UNL     1      44.502   2.179   9.550  0.00  0.00    +0.000 C 
BRANCH  11  12
ATOM     12  C   UNL     1      45.599   2.254   8.495  0.00  0.00    +0.000 A 
ATOM     13  N   UNL     1      45.800   3.445   7.886  0.00  0.00    +0.000 NA
ATOM     14  C   UNL     1      46.753   3.477   6.935  0.00  0.00    +0.000 A 
ATOM     15  C   UNL     1      47.511   2.386   6.580  0.00  0.00    +0.000 A 
ATOM     16  C   UNL     1      47.242   1.228   7.269  0.00  0.00    +0.000 A 
ATOM     17  N   UNL     1      46.303   1.133   8.229  0.00  0.00    +0.000 NA
ENDBRANCH  11  12
ENDBRANCH   9  11
ENDBRANCH   8   9
ENDBRANCH   5   8
ENDBRANCH   1   2
BRANCH   1  20
ATOM     18  C   UNL     1      48.988   6.868  15.523  0.00  0.00    +0.000 C 
ATOM     19  O   UNL     1      50.103   6.650  15.053  0.00  0.00    +0.000 OA
ATOM     20  N   UNL     1      47.895   7.011  14.718  0.00  0.00    +0.000 N 
ATOM     21  H   UNL     1      46.974   7.112  15.127  0.00  0.00    +0.000 HD
BRANCH  18  29
ATOM     22  C   UNL     1      48.965   4.602  18.115  0.00  0.00    +0.000 A 
ATOM     23  N   UNL     1      48.866   3.939  19.285  0.00  0.00    +0.000 NA
ATOM     24  C   UNL     1      48.567   4.642  20.381  0.00  0.00    +0.000 A 
ATOM     25  N   UNL     1      48.358   5.953  20.459  0.00  0.00    +0.000 NA
ATOM     26  C   UNL     1      48.470   6.575  19.272  0.00  0.00    +0.000 A 
ATOM     27  S   UNL     1      48.242   8.255  19.183  0.00  0.00    +0.000 S 
ATOM     28  C   UNL     1      48.513   8.255  17.505  0.00  0.00    +0.000 A 
ATOM     29  C   UNL     1      48.778   6.996  16.977  0.00  0.00    +0.000 A 
ATOM     30  C   UNL     1      48.767   5.992  18.044  0.00  0.00    +0.000 A 
BRANCH  22  32
ATOM     31  C   UNL     1      48.421   2.840  16.672  0.00  0.00    +0.000 C 
ATOM     32  O   UNL     1      49.334   3.885  16.996  0.00  0.00    +0.000 OA
ENDBRANCH  22  32
ENDBRANCH  18  29
ENDBRANCH   1  20
TORSDOF 8
ENDMDL
MODEL 2
REMARK VINA RESULT:    -7.443      1.831      2.067
REMARK INTER + INTRA:         -11.975
REMARK INTER:                 -10.876
REMARK INTRA:                  -1.098
REMARK UNBOUND:                -1.051
REMARK  Name = 
REMARK  9 active torsions:
REMARK  status: ('A' for Active; 'I' for Inactive)
REMARK    1  A    between atoms: C_1  and  O_2
REMARK    2  A    between atoms: O_2  and  C_3
REMARK    3  A    between atoms: C_10  and  C_11
REMARK    4  A    between atoms: N_13  and  C_14
REMARK    5  A    between atoms: C_14  and  C_15
REMARK    6  A    between atoms: C_18  and  C_19
REMARK    7  A    between atoms: C_19  and  N_20
REMARK    8  A    between atoms: N_20  and  C_21
REMARK    9  A    between atoms: C_21  and  C_22
REMARK                            x       y       z     vdW  Elec       q    Type
REMARK                         _______ _______ _______ _____ _____    ______ ____
ROOT
ATOM      1  C   UNL     1      47.178   7.618  13.425  0.00  0.00    +0.000 C 
ENDROOT
BRANCH   1   2
ATOM      2  C   UNL     1      46.283   6.513  12.920  0.00  0.00    +0.000 A 
ATOM      3  C   UNL     1      46.496   5.183  13.308  0.00  0.00    +0.000 A 
ATOM      4  C   UNL     1      45.665   4.161  12.833  0.00  0.00    +0.000 A 
ATOM      5  C   UNL     1      44.607   4.441  11.956  0.00  0.00    +0.000 A 
ATOM      6  C   UNL     1      44.415   5.767  11.546  0.00  0.00    +0.000 A 
ATOM      7  C   UNL     1      45.247   6.790  12.016  0.00  0.00    +0.000 A 
BRANCH   5   8
ATOM      8  C   UNL     1      43.704   3.335  11.453  0.00  0.00    +0.000 C 
BRANCH   8   9
ATOM      9  N   UNL     1      44.411   2.452  10.531  0.00  0.00    +0.000 NA
ATOM     10  H   UNL     1      43.943   1.545  10.495  0.00  0.00    +0.000 HD
BRANCH   9  11
ATOM     11  C   UNL     1      44.428   2.996   9.160  0.00  0.00    +0.000 C 
BRANCH  11  12
ATOM     12  C   UNL     1      45.618   2.505   8.345  0.00  0.00    +0.000 A 
ATOM     13  N   UNL     1      46.299   3.421   7.618  0.00  0.00    +0.000 NA
ATOM     14  C   UNL     1      47.326   2.957   6.882  0.00  0.00    +0.000 A 
ATOM     15  C   UNL     1      47.705   1.635   6.851  0.00  0.00    +0.000 A 
ATOM     16  C   UNL     1      46.962   0.788   7.637  0.00  0.00    +0.000 A 
ATOM     17  N   UNL     1      45.924   1.191   8.394  0.00  0.00    +0.000 NA
ENDBRANCH  11  12
ENDBRANCH   9  11
ENDBRANCH   8   9
ENDBRANCH   5   8
ENDBRANCH   1   2
BRANCH   1  20
ATOM     18  C   UNL     1      49.021   7.775  15.053  0.00  0.00    +0.000 C 
ATOM     19  O   UNL     1      48.695   8.917  15.373  0.00  0.00    +0.000 OA
ATOM     20  N   UNL     1      48.332   7.081  14.101  0.00  0.00    +0.000 N 
ATOM     21  H   UNL     1      48.662   6.175  13.796  0.00  0.00    +0.000 HD
BRANCH  18  29
ATOM     22  C   UNL     1      49.291   5.055  17.148  0.00  0.00    +0.000 A 
ATOM     23  N   UNL     1      49.673   4.069  17.984  0.00  0.00    +0.000 NA
ATOM     24  C   UNL     1      50.973   3.957  18.271  0.00  0.00    +0.000 A 
ATOM     25  N   UNL     1      51.962   4.718  17.811  0.00  0.00    +0.000 NA
ATOM     26  C   UNL     1      51.538   5.686  16.979  0.00  0.00    +0.000 A 
ATOM     27  S   UNL     1      52.667   6.751  16.290  0.00  0.00    +0.000 S 
ATOM     28  C   UNL     1      51.445   7.593  15.462  0.00  0.00    +0.000 A 
ATOM     29  C   UNL     1      50.165   7.096  15.687  0.00  0.00    +0.000 A 
ATOM     30  C   UNL     1      50.228   5.940  16.586  0.00  0.00    +0.000 A 
BRANCH  22  32
ATOM     31  C   UNL     1      47.335   3.853  16.693  0.00  0.00    +0.000 C 
ATOM     32  O   UNL     1      47.957   5.130  16.804  0.00  0.00    +0.000 OA
ENDBRANCH  22  32
ENDBRANCH  18  29
ENDBRANCH   1  20
TORSDOF 8
ENDMDL
MODEL 3
REMARK VINA RESULT:    -7.153      2.182      3.771
REMARK INTER + INTRA:         -11.549
REMARK INTER:                 -10.204
REMARK INTRA:                  -1.345
REMARK UNBOUND:                -1.051
REMARK  Name = 
REMARK  9 active torsions:
REMARK  status: ('A' for Active; 'I' for Inactive)
REMARK    1  A    between atoms: C_1  and  O_2
REMARK    2  A    between atoms: O_2  and  C_3
REMARK    3  A    between atoms: C_10  and  C_11
REMARK    4  A    between atoms: N_13  and  C_14
REMARK    5  A    between atoms: C_14  and  C_15
REMARK    6  A    between atoms: C_18  and  C_19
REMARK    7  A    between atoms: C_19  and  N_20
REMARK    8  A    between atoms: N_20  and  C_21
REMARK    9  A    between atoms: C_21  and  C_22
REMARK                            x       y       z     vdW  Elec       q    Type
REMARK                         _______ _______ _______ _____ _____    ______ ____
ROOT
ATOM      1  C   UNL     1      47.392   4.629  14.907  0.00  0.00    +0.000 C 
ENDROOT
BRANCH   1   2
ATOM      2  C   UNL     1      46.374   4.542  13.797  0.00  0.00    +0.000 A 
ATOM      3  C   UNL     1      46.126   3.326  13.145  0.00  0.00    +0.000 A 
ATOM      4  C   UNL     1      45.183   3.251  12.113  0.00  0.00    +0.000 A 
ATOM      5  C   UNL     1      44.471   4.388  11.704  0.00  0.00    +0.000 A 
ATOM      6  C   UNL     1      44.743   5.608  12.336  0.00  0.00    +0.000 A 
ATOM      7  C   UNL     1      45.688   5.686  13.366  0.00  0.00    +0.000 A 
BRANCH   5   8
ATOM      8  C   UNL     1      43.444   4.301  10.594  0.00  0.00    +0.000 C 
BRANCH   8   9
ATOM      9  N   UNL     1      43.868   3.374   9.551  0.00  0.00    +0.000 NA
ATOM     10  H   UNL     1      43.049   2.940   9.121  0.00  0.00    +0.000 HD
BRANCH   9  11
ATOM     11  C   UNL     1      44.618   4.060   8.482  0.00  0.00    +0.000 C 
BRANCH  11  12
ATOM     12  C   UNL     1      45.672   3.170   7.836  0.00  0.00    +0.000 A 
ATOM     13  N   UNL     1      46.344   3.668   6.772  0.00  0.00    +0.000 NA
ATOM     14  C   UNL     1      47.248   2.851   6.200  0.00  0.00    +0.000 A 
ATOM     15  C   UNL     1      47.513   1.578   6.646  0.00  0.00    +0.000 A 
ATOM     16  C   UNL     1      46.792   1.172   7.742  0.00  0.00    +0.000 A 
ATOM     17  N   UNL     1      45.875   1.942   8.358  0.00  0.00    +0.000 NA
ENDBRANCH  11  12
ENDBRANCH   9  11
ENDBRANCH   8   9
ENDBRANCH   5   8
ENDBRANCH   1   2
BRANCH   1  20
ATOM     18  C   UNL     1      48.828   6.373  15.892  0.00  0.00    +0.000 C 
ATOM     19  O   UNL     1      49.643   5.539  16.282  0.00  0.00    +0.000 OA
ATOM     20  N   UNL     1      47.699   6.002  15.222  0.00  0.00    +0.000 N 
ATOM     21  H   UNL     1      47.003   6.695  14.978  0.00  0.00    +0.000 HD
BRANCH  18  29
ATOM     22  C   UNL     1      48.697   9.136  13.841  0.00  0.00    +0.000 A 
ATOM     23  N   UNL     1      48.747  10.356  13.268  0.00  0.00    +0.000 NA
ATOM     24  C   UNL     1      49.078  11.397  14.038  0.00  0.00    +0.000 A 
ATOM     25  N   UNL     1      49.363  11.374  15.336  0.00  0.00    +0.000 NA
ATOM     26  C   UNL     1      49.298  10.140  15.868  0.00  0.00    +0.000 A 
ATOM     27  S   UNL     1      49.625   9.922  17.519  0.00  0.00    +0.000 S 
ATOM     28  C   UNL     1      49.367   8.246  17.402  0.00  0.00    +0.000 A 
ATOM     29  C   UNL     1      49.033   7.815  16.122  0.00  0.00    +0.000 A 
ATOM     30  C   UNL     1      48.976   8.958  15.207  0.00  0.00    +0.000 A 
BRANCH  22  32
ATOM     31  C   UNL     1      49.366   7.468  12.341  0.00  0.00    +0.000 C 
ATOM     32  O   UNL     1      48.294   8.073  13.060  0.00  0.00    +0.000 OA
ENDBRANCH  22  32
ENDBRANCH  18  29
ENDBRANCH   1  20
TORSDOF 8
ENDMDL
MODEL 4
REMARK VINA RESULT:    -7.044      1.847      3.288
REMARK INTER + INTRA:         -11.389
REMARK INTER:                 -10.253
REMARK INTRA:                  -1.136
REMARK UNBOUND:                -1.051
REMARK  Name = 
REMARK  9 active torsions:
REMARK  status: ('A' for Active; 'I' for Inactive)
REMARK    1  A    between atoms: C_1  and  O_2
REMARK    2  A    between atoms: O_2  and  C_3
REMARK    3  A    between atoms: C_10  and  C_11
REMARK    4  A    between atoms: N_13  and  C_14
REMARK    5  A    between atoms: C_14  and  C_15
REMARK    6  A    between atoms: C_18  and  C_19
REMARK    7  A    between atoms: C_19  and  N_20
REMARK    8  A    between atoms: N_20  and  C_21
REMARK    9  A    between atoms: C_21  and  C_22
REMARK                            x       y       z     vdW  Elec       q    Type
REMARK                         _______ _______ _______ _____ _____    ______ ____
ROOT
ATOM      1  C   UNL     1      47.223   4.030  14.768  0.00  0.00    +0.000 C 
ENDROOT
BRANCH   1   2
ATOM      2  C   UNL     1      46.254   4.294  13.643  0.00  0.00    +0.000 A 
ATOM      3  C   UNL     1      45.701   3.236  12.907  0.00  0.00    +0.000 A 
ATOM      4  C   UNL     1      44.805   3.487  11.861  0.00  0.00    +0.000 A 
ATOM      5  C   UNL     1      44.445   4.799  11.520  0.00  0.00    +0.000 A 
ATOM      6  C   UNL     1      45.022   5.856  12.236  0.00  0.00    +0.000 A 
ATOM      7  C   UNL     1      45.921   5.607  13.280  0.00  0.00    +0.000 A 
BRANCH   5   8
ATOM      8  C   UNL     1      43.468   5.067  10.394  0.00  0.00    +0.000 C 
BRANCH   8   9
ATOM      9  N   UNL     1      43.843   4.344   9.184  0.00  0.00    +0.000 NA
ATOM     10  H   UNL     1      43.199   4.581   8.427  0.00  0.00    +0.000 HD
BRANCH   9  11
ATOM     11  C   UNL     1      45.203   4.699   8.736  0.00  0.00    +0.000 C 
BRANCH  11  12
ATOM     12  C   UNL     1      45.930   3.532   8.078  0.00  0.00    +0.000 A 
ATOM     13  N   UNL     1      45.702   2.294   8.573  0.00  0.00    +0.000 NA
ATOM     14  C   UNL     1      46.380   1.285   7.995  0.00  0.00    +0.000 A 
ATOM     15  C   UNL     1      47.256   1.457   6.950  0.00  0.00    +0.000 A 
ATOM     16  C   UNL     1      47.405   2.749   6.508  0.00  0.00    +0.000 A 
ATOM     17  N   UNL     1      46.756   3.800   7.044  0.00  0.00    +0.000 NA
ENDBRANCH  11  12
ENDBRANCH   9  11
ENDBRANCH   8   9
ENDBRANCH   5   8
ENDBRANCH   1   2
BRANCH   1  20
ATOM     18  C   UNL     1      48.492   5.326  16.435  0.00  0.00    +0.000 C 
ATOM     19  O   UNL     1      49.221   4.368  16.686  0.00  0.00    +0.000 OA
ATOM     20  N   UNL     1      47.488   5.233  15.516  0.00  0.00    +0.000 N 
ATOM     21  H   UNL     1      46.851   6.007  15.381  0.00  0.00    +0.000 HD
BRANCH  18  29
ATOM     22  C   UNL     1      48.747   8.565  15.292  0.00  0.00    +0.000 A 
ATOM     23  N   UNL     1      48.908   9.892  15.119  0.00  0.00    +0.000 NA
ATOM     24  C   UNL     1      49.116  10.646  16.202  0.00  0.00    +0.000 A 
ATOM     25  N   UNL     1      49.175  10.233  17.465  0.00  0.00    +0.000 NA
ATOM     26  C   UNL     1      49.005   8.905  17.593  0.00  0.00    +0.000 A 
ATOM     27  S   UNL     1      49.043   8.201  19.138  0.00  0.00    +0.000 S 
ATOM     28  C   UNL     1      48.789   6.649  18.494  0.00  0.00    +0.000 A 
ATOM     29  C   UNL     1      48.673   6.626  17.108  0.00  0.00    +0.000 A 
ATOM     30  C   UNL     1      48.787   7.985  16.572  0.00  0.00    +0.000 A 
BRANCH  22  32
ATOM     31  C   UNL     1      48.852   8.424  12.958  0.00  0.00    +0.000 C 
ATOM     32  O   UNL     1      48.470   7.798  14.180  0.00  0.00    +0.000 OA
ENDBRANCH  22  32
ENDBRANCH  18  29
ENDBRANCH   1  20
TORSDOF 8
ENDMDL
MODEL 5
REMARK VINA RESULT:    -6.982      1.692      2.350
REMARK INTER + INTRA:         -11.298
REMARK INTER:                 -10.325
REMARK INTRA:                  -0.972
REMARK UNBOUND:                -1.051
REMARK  Name = 
REMARK  9 active torsions:
REMARK  status: ('A' for Active; 'I' for Inactive)
REMARK    1  A    between atoms: C_1  and  O_2
REMARK    2  A    between atoms: O_2  and  C_3
REMARK    3  A    between atoms: C_10  and  C_11
REMARK    4  A    between atoms: N_13  and  C_14
REMARK    5  A    between atoms: C_14  and  C_15
REMARK    6  A    between atoms: C_18  and  C_19
REMARK    7  A    between atoms: C_19  and  N_20
REMARK    8  A    between atoms: N_20  and  C_21
REMARK    9  A    between atoms: C_21  and  C_22
REMARK                            x       y       z     vdW  Elec       q    Type
REMARK                         _______ _______ _______ _____ _____    ______ ____
ROOT
ATOM      1  C   UNL     1      47.487   4.318  15.023  0.00  0.00    +0.000 C 
ENDROOT
BRANCH   1   2
ATOM      2  C   UNL     1      46.481   4.370  13.899  0.00  0.00    +0.000 A 
ATOM      3  C   UNL     1      46.166   3.218  13.165  0.00  0.00    +0.000 A 
ATOM      4  C   UNL     1      45.235   3.272  12.121  0.00  0.00    +0.000 A 
ATOM      5  C   UNL     1      44.601   4.477  11.782  0.00  0.00    +0.000 A 
ATOM      6  C   UNL     1      44.941   5.632  12.497  0.00  0.00    +0.000 A 
ATOM      7  C   UNL     1      45.874   5.581  13.539  0.00  0.00    +0.000 A 
BRANCH   5   8
ATOM      8  C   UNL     1      43.586   4.530  10.659  0.00  0.00    +0.000 C 
BRANCH   8   9
ATOM      9  N   UNL     1      43.864   3.518   9.645  0.00  0.00    +0.000 NA
ATOM     10  H   UNL     1      42.989   3.096   9.330  0.00  0.00    +0.000 HD
BRANCH   9  11
ATOM     11  C   UNL     1      44.528   4.098   8.463  0.00  0.00    +0.000 C 
BRANCH  11  12
ATOM     12  C   UNL     1      45.586   3.176   7.868  0.00  0.00    +0.000 A 
ATOM     13  N   UNL     1      46.295   3.638   6.812  0.00  0.00    +0.000 NA
ATOM     14  C   UNL     1      47.201   2.793   6.286  0.00  0.00    +0.000 A 
ATOM     15  C   UNL     1      47.434   1.527   6.770  0.00  0.00    +0.000 A 
ATOM     16  C   UNL     1      46.676   1.160   7.855  0.00  0.00    +0.000 A 
ATOM     17  N   UNL     1      45.754   1.958   8.426  0.00  0.00    +0.000 NA
ENDBRANCH  11  12
ENDBRANCH   9  11
ENDBRANCH   8   9
ENDBRANCH   5   8
ENDBRANCH   1   2
BRANCH   1  20
ATOM     18  C   UNL     1      48.712   6.034  16.299  0.00  0.00    +0.000 C 
ATOM     19  O   UNL     1      49.740   5.358  16.300  0.00  0.00    +0.000 OA
ATOM     20  N   UNL     1      47.569   5.586  15.702  0.00  0.00    +0.000 N 
ATOM     21  H   UNL     1      46.714   6.122  15.780  0.00  0.00    +0.000 HD
BRANCH  18  29
ATOM     22  C   UNL     1      47.772   7.128  19.425  0.00  0.00    +0.000 A 
ATOM     23  N   UNL     1      47.439   7.818  20.535  0.00  0.00    +0.000 NA
ATOM     24  C   UNL     1      47.565   9.148  20.509  0.00  0.00    +0.000 A 
ATOM     25  N   UNL     1      47.999   9.891  19.495  0.00  0.00    +0.000 NA
ATOM     26  C   UNL     1      48.324   9.164  18.411  0.00  0.00    +0.000 A 
ATOM     27  S   UNL     1      48.905   9.947  17.021  0.00  0.00    +0.000 S 
ATOM     28  C   UNL     1      49.052   8.473  16.189  0.00  0.00    +0.000 A 
ATOM     29  C   UNL     1      48.666   7.363  16.934  0.00  0.00    +0.000 A 
ATOM     30  C   UNL     1      48.245   7.781  18.273  0.00  0.00    +0.000 A 
BRANCH  22  32
ATOM     31  C   UNL     1      48.800   5.158  20.160  0.00  0.00    +0.000 C 
ATOM     32  O   UNL     1      47.700   5.752  19.475  0.00  0.00    +0.000 OA
ENDBRANCH  22  32
ENDBRANCH  18  29
ENDBRANCH   1  20
TORSDOF 8
ENDMDL
MODEL 6
REMARK VINA RESULT:    -6.966      4.611      9.407
REMARK INTER + INTRA:         -11.275
REMARK INTER:                 -10.386
REMARK INTRA:                  -0.889
REMARK UNBOUND:                -1.051
REMARK  Name = 
REMARK  9 active torsions:
REMARK  status: ('A' for Active; 'I' for Inactive)
REMARK    1  A    between atoms: C_1  and  O_2
REMARK    2  A    between atoms: O_2  and  C_3
REMARK    3  A    between atoms: C_10  and  C_11
REMARK    4  A    between atoms: N_13  and  C_14
REMARK    5  A    between atoms: C_14  and  C_15
REMARK    6  A    between atoms: C_18  and  C_19
REMARK    7  A    between atoms: C_19  and  N_20
REMARK    8  A    between atoms: N_20  and  C_21
REMARK    9  A    between atoms: C_21  and  C_22
REMARK                            x       y       z     vdW  Elec       q    Type
REMARK                         _______ _______ _______ _____ _____    ______ ____
ROOT
ATOM      1  C   UNL     1      47.137   3.382  16.868  0.00  0.00    +0.000 C 
ENDROOT
BRANCH   1   2
ATOM      2  C   UNL     1      48.606   3.274  17.194  0.00  0.00    +0.000 A 
ATOM      3  C   UNL     1      49.294   4.347  17.777  0.00  0.00    +0.000 A 
ATOM      4  C   UNL     1      50.658   4.243  18.073  0.00  0.00    +0.000 A 
ATOM      5  C   UNL     1      51.369   3.067  17.791  0.00  0.00    +0.000 A 
ATOM      6  C   UNL     1      50.686   2.006  17.181  0.00  0.00    +0.000 A 
ATOM      7  C   UNL     1      49.323   2.111  16.880  0.00  0.00    +0.000 A 
BRANCH   5   8
ATOM      8  C   UNL     1      52.842   2.953  18.123  0.00  0.00    +0.000 C 
BRANCH   8   9
ATOM      9  N   UNL     1      53.181   1.608  18.576  0.00  0.00    +0.000 NA
ATOM     10  H   UNL     1      52.346   1.021  18.567  0.00  0.00    +0.000 HD
BRANCH   9  11
ATOM     11  C   UNL     1      54.180   0.973  17.697  0.00  0.00    +0.000 C 
BRANCH  11  12
ATOM     12  C   UNL     1      54.290  -0.531  17.919  0.00  0.00    +0.000 A 
ATOM     13  N   UNL     1      53.753  -1.036  19.054  0.00  0.00    +0.000 NA
ATOM     14  C   UNL     1      53.890  -2.362  19.241  0.00  0.00    +0.000 A 
ATOM     15  C   UNL     1      54.523  -3.196  18.350  0.00  0.00    +0.000 A 
ATOM     16  C   UNL     1      55.018  -2.589  17.220  0.00  0.00    +0.000 A 
ATOM     17  N   UNL     1      54.913  -1.269  16.976  0.00  0.00    +0.000 NA
ENDBRANCH  11  12
ENDBRANCH   9  11
ENDBRANCH   8   9
ENDBRANCH   5   8
ENDBRANCH   1   2
BRANCH   1  20
ATOM     18  C   UNL     1      46.950   4.254  14.571  0.00  0.00    +0.000 C 
ATOM     19  O   UNL     1      47.230   3.159  14.088  0.00  0.00    +0.000 OA
ATOM     20  N   UNL     1      46.894   4.442  15.921  0.00  0.00    +0.000 N 
ATOM     21  H   UNL     1      46.739   5.368  16.298  0.00  0.00    +0.000 HD
BRANCH  18  29
ATOM     22  C   UNL     1      44.214   5.159  12.685  0.00  0.00    +0.000 A 
ATOM     23  N   UNL     1      43.315   5.725  11.855  0.00  0.00    +0.000 NA
ATOM     24  C   UNL     1      43.651   6.869  11.251  0.00  0.00    +0.000 A 
ATOM     25  N   UNL     1      44.793   7.538  11.381  0.00  0.00    +0.000 NA
ATOM     26  C   UNL     1      45.658   6.942  12.220  0.00  0.00    +0.000 A 
ATOM     27  S   UNL     1      47.169   7.660  12.514  0.00  0.00    +0.000 S 
ATOM     28  C   UNL     1      47.621   6.402  13.564  0.00  0.00    +0.000 A 
ATOM     29  C   UNL     1      46.650   5.417  13.715  0.00  0.00    +0.000 A 
ATOM     30  C   UNL     1      45.467   5.753  12.919  0.00  0.00    +0.000 A 
BRANCH  22  32
ATOM     31  C   UNL     1      43.697   2.885  12.497  0.00  0.00    +0.000 C 
ATOM     32  O   UNL     1      43.842   4.013  13.355  0.00  0.00    +0.000 OA
ENDBRANCH  22  32
ENDBRANCH  18  29
ENDBRANCH   1  20
TORSDOF 8
ENDMDL
MODEL 7
REMARK VINA RESULT:    -6.566      3.821      8.756
REMARK INTER + INTRA:         -10.688
REMARK INTER:                  -9.513
REMARK INTRA:                  -1.175
REMARK UNBOUND:                -1.051
REMARK  Name = 
REMARK  9 active torsions:
REMARK  status: ('A' for Active; 'I' for Inactive)
REMARK    1  A    between atoms: C_1  and  O_2
REMARK    2  A    between atoms: O_2  and  C_3
REMARK    3  A    between atoms: C_10  and  C_11
REMARK    4  A    between atoms: N_13  and  C_14
REMARK    5  A    between atoms: C_14  and  C_15
REMARK    6  A    between atoms: C_18  and  C_19
REMARK    7  A    between atoms: C_19  and  N_20
REMARK    8  A    between atoms: N_20  and  C_21
REMARK    9  A    between atoms: C_21  and  C_22
REMARK                            x       y       z     vdW  Elec       q    Type
REMARK                         _______ _______ _______ _____ _____    ______ ____
ROOT
ATOM      1  C   UNL     1      47.210   3.345  16.741  0.00  0.00    +0.000 C 
ENDROOT
BRANCH   1   2
ATOM      2  C   UNL     1      48.681   3.339  17.076  0.00  0.00    +0.000 A 
ATOM      3  C   UNL     1      49.445   2.173  16.934  0.00  0.00    +0.000 A 
ATOM      4  C   UNL     1      50.809   2.171  17.250  0.00  0.00    +0.000 A 
ATOM      5  C   UNL     1      51.441   3.332  17.721  0.00  0.00    +0.000 A 
ATOM      6  C   UNL     1      50.668   4.488  17.891  0.00  0.00    +0.000 A 
ATOM      7  C   UNL     1      49.303   4.490  17.579  0.00  0.00    +0.000 A 
BRANCH   5   8
ATOM      8  C   UNL     1      52.918   3.330  18.052  0.00  0.00    +0.000 C 
BRANCH   8   9
ATOM      9  N   UNL     1      53.460   4.684  18.066  0.00  0.00    +0.000 NA
ATOM     10  H   UNL     1      53.917   4.864  18.961  0.00  0.00    +0.000 HD
BRANCH   9  11
ATOM     11  C   UNL     1      54.469   4.878  17.006  0.00  0.00    +0.000 C 
BRANCH  11  12
ATOM     12  C   UNL     1      54.110   6.011  16.051  0.00  0.00    +0.000 A 
ATOM     13  N   UNL     1      52.933   6.648  16.251  0.00  0.00    +0.000 NA
ATOM     14  C   UNL     1      52.626   7.623  15.375  0.00  0.00    +0.000 A 
ATOM     15  C   UNL     1      53.438   7.991  14.329  0.00  0.00    +0.000 A 
ATOM     16  C   UNL     1      54.619   7.296  14.223  0.00  0.00    +0.000 A 
ATOM     17  N   UNL     1      54.983   6.312  15.066  0.00  0.00    +0.000 NA
ENDBRANCH  11  12
ENDBRANCH   9  11
ENDBRANCH   8   9
ENDBRANCH   5   8
ENDBRANCH   1   2
BRANCH   1  20
ATOM     18  C   UNL     1      46.921   4.247  14.466  0.00  0.00    +0.000 C 
ATOM     19  O   UNL     1      47.240   3.174  13.956  0.00  0.00    +0.000 OA
ATOM     20  N   UNL     1      46.893   4.408  15.820  0.00  0.00    +0.000 N 
ATOM     21  H   UNL     1      46.705   5.319  16.218  0.00  0.00    +0.000 HD
BRANCH  18  29
ATOM     22  C   UNL     1      44.096   5.057  12.672  0.00  0.00    +0.000 A 
ATOM     23  N   UNL     1      43.149   5.595  11.877  0.00  0.00    +0.000 NA
ATOM     24  C   UNL     1      43.415   6.763  11.285  0.00  0.00    +0.000 A 
ATOM     25  N   UNL     1      44.529   7.481  11.396  0.00  0.00    +0.000 NA
ATOM     26  C   UNL     1      45.444   6.911  12.200  0.00  0.00    +0.000 A 
ATOM     27  S   UNL     1      46.928   7.692  12.465  0.00  0.00    +0.000 S 
ATOM     28  C   UNL     1      47.466   6.440  13.480  0.00  0.00    +0.000 A 
ATOM     29  C   UNL     1      46.546   5.409  13.639  0.00  0.00    +0.000 A 
ATOM     30  C   UNL     1      45.327   5.704  12.882  0.00  0.00    +0.000 A 
BRANCH  22  32
ATOM     31  C   UNL     1      43.647   2.771  12.455  0.00  0.00    +0.000 C 
ATOM     32  O   UNL     1      43.795   3.884  13.331  0.00  0.00    +0.000 OA
ENDBRANCH  22  32
ENDBRANCH  18  29
ENDBRANCH   1  20
TORSDOF 8
ENDMDL
MODEL 8
REMARK VINA RESULT:    -6.563      3.348      5.488
REMARK INTER + INTRA:         -10.684
REMARK INTER:                  -9.602
REMARK INTRA:                  -1.082
REMARK UNBOUND:                -1.051
REMARK  Name = 
REMARK  9 active torsions:
REMARK  status: ('A' for Active; 'I' for Inactive)
REMARK    1  A    between atoms: C_1  and  O_2
REMARK    2  A    between atoms: O_2  and  C_3
REMARK    3  A    between atoms: C_10  and  C_11
REMARK    4  A    between atoms: N_13  and  C_14
REMARK    5  A    between atoms: C_14  and  C_15
REMARK    6  A    between atoms: C_18  and  C_19
REMARK    7  A    between atoms: C_19  and  N_20
REMARK    8  A    between atoms: N_20  and  C_21
REMARK    9  A    between atoms: C_21  and  C_22
REMARK                            x       y       z     vdW  Elec       q    Type
REMARK                         _______ _______ _______ _____ _____    ______ ____
ROOT
ATOM      1  C   UNL     1      48.207   6.480  14.544  0.00  0.00    +0.000 C 
ENDROOT
BRANCH   1   2
ATOM      2  C   UNL     1      47.239   5.826  13.590  0.00  0.00    +0.000 A 
ATOM      3  C   UNL     1      46.885   6.452  12.386  0.00  0.00    +0.000 A 
ATOM      4  C   UNL     1      45.983   5.843  11.505  0.00  0.00    +0.000 A 
ATOM      5  C   UNL     1      45.408   4.599  11.807  0.00  0.00    +0.000 A 
ATOM      6  C   UNL     1      45.740   3.991  13.025  0.00  0.00    +0.000 A 
ATOM      7  C   UNL     1      46.639   4.600  13.909  0.00  0.00    +0.000 A 
BRANCH   5   8
ATOM      8  C   UNL     1      44.441   3.938  10.848  0.00  0.00    +0.000 C 
BRANCH   8   9
ATOM      9  N   UNL     1      44.770   2.531  10.648  0.00  0.00    +0.000 NA
ATOM     10  H   UNL     1      44.225   1.955  11.291  0.00  0.00    +0.000 HD
BRANCH   9  11
ATOM     11  C   UNL     1      44.454   2.087   9.277  0.00  0.00    +0.000 C 
BRANCH  11  12
ATOM     12  C   UNL     1      45.662   2.128   8.351  0.00  0.00    +0.000 A 
ATOM     13  N   UNL     1      45.990   3.321   7.802  0.00  0.00    +0.000 NA
ATOM     14  C   UNL     1      47.042   3.324   6.962  0.00  0.00    +0.000 A 
ATOM     15  C   UNL     1      47.779   2.203   6.660  0.00  0.00    +0.000 A 
ATOM     16  C   UNL     1      47.377   1.045   7.281  0.00  0.00    +0.000 A 
ATOM     17  N   UNL     1      46.334   0.977   8.130  0.00  0.00    +0.000 NA
ENDBRANCH  11  12
ENDBRANCH   9  11
ENDBRANCH   8   9
ENDBRANCH   5   8
ENDBRANCH   1   2
BRANCH   1  20
ATOM     18  C   UNL     1      50.227   7.888  14.459  0.00  0.00    +0.000 C 
ATOM     19  O   UNL     1      50.295   7.936  15.687  0.00  0.00    +0.000 OA
ATOM     20  N   UNL     1      49.229   7.203  13.830  0.00  0.00    +0.000 N 
ATOM     21  H   UNL     1      49.146   7.240  12.822  0.00  0.00    +0.000 HD
BRANCH  18  29
ATOM     22  C   UNL     1      49.988   9.901  11.676  0.00  0.00    +0.000 A 
ATOM     23  N   UNL     1      50.181  10.664  10.580  0.00  0.00    +0.000 NA
ATOM     24  C   UNL     1      51.438  10.929  10.214  0.00  0.00    +0.000 A 
ATOM     25  N   UNL     1      52.551  10.529  10.822  0.00  0.00    +0.000 NA
ATOM     26  C   UNL     1      52.314   9.775  11.910  0.00  0.00    +0.000 A 
ATOM     27  S   UNL     1      53.620   9.180  12.818  0.00  0.00    +0.000 S 
ATOM     28  C   UNL     1      52.575   8.395  13.904  0.00  0.00    +0.000 A 
ATOM     29  C   UNL     1      51.226   8.560  13.608  0.00  0.00    +0.000 A 
ATOM     30  C   UNL     1      51.073   9.403  12.420  0.00  0.00    +0.000 A 
BRANCH  22  32
ATOM     31  C   UNL     1      48.046  10.858  12.565  0.00  0.00    +0.000 C 
ATOM     32  O   UNL     1      48.691   9.680  12.088  0.00  0.00    +0.000 OA
ENDBRANCH  22  32
ENDBRANCH  18  29
ENDBRANCH   1  20
TORSDOF 8
ENDMDL
MODEL 9
REMARK VINA RESULT:    -6.547      3.511      5.751
REMARK INTER + INTRA:         -10.659
REMARK INTER:                  -9.385
REMARK INTRA:                  -1.274
REMARK UNBOUND:                -1.051
REMARK  Name = 
REMARK  9 active torsions:
REMARK  status: ('A' for Active; 'I' for Inactive)
REMARK    1  A    between atoms: C_1  and  O_2
REMARK    2  A    between atoms: O_2  and  C_3
REMARK    3  A    between atoms: C_10  and  C_11
REMARK    4  A    between atoms: N_13  and  C_14
REMARK    5  A    between atoms: C_14  and  C_15
REMARK    6  A    between atoms: C_18  and  C_19
REMARK    7  A    between atoms: C_19  and  N_20
REMARK    8  A    between atoms: N_20  and  C_21
REMARK    9  A    between atoms: C_21  and  C_22
REMARK                            x       y       z     vdW  Elec       q    Type
REMARK                         _______ _______ _______ _____ _____    ______ ____
ROOT
ATOM      1  C   UNL     1      48.087   3.285  17.807  0.00  0.00    +0.000 C 
ENDROOT
BRANCH   1   2
ATOM      2  C   UNL     1      47.909   4.183  16.608  0.00  0.00    +0.000 A 
ATOM      3  C   UNL     1      47.157   3.762  15.502  0.00  0.00    +0.000 A 
ATOM      4  C   UNL     1      46.998   4.597  14.390  0.00  0.00    +0.000 A 
ATOM      5  C   UNL     1      47.590   5.869  14.353  0.00  0.00    +0.000 A 
ATOM      6  C   UNL     1      48.366   6.274  15.446  0.00  0.00    +0.000 A 
ATOM      7  C   UNL     1      48.529   5.439  16.558  0.00  0.00    +0.000 A 
BRANCH   5   8
ATOM      8  C   UNL     1      47.407   6.774  13.152  0.00  0.00    +0.000 C 
BRANCH   8   9
ATOM      9  N   UNL     1      46.239   7.634  13.310  0.00  0.00    +0.000 NA
ATOM     10  H   UNL     1      46.536   8.609  13.376  0.00  0.00    +0.000 HD
BRANCH   9  11
ATOM     11  C   UNL     1      45.324   7.526  12.158  0.00  0.00    +0.000 C 
BRANCH  11  12
ATOM     12  C   UNL     1      44.653   6.161  12.064  0.00  0.00    +0.000 A 
ATOM     13  N   UNL     1      43.857   5.783  13.091  0.00  0.00    +0.000 NA
ATOM     14  C   UNL     1      43.302   4.560  12.998  0.00  0.00    +0.000 A 
ATOM     15  C   UNL     1      43.496   3.714  11.932  0.00  0.00    +0.000 A 
ATOM     16  C   UNL     1      44.306   4.197  10.933  0.00  0.00    +0.000 A 
ATOM     17  N   UNL     1      44.891   5.410  10.967  0.00  0.00    +0.000 NA
ENDBRANCH  11  12
ENDBRANCH   9  11
ENDBRANCH   8   9
ENDBRANCH   5   8
ENDBRANCH   1   2
BRANCH   1  20
ATOM     18  C   UNL     1      50.236   2.231  17.221  0.00  0.00    +0.000 C 
ATOM     19  O   UNL     1      49.750   1.698  16.225  0.00  0.00    +0.000 OA
ATOM     20  N   UNL     1      49.482   3.013  18.047  0.00  0.00    +0.000 N 
ATOM     21  H   UNL     1      49.881   3.378  18.902  0.00  0.00    +0.000 HD
BRANCH  18  29
ATOM     22  C   UNL     1      52.738   4.428  18.099  0.00  0.00    +0.000 A 
ATOM     23  N   UNL     1      53.887   5.056  18.423  0.00  0.00    +0.000 NA
ATOM     24  C   UNL     1      54.988   4.314  18.569  0.00  0.00    +0.000 A 
ATOM     25  N   UNL     1      55.088   2.994  18.439  0.00  0.00    +0.000 NA
ATOM     26  C   UNL     1      53.920   2.408  18.120  0.00  0.00    +0.000 A 
ATOM     27  S   UNL     1      53.857   0.723  17.919  0.00  0.00    +0.000 S 
ATOM     28  C   UNL     1      52.199   0.776  17.550  0.00  0.00    +0.000 A 
ATOM     29  C   UNL     1      51.659   2.058  17.568  0.00  0.00    +0.000 A 
ATOM     30  C   UNL     1      52.692   3.033  17.926  0.00  0.00    +0.000 A 
BRANCH  22  32
ATOM     31  C   UNL     1      51.843   6.547  17.670  0.00  0.00    +0.000 C 
ATOM     32  O   UNL     1      51.590   5.187  18.009  0.00  0.00    +0.000 OA
ENDBRANCH  22  32
ENDBRANCH  18  29
ENDBRANCH   1  20
TORSDOF 8
ENDMDL
