MODEL 1
REMARK VINA RESULT:    -8.062      0.000      0.000
REMARK INTER + INTRA:         -12.667
REMARK INTER:                 -11.832
REMARK INTRA:                  -0.835
REMARK UNBOUND:                -0.835
REMARK  Name = 
REMARK  9 active torsions:
REMARK  status: ('A' for Active; 'I' for Inactive)
REMARK    1  A    between atoms: C_1  and  C_2
REMARK    2  A    between atoms: C_2  and  C_3
REMARK    3  A    between atoms: C_3  and  N_4
REMARK    4  A    between atoms: C_3  and  C_26
REMARK    5  A    between atoms: N_4  and  C_5
REMARK    6  A    between atoms: C_5  and  C_6
REMARK    7  A    between atoms: C_9  and  C_10
REMARK    8  A    between atoms: C_10  and  N_11
REMARK    9  A    between atoms: C_12  and  C_14
REMARK                            x       y       z     vdW  Elec       q    Type
REMARK                         _______ _______ _______ _____ _____    ______ ____
ROOT
ATOM      1  C   UNL     1      44.374   6.674  11.640  0.00  0.00    +0.000 A 
ATOM      2  C   UNL     1      45.164   5.935  12.517  0.00  0.00    +0.000 A 
ATOM      3  C   UNL     1      46.204   6.574  13.188  0.00  0.00    +0.000 A 
ATOM      4  C   UNL     1      46.423   7.938  12.984  0.00  0.00    +0.000 A 
ATOM      5  C   UNL     1      45.601   8.587  12.072  0.00  0.00    +0.000 A 
ATOM      6  N   UNL     1      44.585   7.994  11.410  0.00  0.00    +0.000 NA
ENDROOT
BRANCH   1   7
ATOM      7  C   UNL     1      43.151   6.040  11.009  0.00  0.00    +0.000 C 
BRANCH   7   8
ATOM      8  N   UNL     1      43.445   5.118   9.901  0.00  0.00    +0.000 NA
ATOM      9  H   UNL     1      43.947   5.637   9.177  0.00  0.00    +0.000 HD
BRANCH   8  10
ATOM     10  C   UNL     1      44.297   3.990  10.338  0.00  0.00    +0.000 C 
BRANCH  10  11
ATOM     11  C   UNL     1      45.157   3.461   9.188  0.00  0.00    +0.000 A 
ATOM     12  C   UNL     1      45.417   2.097   9.044  0.00  0.00    +0.000 A 
ATOM     13  C   UNL     1      46.260   1.672   8.018  0.00  0.00    +0.000 A 
ATOM     14  C   UNL     1      46.818   2.612   7.162  0.00  0.00    +0.000 A 
ATOM     15  C   UNL     1      46.509   3.945   7.367  0.00  0.00    +0.000 A 
ATOM     16  N   UNL     1      45.694   4.388   8.350  0.00  0.00    +0.000 NA
ENDBRANCH  10  11
BRANCH  10  18
ATOM     17  C   UNL     1      43.648   2.744  12.483  0.00  0.00    +0.000 C 
ATOM     18  C   UNL     1      43.468   2.849  10.976  0.00  0.00    +0.000 C 
ENDBRANCH  10  18
ENDBRANCH   8  10
ENDBRANCH   7   8
ENDBRANCH   1   7
BRANCH   4  19
ATOM     19  C   UNL     1      47.524   8.679  13.675  0.00  0.00    +0.000 C 
BRANCH  19  20
ATOM     20  N   UNL     1      47.845   8.061  14.934  0.00  0.00    +0.000 N 
ATOM     21  C   UNL     1      48.903   7.199  15.051  0.00  0.00    +0.000 C 
ATOM     22  O   UNL     1      49.654   6.954  14.112  0.00  0.00    +0.000 OA
ATOM     23  H   UNL     1      47.119   8.051  15.643  0.00  0.00    +0.000 HD
BRANCH  21  24
ATOM     24  C   UNL     1      49.130   6.634  16.387  0.00  0.00    +0.000 A 
ATOM     25  C   UNL     1      49.835   7.365  17.333  0.00  0.00    +0.000 A 
ATOM     26  S   UNL     1      49.966   6.580  18.841  0.00  0.00    +0.000 S 
ATOM     27  C   UNL     1      49.131   5.215  18.266  0.00  0.00    +0.000 A 
ATOM     28  N   UNL     1      48.918   4.136  19.069  0.00  0.00    +0.000 NA
ATOM     29  C   UNL     1      48.294   3.161  18.494  0.00  0.00    +0.000 A 
ATOM     30  N   UNL     1      47.857   3.170  17.194  0.00  0.00    +0.000 N 
ATOM     31  C   UNL     1      48.020   4.247  16.363  0.00  0.00    +0.000 A 
ATOM     32  O   UNL     1      47.568   4.250  15.219  0.00  0.00    +0.000 OA
ATOM     33  C   UNL     1      48.733   5.366  16.949  0.00  0.00    +0.000 A 
ATOM     34  H   UNL     1      47.360   2.378  16.811  0.00  0.00    +0.000 HD
ENDBRANCH  21  24
ENDBRANCH  19  20
ENDBRANCH   4  19
TORSDOF 8
ENDMDL
MODEL 2
REMARK VINA RESULT:    -7.916      2.644      3.463
REMARK INTER + INTRA:         -12.453
REMARK INTER:                 -11.456
REMARK INTRA:                  -0.997
REMARK UNBOUND:                -0.835
REMARK  Name = 
REMARK  9 active torsions:
REMARK  status: ('A' for Active; 'I' for Inactive)
REMARK    1  A    between atoms: C_1  and  C_2
REMARK    2  A    between atoms: C_2  and  C_3
REMARK    3  A    between atoms: C_3  and  N_4
REMARK    4  A    between atoms: C_3  and  C_26
REMARK    5  A    between atoms: N_4  and  C_5
REMARK    6  A    between atoms: C_5  and  C_6
REMARK    7  A    between atoms: C_9  and  C_10
REMARK    8  A    between atoms: C_10  and  N_11
REMARK    9  A    between atoms: C_12  and  C_14
REMARK                            x       y       z     vdW  Elec       q    Type
REMARK                         _______ _______ _______ _____ _____    ______ ____
ROOT
ATOM      1  C   UNL     1      46.361   4.224  13.267  0.00  0.00    +0.000 A 
ATOM      2  C   UNL     1      46.950   5.384  12.769  0.00  0.00    +0.000 A 
ATOM      3  C   UNL     1      47.721   6.168  13.624  0.00  0.00    +0.000 A 
ATOM      4  C   UNL     1      47.902   5.771  14.950  0.00  0.00    +0.000 A 
ATOM      5  C   UNL     1      47.257   4.614  15.364  0.00  0.00    +0.000 A 
ATOM      6  N   UNL     1      46.507   3.834  14.557  0.00  0.00    +0.000 NA
ENDROOT
BRANCH   1   7
ATOM      7  C   UNL     1      45.640   3.279  12.327  0.00  0.00    +0.000 C 
BRANCH   7   8
ATOM      8  N   UNL     1      44.176   3.427  12.320  0.00  0.00    +0.000 NA
ATOM      9  H   UNL     1      43.920   4.111  13.035  0.00  0.00    +0.000 HD
BRANCH   8  10
ATOM     10  C   UNL     1      43.681   3.914  11.014  0.00  0.00    +0.000 C 
BRANCH  10  11
ATOM     11  C   UNL     1      44.598   3.477   9.870  0.00  0.00    +0.000 A 
ATOM     12  C   UNL     1      45.250   4.412   9.064  0.00  0.00    +0.000 A 
ATOM     13  C   UNL     1      46.023   3.964   7.994  0.00  0.00    +0.000 A 
ATOM     14  C   UNL     1      46.131   2.601   7.756  0.00  0.00    +0.000 A 
ATOM     15  C   UNL     1      45.459   1.736   8.602  0.00  0.00    +0.000 A 
ATOM     16  N   UNL     1      44.705   2.139   9.649  0.00  0.00    +0.000 NA
ENDBRANCH  10  11
BRANCH  10  18
ATOM     17  C   UNL     1      42.249   5.901  11.773  0.00  0.00    +0.000 C 
ATOM     18  C   UNL     1      43.482   5.449  11.004  0.00  0.00    +0.000 C 
ENDBRANCH  10  18
ENDBRANCH   8  10
ENDBRANCH   7   8
ENDBRANCH   1   7
BRANCH   4  19
ATOM     19  C   UNL     1      48.718   6.573  15.915  0.00  0.00    +0.000 C 
BRANCH  19  20
ATOM     20  N   UNL     1      49.814   5.795  16.429  0.00  0.00    +0.000 N 
ATOM     21  C   UNL     1      49.896   5.479  17.760  0.00  0.00    +0.000 C 
ATOM     22  O   UNL     1      49.022   5.793  18.562  0.00  0.00    +0.000 OA
ATOM     23  H   UNL     1      50.649   5.736  15.855  0.00  0.00    +0.000 HD
BRANCH  21  24
ATOM     24  C   UNL     1      51.060   4.680  18.162  0.00  0.00    +0.000 A 
ATOM     25  C   UNL     1      52.078   5.269  18.899  0.00  0.00    +0.000 A 
ATOM     26  S   UNL     1      53.328   4.188  19.318  0.00  0.00    +0.000 S 
ATOM     27  C   UNL     1      52.578   2.909  18.486  0.00  0.00    +0.000 A 
ATOM     28  N   UNL     1      53.156   1.677  18.429  0.00  0.00    +0.000 NA
ATOM     29  C   UNL     1      52.489   0.809  17.742  0.00  0.00    +0.000 A 
ATOM     30  N   UNL     1      51.295   1.057  17.116  0.00  0.00    +0.000 N 
ATOM     31  C   UNL     1      50.662   2.271  17.175  0.00  0.00    +0.000 A 
ATOM     32  O   UNL     1      49.564   2.451  16.652  0.00  0.00    +0.000 OA
ATOM     33  C   UNL     1      51.376   3.294  17.918  0.00  0.00    +0.000 A 
ATOM     34  H   UNL     1      50.817   0.327  16.607  0.00  0.00    +0.000 HD
ENDBRANCH  21  24
ENDBRANCH  19  20
ENDBRANCH   4  19
TORSDOF 8
ENDMDL
MODEL 3
REMARK VINA RESULT:    -7.430      2.905      8.177
REMARK INTER + INTRA:         -11.740
REMARK INTER:                 -10.266
REMARK INTRA:                  -1.474
REMARK UNBOUND:                -0.835
REMARK  Name = 
REMARK  9 active torsions:
REMARK  status: ('A' for Active; 'I' for Inactive)
REMARK    1  A    between atoms: C_1  and  C_2
REMARK    2  A    between atoms: C_2  and  C_3
REMARK    3  A    between atoms: C_3  and  N_4
REMARK    4  A    between atoms: C_3  and  C_26
REMARK    5  A    between atoms: N_4  and  C_5
REMARK    6  A    between atoms: C_5  and  C_6
REMARK    7  A    between atoms: C_9  and  C_10
REMARK    8  A    between atoms: C_10  and  N_11
REMARK    9  A    between atoms: C_12  and  C_14
REMARK                            x       y       z     vdW  Elec       q    Type
REMARK                         _______ _______ _______ _____ _____    ______ ____
ROOT
ATOM      1  C   UNL     1      48.798   7.810  15.940  0.00  0.00    +0.000 A 
ATOM      2  C   UNL     1      48.311   8.988  15.377  0.00  0.00    +0.000 A 
ATOM      3  C   UNL     1      47.878   8.972  14.053  0.00  0.00    +0.000 A 
ATOM      4  C   UNL     1      47.924   7.782  13.325  0.00  0.00    +0.000 A 
ATOM      5  C   UNL     1      48.449   6.664  13.961  0.00  0.00    +0.000 A 
ATOM      6  N   UNL     1      48.872   6.650  15.242  0.00  0.00    +0.000 NA
ENDROOT
BRANCH   1   7
ATOM      7  C   UNL     1      49.139   7.763  17.416  0.00  0.00    +0.000 C 
BRANCH   7   8
ATOM      8  N   UNL     1      48.178   7.012  18.239  0.00  0.00    +0.000 NA
ATOM      9  H   UNL     1      47.477   6.602  17.619  0.00  0.00    +0.000 HD
BRANCH   8  10
ATOM     10  C   UNL     1      48.835   5.916  18.985  0.00  0.00    +0.000 C 
BRANCH  10  11
ATOM     11  C   UNL     1      48.822   4.612  18.186  0.00  0.00    +0.000 A 
ATOM     12  C   UNL     1      49.941   3.778  18.139  0.00  0.00    +0.000 A 
ATOM     13  C   UNL     1      49.901   2.633  17.344  0.00  0.00    +0.000 A 
ATOM     14  C   UNL     1      48.752   2.346  16.620  0.00  0.00    +0.000 A 
ATOM     15  C   UNL     1      47.683   3.219  16.722  0.00  0.00    +0.000 A 
ATOM     16  N   UNL     1      47.689   4.334  17.486  0.00  0.00    +0.000 NA
ENDBRANCH  10  11
BRANCH  10  18
ATOM     17  C   UNL     1      47.420   6.915  20.875  0.00  0.00    +0.000 C 
ATOM     18  C   UNL     1      48.209   5.710  20.386  0.00  0.00    +0.000 C 
ENDBRANCH  10  18
ENDBRANCH   8  10
ENDBRANCH   7   8
ENDBRANCH   1   7
BRANCH   4  19
ATOM     19  C   UNL     1      47.475   7.704  11.899  0.00  0.00    +0.000 C 
BRANCH  19  20
ATOM     20  N   UNL     1      46.789   6.464  11.646  0.00  0.00    +0.000 N 
ATOM     21  C   UNL     1      45.421   6.394  11.670  0.00  0.00    +0.000 C 
ATOM     22  O   UNL     1      44.718   7.383  11.854  0.00  0.00    +0.000 OA
ATOM     23  H   UNL     1      47.330   5.610  11.735  0.00  0.00    +0.000 HD
BRANCH  21  24
ATOM     24  C   UNL     1      44.839   5.075  11.395  0.00  0.00    +0.000 A 
ATOM     25  C   UNL     1      44.086   4.438  12.372  0.00  0.00    +0.000 A 
ATOM     26  S   UNL     1      43.448   2.938  11.869  0.00  0.00    +0.000 S 
ATOM     27  C   UNL     1      44.200   3.064  10.349  0.00  0.00    +0.000 A 
ATOM     28  N   UNL     1      44.075   2.074   9.423  0.00  0.00    +0.000 NA
ATOM     29  C   UNL     1      44.720   2.290   8.324  0.00  0.00    +0.000 A 
ATOM     30  N   UNL     1      45.468   3.410   8.063  0.00  0.00    +0.000 N 
ATOM     31  C   UNL     1      45.593   4.444   8.953  0.00  0.00    +0.000 A 
ATOM     32  O   UNL     1      46.223   5.461   8.672  0.00  0.00    +0.000 OA
ATOM     33  C   UNL     1      44.905   4.247  10.216  0.00  0.00    +0.000 A 
ATOM     34  H   UNL     1      45.935   3.523   7.175  0.00  0.00    +0.000 HD
ENDBRANCH  21  24
ENDBRANCH  19  20
ENDBRANCH   4  19
TORSDOF 8
ENDMDL
MODEL 4
REMARK VINA RESULT:    -6.387      5.054      8.254
REMARK INTER + INTRA:         -10.209
REMARK INTER:                  -8.889
REMARK INTRA:                  -1.321
REMARK UNBOUND:                -0.835
REMARK  Name = 
REMARK  9 active torsions:
REMARK  status: ('A' for Active; 'I' for Inactive)
REMARK    1  A    between atoms: C_1  and  C_2
REMARK    2  A    between atoms: C_2  and  C_3
REMARK    3  A    between atoms: C_3  and  N_4
REMARK    4  A    between atoms: C_3  and  C_26
REMARK    5  A    between atoms: N_4  and  C_5
REMARK    6  A    between atoms: C_5  and  C_6
REMARK    7  A    between atoms: C_9  and  C_10
REMARK    8  A    between atoms: C_10  and  N_11
REMARK    9  A    between atoms: C_12  and  C_14
REMARK                            x       y       z     vdW  Elec       q    Type
REMARK                         _______ _______ _______ _____ _____    ______ ____
ROOT
ATOM      1  C   UNL     1      50.522   8.554  12.620  0.00  0.00    +0.000 A 
ATOM      2  C   UNL     1      50.053   7.750  11.584  0.00  0.00    +0.000 A 
ATOM      3  C   UNL     1      48.678   7.603  11.416  0.00  0.00    +0.000 A 
ATOM      4  C   UNL     1      47.801   8.273  12.272  0.00  0.00    +0.000 A 
ATOM      5  C   UNL     1      48.360   9.032  13.292  0.00  0.00    +0.000 A 
ATOM      6  N   UNL     1      49.687   9.195  13.476  0.00  0.00    +0.000 NA
ENDROOT
BRANCH   1   7
ATOM      7  C   UNL     1      52.004   8.847  12.737  0.00  0.00    +0.000 C 
BRANCH   7   8
ATOM      8  N   UNL     1      52.872   7.891  12.032  0.00  0.00    +0.000 NA
ATOM      9  H   UNL     1      52.276   7.231  11.527  0.00  0.00    +0.000 HD
BRANCH   8  10
ATOM     10  C   UNL     1      53.751   8.566  11.053  0.00  0.00    +0.000 C 
BRANCH  10  11
ATOM     11  C   UNL     1      53.345   8.232   9.616  0.00  0.00    +0.000 A 
ATOM     12  C   UNL     1      52.732   7.019   9.297  0.00  0.00    +0.000 A 
ATOM     13  C   UNL     1      52.442   6.736   7.963  0.00  0.00    +0.000 A 
ATOM     14  C   UNL     1      52.765   7.664   6.983  0.00  0.00    +0.000 A 
ATOM     15  C   UNL     1      53.368   8.846   7.379  0.00  0.00    +0.000 A 
ATOM     16  N   UNL     1      53.659   9.151   8.663  0.00  0.00    +0.000 NA
ENDBRANCH  10  11
BRANCH  10  18
ATOM     17  C   UNL     1      55.481   7.363  12.513  0.00  0.00    +0.000 C 
ATOM     18  C   UNL     1      55.245   8.241  11.293  0.00  0.00    +0.000 C 
ENDBRANCH  10  18
ENDBRANCH   8  10
ENDBRANCH   7   8
ENDBRANCH   1   7
BRANCH   4  19
ATOM     19  C   UNL     1      46.315   8.152  12.141  0.00  0.00    +0.000 C 
BRANCH  19  20
ATOM     20  N   UNL     1      45.935   6.794  11.856  0.00  0.00    +0.000 N 
ATOM     21  C   UNL     1      44.652   6.480  11.490  0.00  0.00    +0.000 C 
ATOM     22  O   UNL     1      43.787   7.336  11.336  0.00  0.00    +0.000 OA
ATOM     23  H   UNL     1      46.543   6.060  12.204  0.00  0.00    +0.000 HD
BRANCH  21  24
ATOM     24  C   UNL     1      44.388   5.061  11.223  0.00  0.00    +0.000 A 
ATOM     25  C   UNL     1      43.617   4.326  12.113  0.00  0.00    +0.000 A 
ATOM     26  S   UNL     1      43.372   2.710  11.627  0.00  0.00    +0.000 S 
ATOM     27  C   UNL     1      44.331   2.922  10.240  0.00  0.00    +0.000 A 
ATOM     28  N   UNL     1      44.556   1.890   9.380  0.00  0.00    +0.000 NA
ATOM     29  C   UNL     1      45.323   2.187   8.383  0.00  0.00    +0.000 A 
ATOM     30  N   UNL     1      45.877   3.422   8.162  0.00  0.00    +0.000 N 
ATOM     31  C   UNL     1      45.649   4.496   8.983  0.00  0.00    +0.000 A 
ATOM     32  O   UNL     1      46.112   5.606   8.730  0.00  0.00    +0.000 OA
ATOM     33  C   UNL     1      44.809   4.216  10.132  0.00  0.00    +0.000 A 
ATOM     34  H   UNL     1      46.456   3.591   7.352  0.00  0.00    +0.000 HD
ENDBRANCH  21  24
ENDBRANCH  19  20
ENDBRANCH   4  19
TORSDOF 8
ENDMDL
MODEL 5
REMARK VINA RESULT:    -6.095      1.545      2.040
REMARK INTER + INTRA:          -9.781
REMARK INTER:                  -8.898
REMARK INTRA:                  -0.883
REMARK UNBOUND:                -0.835
REMARK  Name = 
REMARK  9 active torsions:
REMARK  status: ('A' for Active; 'I' for Inactive)
REMARK    1  A    between atoms: C_1  and  C_2
REMARK    2  A    between atoms: C_2  and  C_3
REMARK    3  A    between atoms: C_3  and  N_4
REMARK    4  A    between atoms: C_3  and  C_26
REMARK    5  A    between atoms: N_4  and  C_5
REMARK    6  A    between atoms: C_5  and  C_6
REMARK    7  A    between atoms: C_9  and  C_10
REMARK    8  A    between atoms: C_10  and  N_11
REMARK    9  A    between atoms: C_12  and  C_14
REMARK                            x       y       z     vdW  Elec       q    Type
REMARK                         _______ _______ _______ _____ _____    ______ ____
ROOT
ATOM      1  C   UNL     1      44.817   5.681  10.956  0.00  0.00    +0.000 A 
ATOM      2  C   UNL     1      46.013   6.219  10.487  0.00  0.00    +0.000 A 
ATOM      3  C   UNL     1      46.813   6.948  11.364  0.00  0.00    +0.000 A 
ATOM      4  C   UNL     1      46.413   7.109  12.692  0.00  0.00    +0.000 A 
ATOM      5  C   UNL     1      45.193   6.559  13.063  0.00  0.00    +0.000 A 
ATOM      6  N   UNL     1      44.400   5.847  12.236  0.00  0.00    +0.000 NA
ENDROOT
BRANCH   1   7
ATOM      7  C   UNL     1      44.000   4.766  10.066  0.00  0.00    +0.000 C 
BRANCH   7   8
ATOM      8  N   UNL     1      44.671   4.373   8.817  0.00  0.00    +0.000 NA
ATOM      9  H   UNL     1      45.152   5.193   8.440  0.00  0.00    +0.000 HD
BRANCH   8  10
ATOM     10  C   UNL     1      45.676   3.311   9.046  0.00  0.00    +0.000 C 
BRANCH  10  11
ATOM     11  C   UNL     1      46.390   2.930   7.747  0.00  0.00    +0.000 A 
ATOM     12  C   UNL     1      46.251   3.697   6.590  0.00  0.00    +0.000 A 
ATOM     13  C   UNL     1      46.870   3.271   5.415  0.00  0.00    +0.000 A 
ATOM     14  C   UNL     1      47.610   2.097   5.422  0.00  0.00    +0.000 A 
ATOM     15  C   UNL     1      47.704   1.393   6.610  0.00  0.00    +0.000 A 
ATOM     16  N   UNL     1      47.120   1.782   7.766  0.00  0.00    +0.000 NA
ENDBRANCH  10  11
BRANCH  10  18
ATOM     17  C   UNL     1      44.095   1.306   8.821  0.00  0.00    +0.000 C 
ATOM     18  C   UNL     1      45.058   2.063   9.722  0.00  0.00    +0.000 C 
ENDBRANCH  10  18
ENDBRANCH   8  10
ENDBRANCH   7   8
ENDBRANCH   1   7
BRANCH   4  19
ATOM     19  C   UNL     1      47.229   7.882  13.680  0.00  0.00    +0.000 C 
BRANCH  19  20
ATOM     20  N   UNL     1      48.112   7.010  14.409  0.00  0.00    +0.000 N 
ATOM     21  C   UNL     1      48.651   7.390  15.610  0.00  0.00    +0.000 C 
ATOM     22  O   UNL     1      48.370   8.458  16.145  0.00  0.00    +0.000 OA
ATOM     23  H   UNL     1      48.545   6.252  13.891  0.00  0.00    +0.000 HD
BRANCH  21  24
ATOM     24  C   UNL     1      49.536   6.414  16.256  0.00  0.00    +0.000 A 
ATOM     25  C   UNL     1      50.842   6.768  16.567  0.00  0.00    +0.000 A 
ATOM     26  S   UNL     1      51.714   5.532  17.354  0.00  0.00    +0.000 S 
ATOM     27  C   UNL     1      50.394   4.464  17.260  0.00  0.00    +0.000 A 
ATOM     28  N   UNL     1      50.487   3.193  17.740  0.00  0.00    +0.000 NA
ATOM     29  C   UNL     1      49.418   2.484  17.578  0.00  0.00    +0.000 A 
ATOM     30  N   UNL     1      48.264   2.933  16.990  0.00  0.00    +0.000 N 
ATOM     31  C   UNL     1      48.116   4.213  16.523  0.00  0.00    +0.000 A 
ATOM     32  O   UNL     1      47.051   4.606  16.051  0.00  0.00    +0.000 OA
ATOM     33  C   UNL     1      49.293   5.051  16.660  0.00  0.00    +0.000 A 
ATOM     34  H   UNL     1      47.457   2.331  16.909  0.00  0.00    +0.000 HD
ENDBRANCH  21  24
ENDBRANCH  19  20
ENDBRANCH   4  19
TORSDOF 8
ENDMDL
MODEL 6
REMARK VINA RESULT:    -6.086      2.973      4.495
REMARK INTER + INTRA:          -9.768
REMARK INTER:                  -9.132
REMARK INTRA:                  -0.635
REMARK UNBOUND:                -0.835
REMARK  Name = 
REMARK  9 active torsions:
REMARK  status: ('A' for Active; 'I' for Inactive)
REMARK    1  A    between atoms: C_1  and  C_2
REMARK    2  A    between atoms: C_2  and  C_3
REMARK    3  A    between atoms: C_3  and  N_4
REMARK    4  A    between atoms: C_3  and  C_26
REMARK    5  A    between atoms: N_4  and  C_5
REMARK    6  A    between atoms: C_5  and  C_6
REMARK    7  A    between atoms: C_9  and  C_10
REMARK    8  A    between atoms: C_10  and  N_11
REMARK    9  A    between atoms: C_12  and  C_14
REMARK                            x       y       z     vdW  Elec       q    Type
REMARK                         _______ _______ _______ _____ _____    ______ ____
ROOT
ATOM      1  C   UNL     1      46.692   4.167  13.633  0.00  0.00    +0.000 A 
ATOM      2  C   UNL     1      47.017   5.491  13.918  0.00  0.00    +0.000 A 
ATOM      3  C   UNL     1      47.735   5.774  15.077  0.00  0.00    +0.000 A 
ATOM      4  C   UNL     1      48.129   4.731  15.917  0.00  0.00    +0.000 A 
ATOM      5  C   UNL     1      47.738   3.446  15.566  0.00  0.00    +0.000 A 
ATOM      6  N   UNL     1      47.045   3.143  14.448  0.00  0.00    +0.000 NA
ENDROOT
BRANCH   1   7
ATOM      7  C   UNL     1      46.040   3.817  12.310  0.00  0.00    +0.000 C 
BRANCH   7   8
ATOM      8  N   UNL     1      44.879   2.920  12.422  0.00  0.00    +0.000 NA
ATOM      9  H   UNL     1      44.377   3.152  13.282  0.00  0.00    +0.000 HD
BRANCH   8  10
ATOM     10  C   UNL     1      43.949   3.083  11.283  0.00  0.00    +0.000 C 
BRANCH  10  11
ATOM     11  C   UNL     1      44.705   3.199   9.958  0.00  0.00    +0.000 A 
ATOM     12  C   UNL     1      45.148   2.066   9.273  0.00  0.00    +0.000 A 
ATOM     13  C   UNL     1      45.889   2.228   8.103  0.00  0.00    +0.000 A 
ATOM     14  C   UNL     1      46.167   3.508   7.644  0.00  0.00    +0.000 A 
ATOM     15  C   UNL     1      45.689   4.581   8.376  0.00  0.00    +0.000 A 
ATOM     16  N   UNL     1      44.966   4.457   9.511  0.00  0.00    +0.000 NA
ENDBRANCH  10  11
BRANCH  10  18
ATOM     17  C   UNL     1      43.010   4.841  12.896  0.00  0.00    +0.000 C 
ATOM     18  C   UNL     1      42.994   4.286  11.480  0.00  0.00    +0.000 C 
ENDBRANCH  10  18
ENDBRANCH   8  10
ENDBRANCH   7   8
ENDBRANCH   1   7
BRANCH   4  19
ATOM     19  C   UNL     1      48.900   4.972  17.177  0.00  0.00    +0.000 C 
BRANCH  19  20
ATOM     20  N   UNL     1      48.869   6.365  17.537  0.00  0.00    +0.000 N 
ATOM     21  C   UNL     1      48.269   6.784  18.696  0.00  0.00    +0.000 C 
ATOM     22  O   UNL     1      47.780   5.997  19.501  0.00  0.00    +0.000 OA
ATOM     23  H   UNL     1      49.039   7.039  16.797  0.00  0.00    +0.000 HD
BRANCH  21  24
ATOM     24  C   UNL     1      48.303   8.229  18.953  0.00  0.00    +0.000 A 
ATOM     25  C   UNL     1      47.115   8.929  19.107  0.00  0.00    +0.000 A 
ATOM     26  S   UNL     1      47.339  10.585  19.445  0.00  0.00    +0.000 S 
ATOM     27  C   UNL     1      49.030  10.434  19.346  0.00  0.00    +0.000 A 
ATOM     28  N   UNL     1      49.840  11.515  19.514  0.00  0.00    +0.000 NA
ATOM     29  C   UNL     1      51.101  11.260  19.386  0.00  0.00    +0.000 A 
ATOM     30  N   UNL     1      51.624  10.022  19.115  0.00  0.00    +0.000 N 
ATOM     31  C   UNL     1      50.848   8.902  18.971  0.00  0.00    +0.000 A 
ATOM     32  O   UNL     1      51.347   7.794  18.785  0.00  0.00    +0.000 OA
ATOM     33  C   UNL     1      49.420   9.132  19.085  0.00  0.00    +0.000 A 
ATOM     34  H   UNL     1      52.623   9.888  19.043  0.00  0.00    +0.000 HD
ENDBRANCH  21  24
ENDBRANCH  19  20
ENDBRANCH   4  19
TORSDOF 8
ENDMDL
MODEL 7
REMARK VINA RESULT:    -5.924      3.557      4.646
REMARK INTER + INTRA:          -9.530
REMARK INTER:                  -8.621
REMARK INTRA:                  -0.909
REMARK UNBOUND:                -0.835
REMARK  Name = 
REMARK  9 active torsions:
REMARK  status: ('A' for Active; 'I' for Inactive)
REMARK    1  A    between atoms: C_1  and  C_2
REMARK    2  A    between atoms: C_2  and  C_3
REMARK    3  A    between atoms: C_3  and  N_4
REMARK    4  A    between atoms: C_3  and  C_26
REMARK    5  A    between atoms: N_4  and  C_5
REMARK    6  A    between atoms: C_5  and  C_6
REMARK    7  A    between atoms: C_9  and  C_10
REMARK    8  A    between atoms: C_10  and  N_11
REMARK    9  A    between atoms: C_12  and  C_14
REMARK                            x       y       z     vdW  Elec       q    Type
REMARK                         _______ _______ _______ _____ _____    ______ ____
ROOT
ATOM      1  C   UNL     1      45.647   6.801  11.524  0.00  0.00    +0.000 A 
ATOM      2  C   UNL     1      47.024   6.618  11.421  0.00  0.00    +0.000 A 
ATOM      3  C   UNL     1      47.865   7.367  12.240  0.00  0.00    +0.000 A 
ATOM      4  C   UNL     1      47.317   8.269  13.154  0.00  0.00    +0.000 A 
ATOM      5  C   UNL     1      45.934   8.403  13.168  0.00  0.00    +0.000 A 
ATOM      6  N   UNL     1      45.095   7.688  12.389  0.00  0.00    +0.000 NA
ENDROOT
BRANCH   1   7
ATOM      7  C   UNL     1      44.705   5.899  10.751  0.00  0.00    +0.000 C 
BRANCH   7   8
ATOM      8  N   UNL     1      45.299   5.280   9.555  0.00  0.00    +0.000 NA
ATOM      9  H   UNL     1      46.270   5.591   9.483  0.00  0.00    +0.000 HD
BRANCH   8  10
ATOM     10  C   UNL     1      45.290   3.803   9.641  0.00  0.00    +0.000 C 
BRANCH  10  11
ATOM     11  C   UNL     1      45.888   3.168   8.384  0.00  0.00    +0.000 A 
ATOM     12  C   UNL     1      46.205   1.809   8.338  0.00  0.00    +0.000 A 
ATOM     13  C   UNL     1      46.809   1.292   7.193  0.00  0.00    +0.000 A 
ATOM     14  C   UNL     1      47.079   2.136   6.125  0.00  0.00    +0.000 A 
ATOM     15  C   UNL     1      46.732   3.470   6.245  0.00  0.00    +0.000 A 
ATOM     16  N   UNL     1      46.143   4.001   7.339  0.00  0.00    +0.000 NA
ENDBRANCH  10  11
BRANCH  10  18
ATOM     17  C   UNL     1      43.696   2.726  11.336  0.00  0.00    +0.000 C 
ATOM     18  C   UNL     1      43.872   3.246   9.917  0.00  0.00    +0.000 C 
ENDBRANCH  10  18
ENDBRANCH   8  10
ENDBRANCH   7   8
ENDBRANCH   1   7
BRANCH   4  19
ATOM     19  C   UNL     1      48.169   9.102  14.059  0.00  0.00    +0.000 C 
BRANCH  19  20
ATOM     20  N   UNL     1      49.536   8.654  14.030  0.00  0.00    +0.000 N 
ATOM     21  C   UNL     1      50.558   9.516  13.728  0.00  0.00    +0.000 C 
ATOM     22  O   UNL     1      50.367  10.710  13.522  0.00  0.00    +0.000 OA
ATOM     23  H   UNL     1      49.694   7.654  13.953  0.00  0.00    +0.000 HD
BRANCH  21  24
ATOM     24  C   UNL     1      51.909   8.940  13.731  0.00  0.00    +0.000 A 
ATOM     25  C   UNL     1      52.579   8.766  14.934  0.00  0.00    +0.000 A 
ATOM     26  S   UNL     1      54.114   8.045  14.759  0.00  0.00    +0.000 S 
ATOM     27  C   UNL     1      53.957   7.988  13.067  0.00  0.00    +0.000 A 
ATOM     28  N   UNL     1      54.958   7.494  12.287  0.00  0.00    +0.000 NA
ATOM     29  C   UNL     1      54.714   7.535  11.019  0.00  0.00    +0.000 A 
ATOM     30  N   UNL     1      53.557   8.016  10.460  0.00  0.00    +0.000 N 
ATOM     31  C   UNL     1      52.512   8.491  11.209  0.00  0.00    +0.000 A 
ATOM     32  O   UNL     1      51.464   8.863  10.685  0.00  0.00    +0.000 OA
ATOM     33  C   UNL     1      52.738   8.487  12.642  0.00  0.00    +0.000 A 
ATOM     34  H   UNL     1      53.424   8.005   9.459  0.00  0.00    +0.000 HD
ENDBRANCH  21  24
ENDBRANCH  19  20
ENDBRANCH   4  19
TORSDOF 8
ENDMDL
MODEL 8
REMARK VINA RESULT:    -5.615      2.743      3.796
REMARK INTER + INTRA:          -9.076
REMARK INTER:                  -8.284
REMARK INTRA:                  -0.792
REMARK UNBOUND:                -0.835
REMARK  Name = 
REMARK  9 active torsions:
REMARK  status: ('A' for Active; 'I' for Inactive)
REMARK    1  A    between atoms: C_1  and  C_2
REMARK    2  A    between atoms: C_2  and  C_3
REMARK    3  A    between atoms: C_3  and  N_4
REMARK    4  A    between atoms: C_3  and  C_26
REMARK    5  A    between atoms: N_4  and  C_5
REMARK    6  A    between atoms: C_5  and  C_6
REMARK    7  A    between atoms: C_9  and  C_10
REMARK    8  A    between atoms: C_10  and  N_11
REMARK    9  A    between atoms: C_12  and  C_14
REMARK                            x       y       z     vdW  Elec       q    Type
REMARK                         _______ _______ _______ _____ _____    ______ ____
ROOT
ATOM      1  C   UNL     1      45.630   6.818  11.486  0.00  0.00    +0.000 A 
ATOM      2  C   UNL     1      46.996   6.566  11.596  0.00  0.00    +0.000 A 
ATOM      3  C   UNL     1      47.759   7.357  12.452  0.00  0.00    +0.000 A 
ATOM      4  C   UNL     1      47.143   8.368  13.191  0.00  0.00    +0.000 A 
ATOM      5  C   UNL     1      45.782   8.562  12.998  0.00  0.00    +0.000 A 
ATOM      6  N   UNL     1      45.018   7.810  12.178  0.00  0.00    +0.000 NA
ENDROOT
BRANCH   1   7
ATOM      7  C   UNL     1      44.753   5.884  10.676  0.00  0.00    +0.000 C 
BRANCH   7   8
ATOM      8  N   UNL     1      45.428   5.256   9.529  0.00  0.00    +0.000 NA
ATOM      9  H   UNL     1      46.411   5.536   9.544  0.00  0.00    +0.000 HD
BRANCH   8  10
ATOM     10  C   UNL     1      45.364   3.780   9.598  0.00  0.00    +0.000 C 
BRANCH  10  11
ATOM     11  C   UNL     1      45.947   3.137   8.337  0.00  0.00    +0.000 A 
ATOM     12  C   UNL     1      46.273   1.781   8.298  0.00  0.00    +0.000 A 
ATOM     13  C   UNL     1      46.862   1.257   7.148  0.00  0.00    +0.000 A 
ATOM     14  C   UNL     1      47.108   2.093   6.068  0.00  0.00    +0.000 A 
ATOM     15  C   UNL     1      46.753   3.426   6.181  0.00  0.00    +0.000 A 
ATOM     16  N   UNL     1      46.178   3.963   7.281  0.00  0.00    +0.000 NA
ENDBRANCH  10  11
BRANCH  10  18
ATOM     17  C   UNL     1      43.726   2.731  11.268  0.00  0.00    +0.000 C 
ATOM     18  C   UNL     1      43.926   3.272   9.860  0.00  0.00    +0.000 C 
ENDBRANCH  10  18
ENDBRANCH   8  10
ENDBRANCH   7   8
ENDBRANCH   1   7
BRANCH   4  19
ATOM     19  C   UNL     1      47.911   9.251  14.125  0.00  0.00    +0.000 C 
BRANCH  19  20
ATOM     20  N   UNL     1      49.121   8.605  14.561  0.00  0.00    +0.000 N 
ATOM     21  C   UNL     1      49.587   8.762  15.840  0.00  0.00    +0.000 C 
ATOM     22  O   UNL     1      48.974   9.408  16.684  0.00  0.00    +0.000 OA
ATOM     23  H   UNL     1      49.757   8.279  13.840  0.00  0.00    +0.000 HD
BRANCH  21  24
ATOM     24  C   UNL     1      50.830   8.052  16.164  0.00  0.00    +0.000 A 
ATOM     25  C   UNL     1      50.776   6.746  16.629  0.00  0.00    +0.000 A 
ATOM     26  S   UNL     1      52.311   6.060  16.913  0.00  0.00    +0.000 S 
ATOM     27  C   UNL     1      53.099   7.501  16.474  0.00  0.00    +0.000 A 
ATOM     28  N   UNL     1      54.456   7.599  16.520  0.00  0.00    +0.000 NA
ATOM     29  C   UNL     1      54.917   8.759  16.185  0.00  0.00    +0.000 A 
ATOM     30  N   UNL     1      54.146   9.825  15.799  0.00  0.00    +0.000 N 
ATOM     31  C   UNL     1      52.780   9.760  15.705  0.00  0.00    +0.000 A 
ATOM     32  O   UNL     1      52.118  10.714  15.301  0.00  0.00    +0.000 OA
ATOM     33  C   UNL     1      52.204   8.485  16.089  0.00  0.00    +0.000 A 
ATOM     34  H   UNL     1      54.572  10.702  15.533  0.00  0.00    +0.000 HD
ENDBRANCH  21  24
ENDBRANCH  19  20
ENDBRANCH   4  19
TORSDOF 8
ENDMDL
MODEL 9
REMARK VINA RESULT:    -5.595      2.997      4.459
REMARK INTER + INTRA:          -9.048
REMARK INTER:                  -7.922
REMARK INTRA:                  -1.126
REMARK UNBOUND:                -0.835
REMARK  Name = 
REMARK  9 active torsions:
REMARK  status: ('A' for Active; 'I' for Inactive)
REMARK    1  A    between atoms: C_1  and  C_2
REMARK    2  A    between atoms: C_2  and  C_3
REMARK    3  A    between atoms: C_3  and  N_4
REMARK    4  A    between atoms: C_3  and  C_26
REMARK    5  A    between atoms: N_4  and  C_5
REMARK    6  A    between atoms: C_5  and  C_6
REMARK    7  A    between atoms: C_9  and  C_10
REMARK    8  A    between atoms: C_10  and  N_11
REMARK    9  A    between atoms: C_12  and  C_14
REMARK                            x       y       z     vdW  Elec       q    Type
REMARK                         _______ _______ _______ _____ _____    ______ ____
ROOT
ATOM      1  C   UNL     1      47.600   7.186  13.264  0.00  0.00    +0.000 A 
ATOM      2  C   UNL     1      47.542   5.947  13.900  0.00  0.00    +0.000 A 
ATOM      3  C   UNL     1      48.089   5.818  15.174  0.00  0.00    +0.000 A 
ATOM      4  C   UNL     1      48.666   6.927  15.794  0.00  0.00    +0.000 A 
ATOM      5  C   UNL     1      48.702   8.115  15.075  0.00  0.00    +0.000 A 
ATOM      6  N   UNL     1      48.177   8.269  13.841  0.00  0.00    +0.000 NA
ENDROOT
BRANCH   1   7
ATOM      7  C   UNL     1      46.888   7.391  11.943  0.00  0.00    +0.000 C 
BRANCH   7   8
ATOM      8  N   UNL     1      47.026   6.274  10.996  0.00  0.00    +0.000 NA
ATOM      9  H   UNL     1      47.346   5.453  11.514  0.00  0.00    +0.000 HD
BRANCH   8  10
ATOM     10  C   UNL     1      45.737   5.940  10.351  0.00  0.00    +0.000 C 
BRANCH  10  11
ATOM     11  C   UNL     1      44.780   5.262  11.333  0.00  0.00    +0.000 A 
ATOM     12  C   UNL     1      43.571   5.858  11.696  0.00  0.00    +0.000 A 
ATOM     13  C   UNL     1      42.764   5.230  12.645  0.00  0.00    +0.000 A 
ATOM     14  C   UNL     1      43.177   4.030  13.204  0.00  0.00    +0.000 A 
ATOM     15  C   UNL     1      44.387   3.500  12.789  0.00  0.00    +0.000 A 
ATOM     16  N   UNL     1      45.190   4.082  11.870  0.00  0.00    +0.000 NA
ENDBRANCH  10  11
BRANCH  10  18
ATOM     17  C   UNL     1      44.704   4.245   8.728  0.00  0.00    +0.000 C 
ATOM     18  C   UNL     1      45.930   5.073   9.083  0.00  0.00    +0.000 C 
ENDBRANCH  10  18
ENDBRANCH   8  10
ENDBRANCH   7   8
ENDBRANCH   1   7
BRANCH   4  19
ATOM     19  C   UNL     1      49.271   6.849  17.161  0.00  0.00    +0.000 C 
BRANCH  19  20
ATOM     20  N   UNL     1      50.349   5.897  17.190  0.00  0.00    +0.000 N 
ATOM     21  C   UNL     1      51.008   5.608  18.357  0.00  0.00    +0.000 C 
ATOM     22  O   UNL     1      50.680   6.100  19.432  0.00  0.00    +0.000 OA
ATOM     23  H   UNL     1      50.790   5.669  16.305  0.00  0.00    +0.000 HD
BRANCH  21  24
ATOM     24  C   UNL     1      52.088   4.619  18.258  0.00  0.00    +0.000 A 
ATOM     25  C   UNL     1      53.396   5.001  18.524  0.00  0.00    +0.000 A 
ATOM     26  S   UNL     1      54.516   3.720  18.408  0.00  0.00    +0.000 S 
ATOM     27  C   UNL     1      53.300   2.624  17.947  0.00  0.00    +0.000 A 
ATOM     28  N   UNL     1      53.598   1.326  17.665  0.00  0.00    +0.000 NA
ATOM     29  C   UNL     1      52.582   0.613  17.304  0.00  0.00    +0.000 A 
ATOM     30  N   UNL     1      51.295   1.078  17.209  0.00  0.00    +0.000 N 
ATOM     31  C   UNL     1      50.946   2.367  17.516  0.00  0.00    +0.000 A 
ATOM     32  O   UNL     1      49.775   2.742  17.477  0.00  0.00    +0.000 OA
ATOM     33  C   UNL     1      52.051   3.220  17.910  0.00  0.00    +0.000 A 
ATOM     34  H   UNL     1      50.543   0.462  16.935  0.00  0.00    +0.000 HD
ENDBRANCH  21  24
ENDBRANCH  19  20
ENDBRANCH   4  19
TORSDOF 8
ENDMDL
