MODEL 1
REMARK VINA RESULT:    -7.971      0.000      0.000
REMARK INTER + INTRA:         -11.702
REMARK INTER:                 -11.000
REMARK INTRA:                  -0.702
REMARK UNBOUND:                -0.702
REMARK  Name = 
REMARK  7 active torsions:
REMARK  status: ('A' for Active; 'I' for Inactive)
REMARK    1  A    between atoms: N_1  and  C_2
REMARK    2  A    between atoms: C_2  and  C_3
REMARK    3  A    between atoms: C_7  and  S_8
REMARK    4  A    between atoms: S_8  and  C_9
REMARK    5  A    between atoms: C_9  and  C_10
REMARK    6  A    between atoms: C_10  and  C_11
REMARK    7  A    between atoms: C_14  and  C_15
REMARK                            x       y       z     vdW  Elec       q    Type
REMARK                         _______ _______ _______ _____ _____    ______ ____
ROOT
ATOM      1  C   UNL     1      43.377   3.725  11.548  0.00  0.00    +0.000 C 
ENDROOT
BRANCH   1   2
ATOM      2  S   UNL     1      43.224   4.872  12.968  0.00  0.00    +0.000 S 
BRANCH   2   7
ATOM      3  C   UNL     1      46.004   7.826  12.602  0.00  0.00    +0.000 A 
ATOM      4  C   UNL     1      47.211   7.160  12.852  0.00  0.00    +0.000 A 
ATOM      5  C   UNL     1      47.220   5.793  13.121  0.00  0.00    +0.000 A 
ATOM      6  C   UNL     1      46.023   5.077  13.159  0.00  0.00    +0.000 A 
ATOM      7  C   UNL     1      44.802   5.720  12.931  0.00  0.00    +0.000 A 
ATOM      8  C   UNL     1      44.806   7.092  12.633  0.00  0.00    +0.000 A 
BRANCH   3   9
ATOM      9  C   UNL     1      45.990   9.314  12.358  0.00  0.00    +0.000 C 
BRANCH   9  10
ATOM     10  N   UNL     1      44.687   9.899  12.644  0.00  0.00    +0.000 NA
ATOM     11  H   UNL     1      44.819  10.780  13.140  0.00  0.00    +0.000 HD
ATOM     12  H   UNL     1      44.185   9.283  13.281  0.00  0.00    +0.000 HD
ENDBRANCH   9  10
ENDBRANCH   3   9
ENDBRANCH   2   7
ENDBRANCH   1   2
BRANCH   1  13
ATOM     13  C   UNL     1      43.631   4.502  10.255  0.00  0.00    +0.000 C 
BRANCH  13  14
ATOM     14  C   UNL     1      44.637   3.797   9.368  0.00  0.00    +0.000 A 
ATOM     15  C   UNL     1      44.763   2.406   9.404  0.00  0.00    +0.000 A 
ATOM     16  C   UNL     1      45.688   1.755   8.583  0.00  0.00    +0.000 A 
ATOM     17  C   UNL     1      46.504   2.489   7.711  0.00  0.00    +0.000 A 
ATOM     18  C   UNL     1      46.397   3.885   7.684  0.00  0.00    +0.000 A 
ATOM     19  C   UNL     1      45.473   4.534   8.514  0.00  0.00    +0.000 A 
BRANCH  17  20
ATOM     20  C   UNL     1      47.473   1.747   6.862  0.00  0.00    +0.000 C 
ATOM     21  N   UNL     1      48.566   2.423   6.401  0.00  0.00    +0.000 N 
ATOM     22  O   UNL     1      47.287   0.576   6.554  0.00  0.00    +0.000 OA
ATOM     23  H   UNL     1      48.675   3.425   6.467  0.00  0.00    +0.000 HD
ATOM     24  H   UNL     1      49.160   1.926   5.751  0.00  0.00    +0.000 HD
ENDBRANCH  17  20
ENDBRANCH  13  14
ENDBRANCH   1  13
TORSDOF 7
ENDMDL
MODEL 2
REMARK VINA RESULT:    -7.733      2.056      2.730
REMARK INTER + INTRA:         -11.374
REMARK INTER:                 -10.526
REMARK INTRA:                  -0.848
REMARK UNBOUND:                -0.702
REMARK  Name = 
REMARK  7 active torsions:
REMARK  status: ('A' for Active; 'I' for Inactive)
REMARK    1  A    between atoms: N_1  and  C_2
REMARK    2  A    between atoms: C_2  and  C_3
REMARK    3  A    between atoms: C_7  and  S_8
REMARK    4  A    between atoms: S_8  and  C_9
REMARK    5  A    between atoms: C_9  and  C_10
REMARK    6  A    between atoms: C_10  and  C_11
REMARK    7  A    between atoms: C_14  and  C_15
REMARK                            x       y       z     vdW  Elec       q    Type
REMARK                         _______ _______ _______ _____ _____    ______ ____
ROOT
ATOM      1  C   UNL     1      43.183   4.727  10.520  0.00  0.00    +0.000 C 
ENDROOT
BRANCH   1   2
ATOM      2  S   UNL     1      43.189   5.566  12.149  0.00  0.00    +0.000 S 
BRANCH   2   7
ATOM      3  C   UNL     1      46.869   5.269  13.868  0.00  0.00    +0.000 A 
ATOM      4  C   UNL     1      47.678   6.036  13.021  0.00  0.00    +0.000 A 
ATOM      5  C   UNL     1      47.131   6.679  11.913  0.00  0.00    +0.000 A 
ATOM      6  C   UNL     1      45.770   6.553  11.630  0.00  0.00    +0.000 A 
ATOM      7  C   UNL     1      44.942   5.780  12.449  0.00  0.00    +0.000 A 
ATOM      8  C   UNL     1      45.498   5.158  13.578  0.00  0.00    +0.000 A 
BRANCH   3   9
ATOM      9  C   UNL     1      47.470   4.533  15.039  0.00  0.00    +0.000 C 
BRANCH   9  10
ATOM     10  N   UNL     1      47.558   3.100  14.793  0.00  0.00    +0.000 NA
ATOM     11  H   UNL     1      47.648   2.615  15.685  0.00  0.00    +0.000 HD
ATOM     12  H   UNL     1      48.413   2.910  14.274  0.00  0.00    +0.000 HD
ENDBRANCH   9  10
ENDBRANCH   3   9
ENDBRANCH   2   7
ENDBRANCH   1   2
BRANCH   1  13
ATOM     13  C   UNL     1      43.818   3.340  10.629  0.00  0.00    +0.000 C 
BRANCH  13  14
ATOM     14  C   UNL     1      44.787   3.079   9.493  0.00  0.00    +0.000 A 
ATOM     15  C   UNL     1      45.278   4.137   8.723  0.00  0.00    +0.000 A 
ATOM     16  C   UNL     1      46.175   3.897   7.678  0.00  0.00    +0.000 A 
ATOM     17  C   UNL     1      46.595   2.592   7.387  0.00  0.00    +0.000 A 
ATOM     18  C   UNL     1      46.093   1.525   8.144  0.00  0.00    +0.000 A 
ATOM     19  C   UNL     1      45.188   1.770   9.185  0.00  0.00    +0.000 A 
BRANCH  17  20
ATOM     20  C   UNL     1      47.548   2.393   6.264  0.00  0.00    +0.000 C 
ATOM     21  N   UNL     1      47.451   3.228   5.188  0.00  0.00    +0.000 N 
ATOM     22  O   UNL     1      48.376   1.490   6.281  0.00  0.00    +0.000 OA
ATOM     23  H   UNL     1      46.679   3.862   5.039  0.00  0.00    +0.000 HD
ATOM     24  H   UNL     1      48.045   3.014   4.399  0.00  0.00    +0.000 HD
ENDBRANCH  17  20
ENDBRANCH  13  14
ENDBRANCH   1  13
TORSDOF 7
ENDMDL
MODEL 3
REMARK VINA RESULT:    -6.816      1.758      2.385
REMARK INTER + INTRA:         -10.108
REMARK INTER:                  -9.575
REMARK INTRA:                  -0.532
REMARK UNBOUND:                -0.702
REMARK  Name = 
REMARK  7 active torsions:
REMARK  status: ('A' for Active; 'I' for Inactive)
REMARK    1  A    between atoms: N_1  and  C_2
REMARK    2  A    between atoms: C_2  and  C_3
REMARK    3  A    between atoms: C_7  and  S_8
REMARK    4  A    between atoms: S_8  and  C_9
REMARK    5  A    between atoms: C_9  and  C_10
REMARK    6  A    between atoms: C_10  and  C_11
REMARK    7  A    between atoms: C_14  and  C_15
REMARK                            x       y       z     vdW  Elec       q    Type
REMARK                         _______ _______ _______ _____ _____    ______ ____
ROOT
ATOM      1  C   UNL     1      44.493   4.877  11.611  0.00  0.00    +0.000 C 
ENDROOT
BRANCH   1   2
ATOM      2  S   UNL     1      43.865   6.585  11.402  0.00  0.00    +0.000 S 
BRANCH   2   7
ATOM      3  C   UNL     1      47.725   7.588  12.227  0.00  0.00    +0.000 A 
ATOM      4  C   UNL     1      47.682   8.986  12.300  0.00  0.00    +0.000 A 
ATOM      5  C   UNL     1      46.479   9.665  12.118  0.00  0.00    +0.000 A 
ATOM      6  C   UNL     1      45.308   8.958  11.847  0.00  0.00    +0.000 A 
ATOM      7  C   UNL     1      45.325   7.562  11.752  0.00  0.00    +0.000 A 
ATOM      8  C   UNL     1      46.536   6.886  11.963  0.00  0.00    +0.000 A 
BRANCH   3   9
ATOM      9  C   UNL     1      49.035   6.856  12.375  0.00  0.00    +0.000 C 
BRANCH   9  10
ATOM     10  N   UNL     1      49.572   6.970  13.725  0.00  0.00    +0.000 NA
ATOM     11  H   UNL     1      50.558   7.224  13.670  0.00  0.00    +0.000 HD
ATOM     12  H   UNL     1      49.535   6.054  14.169  0.00  0.00    +0.000 HD
ENDBRANCH   9  10
ENDBRANCH   3   9
ENDBRANCH   2   7
ENDBRANCH   1   2
BRANCH   1  13
ATOM     13  C   UNL     1      43.845   3.938  10.593  0.00  0.00    +0.000 C 
BRANCH  13  14
ATOM     14  C   UNL     1      44.816   3.547   9.497  0.00  0.00    +0.000 A 
ATOM     15  C   UNL     1      45.146   2.205   9.289  0.00  0.00    +0.000 A 
ATOM     16  C   UNL     1      46.038   1.844   8.275  0.00  0.00    +0.000 A 
ATOM     17  C   UNL     1      46.615   2.822   7.452  0.00  0.00    +0.000 A 
ATOM     18  C   UNL     1      46.302   4.170   7.668  0.00  0.00    +0.000 A 
ATOM     19  C   UNL     1      45.413   4.528   8.691  0.00  0.00    +0.000 A 
BRANCH  17  20
ATOM     20  C   UNL     1      47.559   2.383   6.392  0.00  0.00    +0.000 C 
ATOM     21  N   UNL     1      47.457   2.970   5.163  0.00  0.00    +0.000 N 
ATOM     22  O   UNL     1      48.383   1.500   6.596  0.00  0.00    +0.000 OA
ATOM     23  H   UNL     1      46.686   3.562   4.887  0.00  0.00    +0.000 HD
ATOM     24  H   UNL     1      48.044   2.590   4.434  0.00  0.00    +0.000 HD
ENDBRANCH  17  20
ENDBRANCH  13  14
ENDBRANCH   1  13
TORSDOF 7
ENDMDL
MODEL 4
REMARK VINA RESULT:    -6.572      2.588      6.782
REMARK INTER + INTRA:          -9.771
REMARK INTER:                  -8.983
REMARK INTRA:                  -0.788
REMARK UNBOUND:                -0.702
REMARK  Name = 
REMARK  7 active torsions:
REMARK  status: ('A' for Active; 'I' for Inactive)
REMARK    1  A    between atoms: N_1  and  C_2
REMARK    2  A    between atoms: C_2  and  C_3
REMARK    3  A    between atoms: C_7  and  S_8
REMARK    4  A    between atoms: S_8  and  C_9
REMARK    5  A    between atoms: C_9  and  C_10
REMARK    6  A    between atoms: C_10  and  C_11
REMARK    7  A    between atoms: C_14  and  C_15
REMARK                            x       y       z     vdW  Elec       q    Type
REMARK                         _______ _______ _______ _____ _____    ______ ____
ROOT
ATOM      1  C   UNL     1      43.726   4.305  12.409  0.00  0.00    +0.000 C 
ENDROOT
BRANCH   1   2
ATOM      2  S   UNL     1      43.492   2.800  11.391  0.00  0.00    +0.000 S 
BRANCH   2   7
ATOM      3  C   UNL     1      46.057   2.225   8.280  0.00  0.00    +0.000 A 
ATOM      4  C   UNL     1      46.251   3.520   7.785  0.00  0.00    +0.000 A 
ATOM      5  C   UNL     1      45.625   4.608   8.389  0.00  0.00    +0.000 A 
ATOM      6  C   UNL     1      44.785   4.414   9.486  0.00  0.00    +0.000 A 
ATOM      7  C   UNL     1      44.559   3.130   9.991  0.00  0.00    +0.000 A 
ATOM      8  C   UNL     1      45.216   2.043   9.392  0.00  0.00    +0.000 A 
BRANCH   3   9
ATOM      9  C   UNL     1      46.695   1.042   7.597  0.00  0.00    +0.000 C 
BRANCH   9  10
ATOM     10  N   UNL     1      47.953   1.399   6.954  0.00  0.00    +0.000 NA
ATOM     11  H   UNL     1      48.714   1.273   7.619  0.00  0.00    +0.000 HD
ATOM     12  H   UNL     1      47.931   2.391   6.724  0.00  0.00    +0.000 HD
ENDBRANCH   9  10
ENDBRANCH   3   9
ENDBRANCH   2   7
ENDBRANCH   1   2
BRANCH   1  13
ATOM     13  C   UNL     1      45.108   4.301  13.062  0.00  0.00    +0.000 C 
BRANCH  13  14
ATOM     14  C   UNL     1      45.836   5.611  12.837  0.00  0.00    +0.000 A 
ATOM     15  C   UNL     1      45.126   6.771  12.516  0.00  0.00    +0.000 A 
ATOM     16  C   UNL     1      45.796   7.981  12.312  0.00  0.00    +0.000 A 
ATOM     17  C   UNL     1      47.192   8.048  12.427  0.00  0.00    +0.000 A 
ATOM     18  C   UNL     1      47.912   6.885  12.730  0.00  0.00    +0.000 A 
ATOM     19  C   UNL     1      47.236   5.674  12.925  0.00  0.00    +0.000 A 
BRANCH  17  20
ATOM     20  C   UNL     1      47.854   9.359  12.197  0.00  0.00    +0.000 C 
ATOM     21  N   UNL     1      47.273  10.471  12.736  0.00  0.00    +0.000 N 
ATOM     22  O   UNL     1      48.872   9.450  11.521  0.00  0.00    +0.000 OA
ATOM     23  H   UNL     1      46.348  10.480  13.140  0.00  0.00    +0.000 HD
ATOM     24  H   UNL     1      47.688  11.359  12.488  0.00  0.00    +0.000 HD
ENDBRANCH  17  20
ENDBRANCH  13  14
ENDBRANCH   1  13
TORSDOF 7
ENDMDL
MODEL 5
REMARK VINA RESULT:    -6.307      1.880      2.515
REMARK INTER + INTRA:          -9.406
REMARK INTER:                  -9.005
REMARK INTRA:                  -0.401
REMARK UNBOUND:                -0.702
REMARK  Name = 
REMARK  7 active torsions:
REMARK  status: ('A' for Active; 'I' for Inactive)
REMARK    1  A    between atoms: N_1  and  C_2
REMARK    2  A    between atoms: C_2  and  C_3
REMARK    3  A    between atoms: C_7  and  S_8
REMARK    4  A    between atoms: S_8  and  C_9
REMARK    5  A    between atoms: C_9  and  C_10
REMARK    6  A    between atoms: C_10  and  C_11
REMARK    7  A    between atoms: C_14  and  C_15
REMARK                            x       y       z     vdW  Elec       q    Type
REMARK                         _______ _______ _______ _____ _____    ______ ____
ROOT
ATOM      1  C   UNL     1      45.281   5.332  11.640  0.00  0.00    +0.000 C 
ENDROOT
BRANCH   1   2
ATOM      2  S   UNL     1      45.095   7.110  12.040  0.00  0.00    +0.000 S 
BRANCH   2   7
ATOM      3  C   UNL     1      48.310   8.821  13.864  0.00  0.00    +0.000 A 
ATOM      4  C   UNL     1      49.386   8.395  13.076  0.00  0.00    +0.000 A 
ATOM      5  C   UNL     1      49.169   7.591  11.959  0.00  0.00    +0.000 A 
ATOM      6  C   UNL     1      47.875   7.191  11.624  0.00  0.00    +0.000 A 
ATOM      7  C   UNL     1      46.784   7.587  12.402  0.00  0.00    +0.000 A 
ATOM      8  C   UNL     1      47.010   8.419  13.510  0.00  0.00    +0.000 A 
BRANCH   3   9
ATOM      9  C   UNL     1      48.549   9.650  15.100  0.00  0.00    +0.000 C 
BRANCH   9  10
ATOM     10  N   UNL     1      47.719   9.216  16.216  0.00  0.00    +0.000 NA
ATOM     11  H   UNL     1      48.206   9.414  17.090  0.00  0.00    +0.000 HD
ATOM     12  H   UNL     1      47.613   8.204  16.169  0.00  0.00    +0.000 HD
ENDBRANCH   9  10
ENDBRANCH   3   9
ENDBRANCH   2   7
ENDBRANCH   1   2
BRANCH   1  13
ATOM     13  C   UNL     1      44.374   4.948  10.471  0.00  0.00    +0.000 C 
BRANCH  13  14
ATOM     14  C   UNL     1      45.117   4.130   9.433  0.00  0.00    +0.000 A 
ATOM     15  C   UNL     1      45.882   4.760   8.448  0.00  0.00    +0.000 A 
ATOM     16  C   UNL     1      46.571   4.006   7.494  0.00  0.00    +0.000 A 
ATOM     17  C   UNL     1      46.506   2.606   7.512  0.00  0.00    +0.000 A 
ATOM     18  C   UNL     1      45.726   1.968   8.485  0.00  0.00    +0.000 A 
ATOM     19  C   UNL     1      45.031   2.729   9.435  0.00  0.00    +0.000 A 
BRANCH  17  20
ATOM     20  C   UNL     1      47.255   1.853   6.472  0.00  0.00    +0.000 C 
ATOM     21  N   UNL     1      47.966   2.569   5.552  0.00  0.00    +0.000 N 
ATOM     22  O   UNL     1      47.216   0.629   6.417  0.00  0.00    +0.000 OA
ATOM     23  H   UNL     1      47.886   3.570   5.438  0.00  0.00    +0.000 HD
ATOM     24  H   UNL     1      48.389   2.041   4.802  0.00  0.00    +0.000 HD
ENDBRANCH  17  20
ENDBRANCH  13  14
ENDBRANCH   1  13
TORSDOF 7
ENDMDL
MODEL 6
REMARK VINA RESULT:    -6.299      2.995      6.853
REMARK INTER + INTRA:          -9.394
REMARK INTER:                  -8.949
REMARK INTRA:                  -0.445
REMARK UNBOUND:                -0.702
REMARK  Name = 
REMARK  7 active torsions:
REMARK  status: ('A' for Active; 'I' for Inactive)
REMARK    1  A    between atoms: N_1  and  C_2
REMARK    2  A    between atoms: C_2  and  C_3
REMARK    3  A    between atoms: C_7  and  S_8
REMARK    4  A    between atoms: S_8  and  C_9
REMARK    5  A    between atoms: C_9  and  C_10
REMARK    6  A    between atoms: C_10  and  C_11
REMARK    7  A    between atoms: C_14  and  C_15
REMARK                            x       y       z     vdW  Elec       q    Type
REMARK                         _______ _______ _______ _____ _____    ______ ____
ROOT
ATOM      1  C   UNL     1      43.593   3.608  10.867  0.00  0.00    +0.000 C 
ENDROOT
BRANCH   1   2
ATOM      2  S   UNL     1      44.211   4.499   9.391  0.00  0.00    +0.000 S 
BRANCH   2   7
ATOM      3  C   UNL     1      46.543   2.609   6.639  0.00  0.00    +0.000 A 
ATOM      4  C   UNL     1      46.669   1.317   7.163  0.00  0.00    +0.000 A 
ATOM      5  C   UNL     1      46.037   0.974   8.356  0.00  0.00    +0.000 A 
ATOM      6  C   UNL     1      45.284   1.922   9.049  0.00  0.00    +0.000 A 
ATOM      7  C   UNL     1      45.156   3.225   8.558  0.00  0.00    +0.000 A 
ATOM      8  C   UNL     1      45.774   3.553   7.341  0.00  0.00    +0.000 A 
BRANCH   3   9
ATOM      9  C   UNL     1      47.267   2.994   5.374  0.00  0.00    +0.000 C 
BRANCH   9  10
ATOM     10  N   UNL     1      48.457   2.181   5.158  0.00  0.00    +0.000 NA
ATOM     11  H   UNL     1      49.277   2.788   5.149  0.00  0.00    +0.000 HD
ATOM     12  H   UNL     1      48.400   1.759   4.233  0.00  0.00    +0.000 HD
ENDBRANCH   9  10
ENDBRANCH   3   9
ENDBRANCH   2   7
ENDBRANCH   1   2
BRANCH   1  13
ATOM     13  C   UNL     1      43.352   4.582  12.021  0.00  0.00    +0.000 C 
BRANCH  13  14
ATOM     14  C   UNL     1      44.606   5.360  12.367  0.00  0.00    +0.000 A 
ATOM     15  C   UNL     1      45.796   4.690  12.666  0.00  0.00    +0.000 A 
ATOM     16  C   UNL     1      46.954   5.407  12.980  0.00  0.00    +0.000 A 
ATOM     17  C   UNL     1      46.939   6.808  13.001  0.00  0.00    +0.000 A 
ATOM     18  C   UNL     1      45.746   7.485  12.720  0.00  0.00    +0.000 A 
ATOM     19  C   UNL     1      44.585   6.762  12.413  0.00  0.00    +0.000 A 
BRANCH  17  20
ATOM     20  C   UNL     1      48.198   7.520  13.344  0.00  0.00    +0.000 C 
ATOM     21  N   UNL     1      49.374   6.839  13.211  0.00  0.00    +0.000 N 
ATOM     22  O   UNL     1      48.186   8.671  13.766  0.00  0.00    +0.000 OA
ATOM     23  H   UNL     1      49.430   5.844  13.048  0.00  0.00    +0.000 HD
ATOM     24  H   UNL     1      50.205   7.311  13.539  0.00  0.00    +0.000 HD
ENDBRANCH  17  20
ENDBRANCH  13  14
ENDBRANCH   1  13
TORSDOF 7
ENDMDL
MODEL 7
REMARK VINA RESULT:    -6.128      3.947      6.711
REMARK INTER + INTRA:          -9.159
REMARK INTER:                  -7.936
REMARK INTRA:                  -1.223
REMARK UNBOUND:                -0.702
REMARK  Name = 
REMARK  7 active torsions:
REMARK  status: ('A' for Active; 'I' for Inactive)
REMARK    1  A    between atoms: N_1  and  C_2
REMARK    2  A    between atoms: C_2  and  C_3
REMARK    3  A    between atoms: C_7  and  S_8
REMARK    4  A    between atoms: S_8  and  C_9
REMARK    5  A    between atoms: C_9  and  C_10
REMARK    6  A    between atoms: C_10  and  C_11
REMARK    7  A    between atoms: C_14  and  C_15
REMARK                            x       y       z     vdW  Elec       q    Type
REMARK                         _______ _______ _______ _____ _____    ______ ____
ROOT
ATOM      1  C   UNL     1      46.240   7.785  12.577  0.00  0.00    +0.000 C 
ENDROOT
BRANCH   1   2
ATOM      2  S   UNL     1      44.817   7.650  11.433  0.00  0.00    +0.000 S 
BRANCH   2   7
ATOM      3  C   UNL     1      44.109   3.686  10.823  0.00  0.00    +0.000 A 
ATOM      4  C   UNL     1      43.494   3.285  12.016  0.00  0.00    +0.000 A 
ATOM      5  C   UNL     1      43.260   4.207  13.034  0.00  0.00    +0.000 A 
ATOM      6  C   UNL     1      43.651   5.538  12.878  0.00  0.00    +0.000 A 
ATOM      7  C   UNL     1      44.282   5.962  11.704  0.00  0.00    +0.000 A 
ATOM      8  C   UNL     1      44.489   5.031  10.674  0.00  0.00    +0.000 A 
BRANCH   3   9
ATOM      9  C   UNL     1      44.406   2.678   9.741  0.00  0.00    +0.000 C 
BRANCH   9  10
ATOM     10  N   UNL     1      44.365   3.277   8.413  0.00  0.00    +0.000 NA
ATOM     11  H   UNL     1      43.528   2.954   7.929  0.00  0.00    +0.000 HD
ATOM     12  H   UNL     1      45.160   2.934   7.876  0.00  0.00    +0.000 HD
ENDBRANCH   9  10
ENDBRANCH   3   9
ENDBRANCH   2   7
ENDBRANCH   1   2
BRANCH   1  13
ATOM     13  C   UNL     1      47.249   6.666  12.315  0.00  0.00    +0.000 C 
BRANCH  13  14
ATOM     14  C   UNL     1      47.366   5.730  13.501  0.00  0.00    +0.000 A 
ATOM     15  C   UNL     1      47.853   6.195  14.726  0.00  0.00    +0.000 A 
ATOM     16  C   UNL     1      47.957   5.332  15.821  0.00  0.00    +0.000 A 
ATOM     17  C   UNL     1      47.573   3.989  15.707  0.00  0.00    +0.000 A 
ATOM     18  C   UNL     1      47.101   3.512  14.478  0.00  0.00    +0.000 A 
ATOM     19  C   UNL     1      47.007   4.379  13.380  0.00  0.00    +0.000 A 
BRANCH  17  20
ATOM     20  C   UNL     1      47.707   3.115  16.902  0.00  0.00    +0.000 C 
ATOM     21  N   UNL     1      48.950   2.644  17.214  0.00  0.00    +0.000 N 
ATOM     22  O   UNL     1      46.732   2.797  17.573  0.00  0.00    +0.000 OA
ATOM     23  H   UNL     1      49.749   2.721  16.600  0.00  0.00    +0.000 HD
ATOM     24  H   UNL     1      49.001   1.978  17.972  0.00  0.00    +0.000 HD
ENDBRANCH  17  20
ENDBRANCH  13  14
ENDBRANCH   1  13
TORSDOF 7
ENDMDL
MODEL 8
REMARK VINA RESULT:    -5.929      3.281      7.418
REMARK INTER + INTRA:          -8.884
REMARK INTER:                  -8.585
REMARK INTRA:                  -0.299
REMARK UNBOUND:                -0.702
REMARK  Name = 
REMARK  7 active torsions:
REMARK  status: ('A' for Active; 'I' for Inactive)
REMARK    1  A    between atoms: N_1  and  C_2
REMARK    2  A    between atoms: C_2  and  C_3
REMARK    3  A    between atoms: C_7  and  S_8
REMARK    4  A    between atoms: S_8  and  C_9
REMARK    5  A    between atoms: C_9  and  C_10
REMARK    6  A    between atoms: C_10  and  C_11
REMARK    7  A    between atoms: C_14  and  C_15
REMARK                            x       y       z     vdW  Elec       q    Type
REMARK                         _______ _______ _______ _____ _____    ______ ____
ROOT
ATOM      1  C   UNL     1      45.615   5.426  10.272  0.00  0.00    +0.000 C 
ENDROOT
BRANCH   1   2
ATOM      2  S   UNL     1      44.292   4.541   9.365  0.00  0.00    +0.000 S 
BRANCH   2   7
ATOM      3  C   UNL     1      46.555   2.586   6.602  0.00  0.00    +0.000 A 
ATOM      4  C   UNL     1      46.686   1.303   7.148  0.00  0.00    +0.000 A 
ATOM      5  C   UNL     1      46.079   0.987   8.361  0.00  0.00    +0.000 A 
ATOM      6  C   UNL     1      45.345   1.953   9.051  0.00  0.00    +0.000 A 
ATOM      7  C   UNL     1      45.212   3.247   8.537  0.00  0.00    +0.000 A 
ATOM      8  C   UNL     1      45.805   3.547   7.301  0.00  0.00    +0.000 A 
BRANCH   3   9
ATOM      9  C   UNL     1      47.253   2.942   5.313  0.00  0.00    +0.000 C 
BRANCH   9  10
ATOM     10  N   UNL     1      48.493   2.196   5.141  0.00  0.00    +0.000 NA
ATOM     11  H   UNL     1      48.870   2.388   4.214  0.00  0.00    +0.000 HD
ATOM     12  H   UNL     1      48.280   1.200   5.166  0.00  0.00    +0.000 HD
ENDBRANCH   9  10
ENDBRANCH   3   9
ENDBRANCH   2   7
ENDBRANCH   1   2
BRANCH   1  13
ATOM     13  C   UNL     1      45.052   6.089  11.530  0.00  0.00    +0.000 C 
BRANCH  13  14
ATOM     14  C   UNL     1      46.043   6.043  12.677  0.00  0.00    +0.000 A 
ATOM     15  C   UNL     1      46.063   4.955  13.553  0.00  0.00    +0.000 A 
ATOM     16  C   UNL     1      46.980   4.911  14.607  0.00  0.00    +0.000 A 
ATOM     17  C   UNL     1      47.892   5.957  14.801  0.00  0.00    +0.000 A 
ATOM     18  C   UNL     1      47.864   7.059  13.938  0.00  0.00    +0.000 A 
ATOM     19  C   UNL     1      46.938   7.103  12.887  0.00  0.00    +0.000 A 
BRANCH  17  20
ATOM     20  C   UNL     1      48.843   5.860  15.939  0.00  0.00    +0.000 C 
ATOM     21  N   UNL     1      49.461   7.005  16.355  0.00  0.00    +0.000 N 
ATOM     22  O   UNL     1      49.095   4.786  16.472  0.00  0.00    +0.000 OA
ATOM     23  H   UNL     1      49.434   7.874  15.841  0.00  0.00    +0.000 HD
ATOM     24  H   UNL     1      50.172   6.899  17.066  0.00  0.00    +0.000 HD
ENDBRANCH  17  20
ENDBRANCH  13  14
ENDBRANCH   1  13
TORSDOF 7
ENDMDL
MODEL 9
REMARK VINA RESULT:    -5.925      4.360      5.972
REMARK INTER + INTRA:          -8.878
REMARK INTER:                  -8.369
REMARK INTRA:                  -0.510
REMARK UNBOUND:                -0.702
REMARK  Name = 
REMARK  7 active torsions:
REMARK  status: ('A' for Active; 'I' for Inactive)
REMARK    1  A    between atoms: N_1  and  C_2
REMARK    2  A    between atoms: C_2  and  C_3
REMARK    3  A    between atoms: C_7  and  S_8
REMARK    4  A    between atoms: S_8  and  C_9
REMARK    5  A    between atoms: C_9  and  C_10
REMARK    6  A    between atoms: C_10  and  C_11
REMARK    7  A    between atoms: C_14  and  C_15
REMARK                            x       y       z     vdW  Elec       q    Type
REMARK                         _______ _______ _______ _____ _____    ______ ____
ROOT
ATOM      1  C   UNL     1      48.518   6.923  13.708  0.00  0.00    +0.000 C 
ENDROOT
BRANCH   1   2
ATOM      2  S   UNL     1      48.739   7.624  15.386  0.00  0.00    +0.000 S 
BRANCH   2   7
ATOM      3  C   UNL     1      48.929   4.053  17.334  0.00  0.00    +0.000 A 
ATOM      4  C   UNL     1      50.276   3.965  17.707  0.00  0.00    +0.000 A 
ATOM      5  C   UNL     1      51.163   4.993  17.394  0.00  0.00    +0.000 A 
ATOM      6  C   UNL     1      50.719   6.114  16.693  0.00  0.00    +0.000 A 
ATOM      7  C   UNL     1      49.383   6.220  16.293  0.00  0.00    +0.000 A 
ATOM      8  C   UNL     1      48.491   5.192  16.636  0.00  0.00    +0.000 A 
BRANCH   3   9
ATOM      9  C   UNL     1      47.980   2.919  17.629  0.00  0.00    +0.000 C 
BRANCH   9  10
ATOM     10  N   UNL     1      46.588   3.313  17.449  0.00  0.00    +0.000 NA
ATOM     11  H   UNL     1      46.557   4.252  17.053  0.00  0.00    +0.000 HD
ATOM     12  H   UNL     1      46.145   3.371  18.364  0.00  0.00    +0.000 HD
ENDBRANCH   9  10
ENDBRANCH   3   9
ENDBRANCH   2   7
ENDBRANCH   1   2
BRANCH   1  13
ATOM     13  C   UNL     1      47.203   7.404  13.094  0.00  0.00    +0.000 C 
BRANCH  13  14
ATOM     14  C   UNL     1      46.385   6.250  12.550  0.00  0.00    +0.000 A 
ATOM     15  C   UNL     1      46.049   6.195  11.195  0.00  0.00    +0.000 A 
ATOM     16  C   UNL     1      45.298   5.128  10.693  0.00  0.00    +0.000 A 
ATOM     17  C   UNL     1      44.872   4.097  11.541  0.00  0.00    +0.000 A 
ATOM     18  C   UNL     1      45.190   4.155  12.904  0.00  0.00    +0.000 A 
ATOM     19  C   UNL     1      45.936   5.231  13.404  0.00  0.00    +0.000 A 
BRANCH  17  20
ATOM     20  C   UNL     1      44.074   2.988  10.955  0.00  0.00    +0.000 C 
ATOM     21  N   UNL     1      44.593   2.327   9.879  0.00  0.00    +0.000 N 
ATOM     22  O   UNL     1      42.971   2.692  11.398  0.00  0.00    +0.000 OA
ATOM     23  H   UNL     1      45.401   2.645   9.363  0.00  0.00    +0.000 HD
ATOM     24  H   UNL     1      43.993   1.642   9.441  0.00  0.00    +0.000 HD
ENDBRANCH  17  20
ENDBRANCH  13  14
ENDBRANCH   1  13
TORSDOF 7
ENDMDL
