MODEL 1
REMARK VINA RESULT:    -7.510      0.000      0.000
REMARK INTER + INTRA:         -11.463
REMARK INTER:                 -10.145
REMARK INTRA:                  -1.318
REMARK UNBOUND:                -1.318
REMARK  Name = 
REMARK  10 active torsions:
REMARK  status: ('A' for Active; 'I' for Inactive)
REMARK    1  A    between atoms: C_1  and  C_2
REMARK    2  A    between atoms: C_2  and  C_3
REMARK    3  A    between atoms: C_5  and  N_6
REMARK    4  A    between atoms: C_9  and  C_10
REMARK    5  A    between atoms: C_10  and  C_11
REMARK    6  A    between atoms: C_10  and  C_12
REMARK    7  A    between atoms: C_10  and  C_13
REMARK    8  A    between atoms: C_13  and  N_14
REMARK    9  A    between atoms: N_14  and  C_15
REMARK   10  A    between atoms: C_20  and  C_21
REMARK                            x       y       z     vdW  Elec       q    Type
REMARK                         _______ _______ _______ _____ _____    ______ ____
ROOT
ATOM      1  C   UNL     1      46.410   6.926  12.311  0.00  0.00    +0.000 C 
ATOM      2  C   UNL     1      44.948   7.336  12.623  0.00  0.00    +0.000 C 
ATOM      3  C   UNL     1      47.272   8.210  12.289  0.00  0.00    +0.000 C 
ENDROOT
BRANCH   1   7
ATOM      4  N   UNL     1      48.844   6.053  16.566  0.00  0.00    +0.000 N 
ATOM      5  C   UNL     1      48.128   5.541  15.465  0.00  0.00    +0.000 A 
ATOM      6  C   UNL     1      47.692   6.427  14.479  0.00  0.00    +0.000 A 
ATOM      7  C   UNL     1      46.899   5.964  13.416  0.00  0.00    +0.000 A 
ATOM      8  C   UNL     1      46.580   4.599  13.437  0.00  0.00    +0.000 A 
ATOM      9  C   UNL     1      47.130   3.774  14.401  0.00  0.00    +0.000 A 
ATOM     10  N   UNL     1      47.886   4.221  15.413  0.00  0.00    +0.000 NA
ATOM     11  H   UNL     1      49.784   6.255  16.232  0.00  0.00    +0.000 HD
BRANCH   4  16
ATOM     12  C   UNL     1      48.645   4.489  20.717  0.00  0.00    +0.000 C 
ATOM     13  C   UNL     1      48.391   5.743  19.879  0.00  0.00    +0.000 C 
ATOM     14  C   UNL     1      47.877   6.895  20.736  0.00  0.00    +0.000 C 
ATOM     15  C   UNL     1      47.544   5.479  18.606  0.00  0.00    +0.000 C 
ATOM     16  C   UNL     1      48.866   5.332  17.808  0.00  0.00    +0.000 C 
ATOM     17  C   UNL     1      49.563   6.134  18.929  0.00  0.00    +0.000 C 
ENDBRANCH   4  16
ENDBRANCH   1   7
BRANCH   1  18
ATOM     18  C   UNL     1      46.447   6.312  10.868  0.00  0.00    +0.000 C 
BRANCH  18  19
ATOM     19  N   UNL     1      45.098   5.893  10.404  0.00  0.00    +0.000 N 
ATOM     20  H   UNL     1      44.677   6.608   9.815  0.00  0.00    +0.000 HD
BRANCH  19  21
ATOM     21  C   UNL     1      45.126   4.669   9.698  0.00  0.00    +0.000 A 
ATOM     22  N   UNL     1      45.810   4.653   8.530  0.00  0.00    +0.000 NA
ATOM     23  C   UNL     1      45.862   3.508   7.815  0.00  0.00    +0.000 A 
ATOM     24  C   UNL     1      45.251   2.336   8.211  0.00  0.00    +0.000 A 
ATOM     25  C   UNL     1      44.565   2.334   9.413  0.00  0.00    +0.000 A 
ATOM     26  C   UNL     1      44.504   3.502  10.190  0.00  0.00    +0.000 A 
BRANCH  26  27
ATOM     27  C   UNL     1      43.702   3.419  11.437  0.00  0.00    +0.000 C 
ATOM     28  N   UNL     1      43.935   2.365  12.277  0.00  0.00    +0.000 N 
ATOM     29  O   UNL     1      42.834   4.238  11.699  0.00  0.00    +0.000 OA
ATOM     30  H   UNL     1      44.462   1.555  11.961  0.00  0.00    +0.000 HD
ATOM     31  H   UNL     1      43.266   2.229  13.021  0.00  0.00    +0.000 HD
ENDBRANCH  26  27
ENDBRANCH  19  21
ENDBRANCH  18  19
ENDBRANCH   1  18
TORSDOF 6
ENDMDL
MODEL 2
REMARK VINA RESULT:    -7.304      1.319      1.822
REMARK INTER + INTRA:         -11.184
REMARK INTER:                 -10.218
REMARK INTRA:                  -0.966
REMARK UNBOUND:                -1.318
REMARK  Name = 
REMARK  10 active torsions:
REMARK  status: ('A' for Active; 'I' for Inactive)
REMARK    1  A    between atoms: C_1  and  C_2
REMARK    2  A    between atoms: C_2  and  C_3
REMARK    3  A    between atoms: C_5  and  N_6
REMARK    4  A    between atoms: C_9  and  C_10
REMARK    5  A    between atoms: C_10  and  C_11
REMARK    6  A    between atoms: C_10  and  C_12
REMARK    7  A    between atoms: C_10  and  C_13
REMARK    8  A    between atoms: C_13  and  N_14
REMARK    9  A    between atoms: N_14  and  C_15
REMARK   10  A    between atoms: C_20  and  C_21
REMARK                            x       y       z     vdW  Elec       q    Type
REMARK                         _______ _______ _______ _____ _____    ______ ____
ROOT
ATOM      1  C   UNL     1      45.961   7.027  12.119  0.00  0.00    +0.000 C 
ATOM      2  C   UNL     1      44.830   6.272  12.864  0.00  0.00    +0.000 C 
ATOM      3  C   UNL     1      45.511   8.494  11.927  0.00  0.00    +0.000 C 
ENDROOT
BRANCH   1   7
ATOM      4  N   UNL     1      48.338   5.827  16.327  0.00  0.00    +0.000 N 
ATOM      5  C   UNL     1      48.384   6.417  15.048  0.00  0.00    +0.000 A 
ATOM      6  C   UNL     1      47.214   6.464  14.288  0.00  0.00    +0.000 A 
ATOM      7  C   UNL     1      47.245   6.962  12.976  0.00  0.00    +0.000 A 
ATOM      8  C   UNL     1      48.499   7.375  12.505  0.00  0.00    +0.000 A 
ATOM      9  C   UNL     1      49.591   7.381  13.355  0.00  0.00    +0.000 A 
ATOM     10  N   UNL     1      49.556   6.905  14.607  0.00  0.00    +0.000 NA
ATOM     11  H   UNL     1      47.882   6.499  16.940  0.00  0.00    +0.000 HD
BRANCH   4  16
ATOM     12  C   UNL     1      51.662   4.284  18.833  0.00  0.00    +0.000 C 
ATOM     13  C   UNL     1      50.248   4.859  18.914  0.00  0.00    +0.000 C 
ATOM     14  C   UNL     1      49.759   4.946  20.356  0.00  0.00    +0.000 C 
ATOM     15  C   UNL     1      49.242   4.175  17.950  0.00  0.00    +0.000 C 
ATOM     16  C   UNL     1      49.534   5.296  16.918  0.00  0.00    +0.000 C 
ATOM     17  C   UNL     1      50.033   6.165  18.092  0.00  0.00    +0.000 C 
ENDBRANCH   4  16
ENDBRANCH   1   7
BRANCH   1  18
ATOM     18  C   UNL     1      46.114   6.393  10.693  0.00  0.00    +0.000 C 
BRANCH  18  19
ATOM     19  N   UNL     1      44.890   5.660  10.273  0.00  0.00    +0.000 N 
ATOM     20  H   UNL     1      44.266   6.266   9.744  0.00  0.00    +0.000 HD
BRANCH  19  21
ATOM     21  C   UNL     1      45.186   4.514   9.502  0.00  0.00    +0.000 A 
ATOM     22  N   UNL     1      45.772   4.720   8.299  0.00  0.00    +0.000 NA
ATOM     23  C   UNL     1      46.070   3.656   7.523  0.00  0.00    +0.000 A 
ATOM     24  C   UNL     1      45.809   2.351   7.887  0.00  0.00    +0.000 A 
ATOM     25  C   UNL     1      45.228   2.126   9.122  0.00  0.00    +0.000 A 
ATOM     26  C   UNL     1      44.919   3.207   9.962  0.00  0.00    +0.000 A 
BRANCH  26  27
ATOM     27  C   UNL     1      44.249   2.871  11.245  0.00  0.00    +0.000 C 
ATOM     28  N   UNL     1      45.037   2.695  12.350  0.00  0.00    +0.000 N 
ATOM     29  O   UNL     1      43.039   2.718  11.317  0.00  0.00    +0.000 OA
ATOM     30  H   UNL     1      46.042   2.571  12.257  0.00  0.00    +0.000 HD
ATOM     31  H   UNL     1      44.587   2.298  13.161  0.00  0.00    +0.000 HD
ENDBRANCH  26  27
ENDBRANCH  19  21
ENDBRANCH  18  19
ENDBRANCH   1  18
TORSDOF 6
ENDMDL
MODEL 3
REMARK VINA RESULT:    -7.197      2.237      2.618
REMARK INTER + INTRA:         -11.039
REMARK INTER:                 -10.022
REMARK INTRA:                  -1.018
REMARK UNBOUND:                -1.318
REMARK  Name = 
REMARK  10 active torsions:
REMARK  status: ('A' for Active; 'I' for Inactive)
REMARK    1  A    between atoms: C_1  and  C_2
REMARK    2  A    between atoms: C_2  and  C_3
REMARK    3  A    between atoms: C_5  and  N_6
REMARK    4  A    between atoms: C_9  and  C_10
REMARK    5  A    between atoms: C_10  and  C_11
REMARK    6  A    between atoms: C_10  and  C_12
REMARK    7  A    between atoms: C_10  and  C_13
REMARK    8  A    between atoms: C_13  and  N_14
REMARK    9  A    between atoms: N_14  and  C_15
REMARK   10  A    between atoms: C_20  and  C_21
REMARK                            x       y       z     vdW  Elec       q    Type
REMARK                         _______ _______ _______ _____ _____    ______ ____
ROOT
ATOM      1  C   UNL     1      45.809   7.059  11.953  0.00  0.00    +0.000 C 
ATOM      2  C   UNL     1      44.796   6.195  12.747  0.00  0.00    +0.000 C 
ATOM      3  C   UNL     1      45.077   8.334  11.472  0.00  0.00    +0.000 C 
ENDROOT
BRANCH   1   7
ATOM      4  N   UNL     1      47.670   9.559  15.837  0.00  0.00    +0.000 N 
ATOM      5  C   UNL     1      47.891   8.686  14.752  0.00  0.00    +0.000 A 
ATOM      6  C   UNL     1      46.818   8.363  13.921  0.00  0.00    +0.000 A 
ATOM      7  C   UNL     1      46.982   7.427  12.887  0.00  0.00    +0.000 A 
ATOM      8  C   UNL     1      48.257   6.855  12.775  0.00  0.00    +0.000 A 
ATOM      9  C   UNL     1      49.290   7.299  13.580  0.00  0.00    +0.000 A 
ATOM     10  N   UNL     1      49.127   8.192  14.566  0.00  0.00    +0.000 NA
ATOM     11  H   UNL     1      47.599  10.495  15.445  0.00  0.00    +0.000 HD
BRANCH   4  16
ATOM     12  C   UNL     1      49.706   9.420  19.780  0.00  0.00    +0.000 C 
ATOM     13  C   UNL     1      48.323   9.429  19.128  0.00  0.00    +0.000 C 
ATOM     14  C   UNL     1      47.211   9.359  20.171  0.00  0.00    +0.000 C 
ATOM     15  C   UNL     1      48.171   8.398  17.977  0.00  0.00    +0.000 C 
ATOM     16  C   UNL     1      48.541   9.525  16.977  0.00  0.00    +0.000 C 
ATOM     17  C   UNL     1      48.119  10.543  18.058  0.00  0.00    +0.000 C 
ENDBRANCH   4  16
ENDBRANCH   1   7
BRANCH   1  18
ATOM     18  C   UNL     1      46.239   6.256  10.676  0.00  0.00    +0.000 C 
BRANCH  18  19
ATOM     19  N   UNL     1      45.067   5.763   9.904  0.00  0.00    +0.000 N 
ATOM     20  H   UNL     1      44.785   6.439   9.198  0.00  0.00    +0.000 HD
BRANCH  19  21
ATOM     21  C   UNL     1      45.315   4.519   9.283  0.00  0.00    +0.000 A 
ATOM     22  N   UNL     1      45.983   4.546   8.106  0.00  0.00    +0.000 NA
ATOM     23  C   UNL     1      46.240   3.383   7.470  0.00  0.00    +0.000 A 
ATOM     24  C   UNL     1      45.857   2.149   7.955  0.00  0.00    +0.000 A 
ATOM     25  C   UNL     1      45.190   2.107   9.166  0.00  0.00    +0.000 A 
ATOM     26  C   UNL     1      44.920   3.295   9.863  0.00  0.00    +0.000 A 
BRANCH  26  27
ATOM     27  C   UNL     1      44.154   3.155  11.128  0.00  0.00    +0.000 C 
ATOM     28  N   UNL     1      44.795   2.607  12.206  0.00  0.00    +0.000 N 
ATOM     29  O   UNL     1      42.979   3.479  11.207  0.00  0.00    +0.000 OA
ATOM     30  H   UNL     1      45.673   2.110  12.089  0.00  0.00    +0.000 HD
ATOM     31  H   UNL     1      44.214   2.359  12.993  0.00  0.00    +0.000 HD
ENDBRANCH  26  27
ENDBRANCH  19  21
ENDBRANCH  18  19
ENDBRANCH   1  18
TORSDOF 6
ENDMDL
MODEL 4
REMARK VINA RESULT:    -6.665      3.482      5.398
REMARK INTER + INTRA:         -10.321
REMARK INTER:                  -9.081
REMARK INTRA:                  -1.241
REMARK UNBOUND:                -1.318
REMARK  Name = 
REMARK  10 active torsions:
REMARK  status: ('A' for Active; 'I' for Inactive)
REMARK    1  A    between atoms: C_1  and  C_2
REMARK    2  A    between atoms: C_2  and  C_3
REMARK    3  A    between atoms: C_5  and  N_6
REMARK    4  A    between atoms: C_9  and  C_10
REMARK    5  A    between atoms: C_10  and  C_11
REMARK    6  A    between atoms: C_10  and  C_12
REMARK    7  A    between atoms: C_10  and  C_13
REMARK    8  A    between atoms: C_13  and  N_14
REMARK    9  A    between atoms: N_14  and  C_15
REMARK   10  A    between atoms: C_20  and  C_21
REMARK                            x       y       z     vdW  Elec       q    Type
REMARK                         _______ _______ _______ _____ _____    ______ ____
ROOT
ATOM      1  C   UNL     1      46.325   6.628  12.279  0.00  0.00    +0.000 C 
ATOM      2  C   UNL     1      46.376   5.277  13.039  0.00  0.00    +0.000 C 
ATOM      3  C   UNL     1      44.967   7.300  12.588  0.00  0.00    +0.000 C 
ENDROOT
BRANCH   1   7
ATOM      4  N   UNL     1      51.180   7.713  12.506  0.00  0.00    +0.000 N 
ATOM      5  C   UNL     1      49.863   8.007  12.915  0.00  0.00    +0.000 A 
ATOM      6  C   UNL     1      48.822   7.197  12.458  0.00  0.00    +0.000 A 
ATOM      7  C   UNL     1      47.492   7.514  12.771  0.00  0.00    +0.000 A 
ATOM      8  C   UNL     1      47.300   8.674  13.535  0.00  0.00    +0.000 A 
ATOM      9  C   UNL     1      48.391   9.368  14.025  0.00  0.00    +0.000 A 
ATOM     10  N   UNL     1      49.660   9.061  13.723  0.00  0.00    +0.000 NA
ATOM     11  H   UNL     1      51.477   6.905  13.047  0.00  0.00    +0.000 HD
BRANCH   4  16
ATOM     12  C   UNL     1      54.474  10.605  11.802  0.00  0.00    +0.000 C 
ATOM     13  C   UNL     1      53.766   9.400  11.185  0.00  0.00    +0.000 C 
ATOM     14  C   UNL     1      54.371   9.023   9.836  0.00  0.00    +0.000 C 
ATOM     15  C   UNL     1      52.219   9.530  11.165  0.00  0.00    +0.000 C 
ATOM     16  C   UNL     1      52.178   8.745  12.503  0.00  0.00    +0.000 C 
ATOM     17  C   UNL     1      53.577   8.193  12.153  0.00  0.00    +0.000 C 
ENDBRANCH   4  16
ENDBRANCH   1   7
BRANCH   1  18
ATOM     18  C   UNL     1      46.360   6.324  10.741  0.00  0.00    +0.000 C 
BRANCH  18  19
ATOM     19  N   UNL     1      45.039   5.868  10.232  0.00  0.00    +0.000 N 
ATOM     20  H   UNL     1      44.644   6.547   9.584  0.00  0.00    +0.000 HD
BRANCH  19  21
ATOM     21  C   UNL     1      45.112   4.608   9.596  0.00  0.00    +0.000 A 
ATOM     22  N   UNL     1      45.812   4.547   8.439  0.00  0.00    +0.000 NA
ATOM     23  C   UNL     1      45.907   3.366   7.790  0.00  0.00    +0.000 A 
ATOM     24  C   UNL     1      45.323   2.200   8.243  0.00  0.00    +0.000 A 
ATOM     25  C   UNL     1      44.621   2.246   9.434  0.00  0.00    +0.000 A 
ATOM     26  C   UNL     1      44.516   3.453  10.144  0.00  0.00    +0.000 A 
BRANCH  26  27
ATOM     27  C   UNL     1      43.698   3.417  11.383  0.00  0.00    +0.000 C 
ATOM     28  N   UNL     1      43.955   2.424  12.289  0.00  0.00    +0.000 N 
ATOM     29  O   UNL     1      42.798   4.218  11.583  0.00  0.00    +0.000 OA
ATOM     30  H   UNL     1      44.515   1.616  12.029  0.00  0.00    +0.000 HD
ATOM     31  H   UNL     1      43.281   2.310  13.031  0.00  0.00    +0.000 HD
ENDBRANCH  26  27
ENDBRANCH  19  21
ENDBRANCH  18  19
ENDBRANCH   1  18
TORSDOF 6
ENDMDL
MODEL 5
REMARK VINA RESULT:    -6.548      1.714      2.583
REMARK INTER + INTRA:         -10.163
REMARK INTER:                  -9.101
REMARK INTRA:                  -1.061
REMARK UNBOUND:                -1.318
REMARK  Name = 
REMARK  10 active torsions:
REMARK  status: ('A' for Active; 'I' for Inactive)
REMARK    1  A    between atoms: C_1  and  C_2
REMARK    2  A    between atoms: C_2  and  C_3
REMARK    3  A    between atoms: C_5  and  N_6
REMARK    4  A    between atoms: C_9  and  C_10
REMARK    5  A    between atoms: C_10  and  C_11
REMARK    6  A    between atoms: C_10  and  C_12
REMARK    7  A    between atoms: C_10  and  C_13
REMARK    8  A    between atoms: C_13  and  N_14
REMARK    9  A    between atoms: N_14  and  C_15
REMARK   10  A    between atoms: C_20  and  C_21
REMARK                            x       y       z     vdW  Elec       q    Type
REMARK                         _______ _______ _______ _____ _____    ______ ____
ROOT
ATOM      1  C   UNL     1      47.364   7.349  12.436  0.00  0.00    +0.000 C 
ATOM      2  C   UNL     1      46.352   8.500  12.205  0.00  0.00    +0.000 C 
ATOM      3  C   UNL     1      48.512   7.508  11.411  0.00  0.00    +0.000 C 
ENDROOT
BRANCH   1   7
ATOM      4  N   UNL     1      48.999   5.240  16.640  0.00  0.00    +0.000 N 
ATOM      5  C   UNL     1      48.657   6.414  15.939  0.00  0.00    +0.000 A 
ATOM      6  C   UNL     1      48.171   6.300  14.636  0.00  0.00    +0.000 A 
ATOM      7  C   UNL     1      47.908   7.452  13.878  0.00  0.00    +0.000 A 
ATOM      8  C   UNL     1      48.180   8.675  14.506  0.00  0.00    +0.000 A 
ATOM      9  C   UNL     1      48.572   8.702  15.832  0.00  0.00    +0.000 A 
ATOM     10  N   UNL     1      48.822   7.599  16.551  0.00  0.00    +0.000 NA
ATOM     11  H   UNL     1      48.123   4.810  16.929  0.00  0.00    +0.000 HD
BRANCH   4  16
ATOM     12  C   UNL     1      52.219   4.764  19.659  0.00  0.00    +0.000 C 
ATOM     13  C   UNL     1      51.632   4.125  18.400  0.00  0.00    +0.000 C 
ATOM     14  C   UNL     1      52.404   2.873  17.995  0.00  0.00    +0.000 C 
ATOM     15  C   UNL     1      51.409   5.130  17.238  0.00  0.00    +0.000 C 
ATOM     16  C   UNL     1      49.943   5.295  17.720  0.00  0.00    +0.000 C 
ATOM     17  C   UNL     1      50.086   3.933  18.433  0.00  0.00    +0.000 C 
ENDBRANCH   4  16
ENDBRANCH   1   7
BRANCH   1  18
ATOM     18  C   UNL     1      46.641   5.993  12.123  0.00  0.00    +0.000 C 
BRANCH  18  19
ATOM     19  N   UNL     1      45.433   6.186  11.276  0.00  0.00    +0.000 N 
ATOM     20  H   UNL     1      45.476   7.073  10.778  0.00  0.00    +0.000 HD
BRANCH  19  21
ATOM     21  C   UNL     1      45.256   5.140  10.343  0.00  0.00    +0.000 A 
ATOM     22  N   UNL     1      45.862   5.283   9.141  0.00  0.00    +0.000 NA
ATOM     23  C   UNL     1      45.717   4.312   8.214  0.00  0.00    +0.000 A 
ATOM     24  C   UNL     1      44.978   3.165   8.421  0.00  0.00    +0.000 A 
ATOM     25  C   UNL     1      44.370   2.998   9.652  0.00  0.00    +0.000 A 
ATOM     26  C   UNL     1      44.511   3.980  10.646  0.00  0.00    +0.000 A 
BRANCH  26  27
ATOM     27  C   UNL     1      43.779   3.739  11.916  0.00  0.00    +0.000 C 
ATOM     28  N   UNL     1      43.843   2.487  12.462  0.00  0.00    +0.000 N 
ATOM     29  O   UNL     1      43.108   4.611  12.446  0.00  0.00    +0.000 OA
ATOM     30  H   UNL     1      44.180   1.698  11.916  0.00  0.00    +0.000 HD
ATOM     31  H   UNL     1      43.203   2.295  13.219  0.00  0.00    +0.000 HD
ENDBRANCH  26  27
ENDBRANCH  19  21
ENDBRANCH  18  19
ENDBRANCH   1  18
TORSDOF 6
ENDMDL
MODEL 6
REMARK VINA RESULT:    -6.541      4.419      6.996
REMARK INTER + INTRA:         -10.153
REMARK INTER:                  -9.081
REMARK INTRA:                  -1.072
REMARK UNBOUND:                -1.318
REMARK  Name = 
REMARK  10 active torsions:
REMARK  status: ('A' for Active; 'I' for Inactive)
REMARK    1  A    between atoms: C_1  and  C_2
REMARK    2  A    between atoms: C_2  and  C_3
REMARK    3  A    between atoms: C_5  and  N_6
REMARK    4  A    between atoms: C_9  and  C_10
REMARK    5  A    between atoms: C_10  and  C_11
REMARK    6  A    between atoms: C_10  and  C_12
REMARK    7  A    between atoms: C_10  and  C_13
REMARK    8  A    between atoms: C_13  and  N_14
REMARK    9  A    between atoms: N_14  and  C_15
REMARK   10  A    between atoms: C_20  and  C_21
REMARK                            x       y       z     vdW  Elec       q    Type
REMARK                         _______ _______ _______ _____ _____    ______ ____
ROOT
ATOM      1  C   UNL     1      47.353   7.871  12.449  0.00  0.00    +0.000 C 
ATOM      2  C   UNL     1      47.430   7.922  13.997  0.00  0.00    +0.000 C 
ATOM      3  C   UNL     1      46.226   8.828  11.995  0.00  0.00    +0.000 C 
ENDROOT
BRANCH   1   7
ATOM      4  N   UNL     1      51.921   6.854  10.747  0.00  0.00    +0.000 N 
ATOM      5  C   UNL     1      50.954   7.821  11.090  0.00  0.00    +0.000 A 
ATOM      6  C   UNL     1      49.730   7.393  11.606  0.00  0.00    +0.000 A 
ATOM      7  C   UNL     1      48.713   8.322  11.873  0.00  0.00    +0.000 A 
ATOM      8  C   UNL     1      49.009   9.659  11.572  0.00  0.00    +0.000 A 
ATOM      9  C   UNL     1      50.278  10.010  11.150  0.00  0.00    +0.000 A 
ATOM     10  N   UNL     1      51.246   9.118  10.898  0.00  0.00    +0.000 NA
ATOM     11  H   UNL     1      52.324   6.526  11.622  0.00  0.00    +0.000 HD
BRANCH   4  16
ATOM     12  C   UNL     1      54.893   7.099   7.459  0.00  0.00    +0.000 C 
ATOM     13  C   UNL     1      53.839   6.179   8.075  0.00  0.00    +0.000 C 
ATOM     14  C   UNL     1      53.730   4.862   7.314  0.00  0.00    +0.000 C 
ATOM     15  C   UNL     1      52.474   6.876   8.324  0.00  0.00    +0.000 C 
ATOM     16  C   UNL     1      52.934   7.162   9.778  0.00  0.00    +0.000 C 
ATOM     17  C   UNL     1      53.951   6.011   9.620  0.00  0.00    +0.000 C 
ENDBRANCH   4  16
ENDBRANCH   1   7
BRANCH   1  18
ATOM     18  C   UNL     1      46.932   6.419  12.029  0.00  0.00    +0.000 C 
BRANCH  18  19
ATOM     19  N   UNL     1      45.688   6.411  11.214  0.00  0.00    +0.000 N 
ATOM     20  H   UNL     1      45.902   6.497  10.223  0.00  0.00    +0.000 HD
BRANCH  19  21
ATOM     21  C   UNL     1      44.915   5.247  11.423  0.00  0.00    +0.000 A 
ATOM     22  N   UNL     1      44.449   5.039  12.677  0.00  0.00    +0.000 NA
ATOM     23  C   UNL     1      43.709   3.937  12.927  0.00  0.00    +0.000 A 
ATOM     24  C   UNL     1      43.394   2.997  11.968  0.00  0.00    +0.000 A 
ATOM     25  C   UNL     1      43.848   3.208  10.678  0.00  0.00    +0.000 A 
ATOM     26  C   UNL     1      44.607   4.351  10.377  0.00  0.00    +0.000 A 
BRANCH  26  27
ATOM     27  C   UNL     1      45.095   4.466   8.979  0.00  0.00    +0.000 C 
ATOM     28  N   UNL     1      44.498   3.683   8.028  0.00  0.00    +0.000 N 
ATOM     29  O   UNL     1      46.022   5.203   8.680  0.00  0.00    +0.000 OA
ATOM     30  H   UNL     1      43.911   2.897   8.296  0.00  0.00    +0.000 HD
ATOM     31  H   UNL     1      44.956   3.644   7.129  0.00  0.00    +0.000 HD
ENDBRANCH  26  27
ENDBRANCH  19  21
ENDBRANCH  18  19
ENDBRANCH   1  18
TORSDOF 6
ENDMDL
MODEL 7
REMARK VINA RESULT:    -6.430      2.636      7.525
REMARK INTER + INTRA:         -10.004
REMARK INTER:                  -8.847
REMARK INTRA:                  -1.156
REMARK UNBOUND:                -1.318
REMARK  Name = 
REMARK  10 active torsions:
REMARK  status: ('A' for Active; 'I' for Inactive)
REMARK    1  A    between atoms: C_1  and  C_2
REMARK    2  A    between atoms: C_2  and  C_3
REMARK    3  A    between atoms: C_5  and  N_6
REMARK    4  A    between atoms: C_9  and  C_10
REMARK    5  A    between atoms: C_10  and  C_11
REMARK    6  A    between atoms: C_10  and  C_12
REMARK    7  A    between atoms: C_10  and  C_13
REMARK    8  A    between atoms: C_13  and  N_14
REMARK    9  A    between atoms: N_14  and  C_15
REMARK   10  A    between atoms: C_20  and  C_21
REMARK                            x       y       z     vdW  Elec       q    Type
REMARK                         _______ _______ _______ _____ _____    ______ ____
ROOT
ATOM      1  C   UNL     1      49.984   8.131  15.705  0.00  0.00    +0.000 C 
ATOM      2  C   UNL     1      51.056   8.910  14.901  0.00  0.00    +0.000 C 
ATOM      3  C   UNL     1      49.613   8.973  16.949  0.00  0.00    +0.000 C 
ENDROOT
BRANCH   1   7
ATOM      4  N   UNL     1      46.942   5.179  13.092  0.00  0.00    +0.000 N 
ATOM      5  C   UNL     1      47.298   6.482  13.495  0.00  0.00    +0.000 A 
ATOM      6  C   UNL     1      48.417   6.650  14.311  0.00  0.00    +0.000 A 
ATOM      7  C   UNL     1      48.746   7.922  14.804  0.00  0.00    +0.000 A 
ATOM      8  C   UNL     1      47.884   8.965  14.438  0.00  0.00    +0.000 A 
ATOM      9  C   UNL     1      46.850   8.729  13.550  0.00  0.00    +0.000 A 
ATOM     10  N   UNL     1      46.540   7.512  13.083  0.00  0.00    +0.000 NA
ATOM     11  H   UNL     1      47.600   4.911  12.365  0.00  0.00    +0.000 HD
BRANCH   4  16
ATOM     12  C   UNL     1      43.077   3.851  11.356  0.00  0.00    +0.000 C 
ATOM     13  C   UNL     1      44.591   3.734  11.178  0.00  0.00    +0.000 C 
ATOM     14  C   UNL     1      44.950   2.845   9.992  0.00  0.00    +0.000 C 
ATOM     15  C   UNL     1      45.346   3.372  12.485  0.00  0.00    +0.000 C 
ATOM     16  C   UNL     1      45.588   4.888  12.715  0.00  0.00    +0.000 C 
ATOM     17  C   UNL     1      45.352   5.094  11.203  0.00  0.00    +0.000 C 
ENDBRANCH   4  16
ENDBRANCH   1   7
BRANCH   1  18
ATOM     18  C   UNL     1      50.631   6.798  16.218  0.00  0.00    +0.000 C 
BRANCH  18  19
ATOM     19  N   UNL     1      49.811   6.148  17.274  0.00  0.00    +0.000 N 
ATOM     20  H   UNL     1      48.825   6.376  17.162  0.00  0.00    +0.000 HD
BRANCH  19  21
ATOM     21  C   UNL     1      49.962   4.743  17.286  0.00  0.00    +0.000 A 
ATOM     22  N   UNL     1      51.224   4.264  17.394  0.00  0.00    +0.000 NA
ATOM     23  C   UNL     1      51.420   2.929  17.405  0.00  0.00    +0.000 A 
ATOM     24  C   UNL     1      50.397   2.008  17.311  0.00  0.00    +0.000 A 
ATOM     25  C   UNL     1      49.101   2.484  17.219  0.00  0.00    +0.000 A 
ATOM     26  C   UNL     1      48.858   3.866  17.221  0.00  0.00    +0.000 A 
BRANCH  26  27
ATOM     27  C   UNL     1      47.441   4.284  17.065  0.00  0.00    +0.000 C 
ATOM     28  N   UNL     1      46.842   4.915  18.121  0.00  0.00    +0.000 N 
ATOM     29  O   UNL     1      46.808   4.044  16.048  0.00  0.00    +0.000 OA
ATOM     30  H   UNL     1      47.264   4.897  19.045  0.00  0.00    +0.000 HD
ATOM     31  H   UNL     1      45.840   5.031  18.063  0.00  0.00    +0.000 HD
ENDBRANCH  26  27
ENDBRANCH  19  21
ENDBRANCH  18  19
ENDBRANCH   1  18
TORSDOF 6
ENDMDL
MODEL 8
REMARK VINA RESULT:    -6.392      2.074      3.362
REMARK INTER + INTRA:          -9.952
REMARK INTER:                  -8.886
REMARK INTRA:                  -1.065
REMARK UNBOUND:                -1.318
REMARK  Name = 
REMARK  10 active torsions:
REMARK  status: ('A' for Active; 'I' for Inactive)
REMARK    1  A    between atoms: C_1  and  C_2
REMARK    2  A    between atoms: C_2  and  C_3
REMARK    3  A    between atoms: C_5  and  N_6
REMARK    4  A    between atoms: C_9  and  C_10
REMARK    5  A    between atoms: C_10  and  C_11
REMARK    6  A    between atoms: C_10  and  C_12
REMARK    7  A    between atoms: C_10  and  C_13
REMARK    8  A    between atoms: C_13  and  N_14
REMARK    9  A    between atoms: N_14  and  C_15
REMARK   10  A    between atoms: C_20  and  C_21
REMARK                            x       y       z     vdW  Elec       q    Type
REMARK                         _______ _______ _______ _____ _____    ______ ____
ROOT
ATOM      1  C   UNL     1      47.596   7.711  12.430  0.00  0.00    +0.000 C 
ATOM      2  C   UNL     1      46.422   8.710  12.273  0.00  0.00    +0.000 C 
ATOM      3  C   UNL     1      48.745   8.174  11.503  0.00  0.00    +0.000 C 
ENDROOT
BRANCH   1   7
ATOM      4  N   UNL     1      48.983   5.320  16.572  0.00  0.00    +0.000 N 
ATOM      5  C   UNL     1      48.682   6.540  15.932  0.00  0.00    +0.000 A 
ATOM      6  C   UNL     1      48.274   6.515  14.598  0.00  0.00    +0.000 A 
ATOM      7  C   UNL     1      48.054   7.716  13.905  0.00  0.00    +0.000 A 
ATOM      8  C   UNL     1      48.288   8.894  14.629  0.00  0.00    +0.000 A 
ATOM      9  C   UNL     1      48.602   8.830  15.974  0.00  0.00    +0.000 A 
ATOM     10  N   UNL     1      48.810   7.681  16.631  0.00  0.00    +0.000 NA
ATOM     11  H   UNL     1      48.092   4.876  16.780  0.00  0.00    +0.000 HD
BRANCH   4  16
ATOM     12  C   UNL     1      52.020   4.632  19.736  0.00  0.00    +0.000 C 
ATOM     13  C   UNL     1      51.508   4.080  18.406  0.00  0.00    +0.000 C 
ATOM     14  C   UNL     1      52.300   2.854  17.965  0.00  0.00    +0.000 C 
ATOM     15  C   UNL     1      51.354   5.160  17.301  0.00  0.00    +0.000 C 
ATOM     16  C   UNL     1      49.862   5.300  17.706  0.00  0.00    +0.000 C 
ATOM     17  C   UNL     1      49.962   3.894  18.336  0.00  0.00    +0.000 C 
ENDBRANCH   4  16
ENDBRANCH   1   7
BRANCH   1  18
ATOM     18  C   UNL     1      47.116   6.309  11.916  0.00  0.00    +0.000 C 
BRANCH  18  19
ATOM     19  N   UNL     1      45.832   6.397  11.171  0.00  0.00    +0.000 N 
ATOM     20  H   UNL     1      45.996   6.481  10.170  0.00  0.00    +0.000 HD
BRANCH  19  21
ATOM     21  C   UNL     1      44.993   5.285  11.410  0.00  0.00    +0.000 A 
ATOM     22  N   UNL     1      44.536   5.125  12.675  0.00  0.00    +0.000 NA
ATOM     23  C   UNL     1      43.735   4.075  12.955  0.00  0.00    +0.000 A 
ATOM     24  C   UNL     1      43.348   3.140  12.016  0.00  0.00    +0.000 A 
ATOM     25  C   UNL     1      43.794   3.303  10.717  0.00  0.00    +0.000 A 
ATOM     26  C   UNL     1      44.615   4.392  10.385  0.00  0.00    +0.000 A 
BRANCH  26  27
ATOM     27  C   UNL     1      45.087   4.455   8.978  0.00  0.00    +0.000 C 
ATOM     28  N   UNL     1      44.481   3.636   8.065  0.00  0.00    +0.000 N 
ATOM     29  O   UNL     1      46.009   5.181   8.641  0.00  0.00    +0.000 OA
ATOM     30  H   UNL     1      43.898   2.860   8.368  0.00  0.00    +0.000 HD
ATOM     31  H   UNL     1      44.928   3.564   7.163  0.00  0.00    +0.000 HD
ENDBRANCH  26  27
ENDBRANCH  19  21
ENDBRANCH  18  19
ENDBRANCH   1  18
TORSDOF 6
ENDMDL
MODEL 9
REMARK VINA RESULT:    -6.368      2.186      3.053
REMARK INTER + INTRA:          -9.919
REMARK INTER:                  -8.756
REMARK INTRA:                  -1.163
REMARK UNBOUND:                -1.318
REMARK  Name = 
REMARK  10 active torsions:
REMARK  status: ('A' for Active; 'I' for Inactive)
REMARK    1  A    between atoms: C_1  and  C_2
REMARK    2  A    between atoms: C_2  and  C_3
REMARK    3  A    between atoms: C_5  and  N_6
REMARK    4  A    between atoms: C_9  and  C_10
REMARK    5  A    between atoms: C_10  and  C_11
REMARK    6  A    between atoms: C_10  and  C_12
REMARK    7  A    between atoms: C_10  and  C_13
REMARK    8  A    between atoms: C_13  and  N_14
REMARK    9  A    between atoms: N_14  and  C_15
REMARK   10  A    between atoms: C_20  and  C_21
REMARK                            x       y       z     vdW  Elec       q    Type
REMARK                         _______ _______ _______ _____ _____    ______ ____
ROOT
ATOM      1  C   UNL     1      46.398   6.736  12.439  0.00  0.00    +0.000 C 
ATOM      2  C   UNL     1      46.212   5.411  13.221  0.00  0.00    +0.000 C 
ATOM      3  C   UNL     1      45.159   7.624  12.702  0.00  0.00    +0.000 C 
ENDROOT
BRANCH   1   7
ATOM      4  N   UNL     1      49.609   7.841  16.082  0.00  0.00    +0.000 N 
ATOM      5  C   UNL     1      49.213   8.005  14.738  0.00  0.00    +0.000 A 
ATOM      6  C   UNL     1      48.053   7.365  14.298  0.00  0.00    +0.000 A 
ATOM      7  C   UNL     1      47.680   7.432  12.947  0.00  0.00    +0.000 A 
ATOM      8  C   UNL     1      48.543   8.151  12.107  0.00  0.00    +0.000 A 
ATOM      9  C   UNL     1      49.622   8.832  12.641  0.00  0.00    +0.000 A 
ATOM     10  N   UNL     1      49.973   8.764  13.932  0.00  0.00    +0.000 NA
ATOM     11  H   UNL     1      48.990   8.426  16.639  0.00  0.00    +0.000 HD
BRANCH   4  16
ATOM     12  C   UNL     1      53.780   7.709  17.598  0.00  0.00    +0.000 C 
ATOM     13  C   UNL     1      52.462   6.933  17.602  0.00  0.00    +0.000 C 
ATOM     14  C   UNL     1      52.578   5.636  18.395  0.00  0.00    +0.000 C 
ATOM     15  C   UNL     1      51.842   6.754  16.190  0.00  0.00    +0.000 C 
ATOM     16  C   UNL     1      50.984   8.020  16.453  0.00  0.00    +0.000 C 
ATOM     17  C   UNL     1      51.209   7.787  17.963  0.00  0.00    +0.000 C 
ENDBRANCH   4  16
ENDBRANCH   1   7
BRANCH   1  18
ATOM     18  C   UNL     1      46.418   6.400  10.908  0.00  0.00    +0.000 C 
BRANCH  18  19
ATOM     19  N   UNL     1      45.084   5.970  10.412  0.00  0.00    +0.000 N 
ATOM     20  H   UNL     1      44.660   6.692   9.833  0.00  0.00    +0.000 HD
BRANCH  19  21
ATOM     21  C   UNL     1      45.145   4.764   9.678  0.00  0.00    +0.000 A 
ATOM     22  N   UNL     1      45.838   4.790   8.515  0.00  0.00    +0.000 NA
ATOM     23  C   UNL     1      45.921   3.664   7.775  0.00  0.00    +0.000 A 
ATOM     24  C   UNL     1      45.332   2.470   8.138  0.00  0.00    +0.000 A 
ATOM     25  C   UNL     1      44.636   2.425   9.333  0.00  0.00    +0.000 A 
ATOM     26  C   UNL     1      44.543   3.573  10.136  0.00  0.00    +0.000 A 
BRANCH  26  27
ATOM     27  C   UNL     1      43.733   3.444  11.374  0.00  0.00    +0.000 C 
ATOM     28  N   UNL     1      43.999   2.390  12.205  0.00  0.00    +0.000 N 
ATOM     29  O   UNL     1      42.830   4.224  11.635  0.00  0.00    +0.000 OA
ATOM     30  H   UNL     1      44.561   1.605  11.885  0.00  0.00    +0.000 HD
ATOM     31  H   UNL     1      43.329   2.219  12.940  0.00  0.00    +0.000 HD
ENDBRANCH  26  27
ENDBRANCH  19  21
ENDBRANCH  18  19
ENDBRANCH   1  18
TORSDOF 6
ENDMDL
