MODEL 1
REMARK VINA RESULT:    -8.175      0.000      0.000
REMARK INTER + INTRA:         -10.687
REMARK INTER:                 -10.086
REMARK INTRA:                  -0.601
REMARK UNBOUND:                -0.601
REMARK  Name = 
REMARK  4 active torsions:
REMARK  status: ('A' for Active; 'I' for Inactive)
REMARK    1  A    between atoms: C_2  and  C_5
REMARK    2  A    between atoms: C_7  and  O_8
REMARK    3  A    between atoms: O_8  and  C_9
REMARK    4  A    between atoms: C_9  and  C_10
REMARK                            x       y       z     vdW  Elec       q    Type
REMARK                         _______ _______ _______ _____ _____    ______ ____
ROOT
ATOM      1  C   UNL     1      44.274   5.303  11.801  0.00  0.00    +0.000 A 
ATOM      2  C   UNL     1      44.548   4.980  10.477  0.00  0.00    +0.000 A 
ATOM      3  C   UNL     1      45.671   5.535   9.897  0.00  0.00    +0.000 A 
ATOM      4  N   UNL     1      46.533   6.348  10.544  0.00  0.00    +0.000 NA
ATOM      5  C   UNL     1      46.311   6.628  11.847  0.00  0.00    +0.000 A 
ATOM      6  N   UNL     1      47.189   7.451  12.523  0.00  0.00    +0.000 N 
ATOM      7  C   UNL     1      47.976   8.435  11.781  0.00  0.00    +0.000 C 
ATOM      8  C   UNL     1      49.471   8.144  11.893  0.00  0.00    +0.000 C 
ATOM      9  C   UNL     1      49.897   7.967  13.349  0.00  0.00    +0.000 C 
ATOM     10  C   UNL     1      49.052   6.892  14.024  0.00  0.00    +0.000 C 
ATOM     11  C   UNL     1      47.559   7.204  13.914  0.00  0.00    +0.000 C 
ATOM     12  C   UNL     1      45.179   6.124  12.486  0.00  0.00    +0.000 A 
ENDROOT
BRANCH   1  14
ATOM     13  F   UNL     1      41.899   4.974  11.759  0.00  0.00    +0.000 F 
ATOM     14  C   UNL     1      43.032   4.825  12.497  0.00  0.00    +0.000 C 
ATOM     15  F   UNL     1      42.807   5.491  13.665  0.00  0.00    +0.000 F 
ATOM     16  F   UNL     1      43.094   3.506  12.827  0.00  0.00    +0.000 F 
ENDBRANCH   1  14
BRANCH   3  17
ATOM     17  O   UNL     1      45.910   5.183   8.582  0.00  0.00    +0.000 OA
BRANCH  17  18
ATOM     18  C   UNL     1      45.141   4.051   8.173  0.00  0.00    +0.000 C 
BRANCH  18  19
ATOM     19  C   UNL     1      46.045   2.994   7.579  0.00  0.00    +0.000 A 
ATOM     20  C   UNL     1      46.877   3.306   6.499  0.00  0.00    +0.000 A 
ATOM     21  C   UNL     1      47.744   2.336   6.018  0.00  0.00    +0.000 A 
ATOM     22  N   UNL     1      47.842   1.093   6.533  0.00  0.00    +0.000 NA
ATOM     23  C   UNL     1      47.039   0.812   7.581  0.00  0.00    +0.000 A 
ATOM     24  C   UNL     1      46.143   1.714   8.136  0.00  0.00    +0.000 A 
ENDBRANCH  18  19
ENDBRANCH  17  18
ENDBRANCH   3  17
TORSDOF 4
ENDMDL
MODEL 2
REMARK VINA RESULT:    -7.235      3.945      7.348
REMARK INTER + INTRA:          -9.528
REMARK INTER:                  -8.928
REMARK INTRA:                  -0.600
REMARK UNBOUND:                -0.601
REMARK  Name = 
REMARK  4 active torsions:
REMARK  status: ('A' for Active; 'I' for Inactive)
REMARK    1  A    between atoms: C_2  and  C_5
REMARK    2  A    between atoms: C_7  and  O_8
REMARK    3  A    between atoms: O_8  and  C_9
REMARK    4  A    between atoms: C_9  and  C_10
REMARK                            x       y       z     vdW  Elec       q    Type
REMARK                         _______ _______ _______ _____ _____    ______ ____
ROOT
ATOM      1  C   UNL     1      46.777   6.624  13.105  0.00  0.00    +0.000 A 
ATOM      2  C   UNL     1      47.166   5.642  14.009  0.00  0.00    +0.000 A 
ATOM      3  C   UNL     1      46.758   4.345  13.767  0.00  0.00    +0.000 A 
ATOM      4  N   UNL     1      46.029   3.969  12.694  0.00  0.00    +0.000 NA
ATOM      5  C   UNL     1      45.689   4.902  11.778  0.00  0.00    +0.000 A 
ATOM      6  N   UNL     1      44.951   4.530  10.673  0.00  0.00    +0.000 N 
ATOM      7  C   UNL     1      44.084   3.355  10.743  0.00  0.00    +0.000 C 
ATOM      8  C   UNL     1      44.538   2.274   9.765  0.00  0.00    +0.000 C 
ATOM      9  C   UNL     1      44.720   2.838   8.357  0.00  0.00    +0.000 C 
ATOM     10  C   UNL     1      45.673   4.028   8.379  0.00  0.00    +0.000 C 
ATOM     11  C   UNL     1      45.198   5.106   9.354  0.00  0.00    +0.000 C 
ATOM     12  C   UNL     1      46.044   6.236  11.976  0.00  0.00    +0.000 A 
ENDROOT
BRANCH   1  14
ATOM     13  F   UNL     1      47.816   8.636  12.316  0.00  0.00    +0.000 F 
ATOM     14  C   UNL     1      47.092   8.076  13.323  0.00  0.00    +0.000 C 
ATOM     15  F   UNL     1      47.813   8.282  14.461  0.00  0.00    +0.000 F 
ATOM     16  F   UNL     1      45.972   8.840  13.449  0.00  0.00    +0.000 F 
ENDBRANCH   1  14
BRANCH   3  17
ATOM     17  O   UNL     1      47.172   3.399  14.685  0.00  0.00    +0.000 OA
BRANCH  17  18
ATOM     18  C   UNL     1      47.209   3.913  16.017  0.00  0.00    +0.000 C 
BRANCH  18  19
ATOM     19  C   UNL     1      48.541   3.595  16.661  0.00  0.00    +0.000 A 
ATOM     20  C   UNL     1      49.053   2.295  16.613  0.00  0.00    +0.000 A 
ATOM     21  C   UNL     1      50.307   2.048  17.153  0.00  0.00    +0.000 A 
ATOM     22  N   UNL     1      51.077   2.994  17.727  0.00  0.00    +0.000 NA
ATOM     23  C   UNL     1      50.572   4.246  17.756  0.00  0.00    +0.000 A 
ATOM     24  C   UNL     1      49.332   4.593  17.239  0.00  0.00    +0.000 A 
ENDBRANCH  18  19
ENDBRANCH  17  18
ENDBRANCH   3  17
TORSDOF 4
ENDMDL
MODEL 3
REMARK VINA RESULT:    -6.937      3.620      4.866
REMARK INTER + INTRA:          -9.160
REMARK INTER:                  -8.617
REMARK INTRA:                  -0.543
REMARK UNBOUND:                -0.601
REMARK  Name = 
REMARK  4 active torsions:
REMARK  status: ('A' for Active; 'I' for Inactive)
REMARK    1  A    between atoms: C_2  and  C_5
REMARK    2  A    between atoms: C_7  and  O_8
REMARK    3  A    between atoms: O_8  and  C_9
REMARK    4  A    between atoms: C_9  and  C_10
REMARK                            x       y       z     vdW  Elec       q    Type
REMARK                         _______ _______ _______ _____ _____    ______ ____
ROOT
ATOM      1  C   UNL     1      47.270   6.809  12.888  0.00  0.00    +0.000 A 
ATOM      2  C   UNL     1      46.108   6.193  12.439  0.00  0.00    +0.000 A 
ATOM      3  C   UNL     1      45.672   5.068  13.113  0.00  0.00    +0.000 A 
ATOM      4  N   UNL     1      46.291   4.548  14.195  0.00  0.00    +0.000 NA
ATOM      5  C   UNL     1      47.391   5.167  14.676  0.00  0.00    +0.000 A 
ATOM      6  N   UNL     1      48.028   4.651  15.787  0.00  0.00    +0.000 N 
ATOM      7  C   UNL     1      47.907   3.227  16.094  0.00  0.00    +0.000 C 
ATOM      8  C   UNL     1      47.203   3.007  17.430  0.00  0.00    +0.000 C 
ATOM      9  C   UNL     1      47.842   3.837  18.541  0.00  0.00    +0.000 C 
ATOM     10  C   UNL     1      47.882   5.310  18.149  0.00  0.00    +0.000 C 
ATOM     11  C   UNL     1      48.602   5.515  16.815  0.00  0.00    +0.000 C 
ATOM     12  C   UNL     1      47.900   6.291  14.027  0.00  0.00    +0.000 A 
ENDROOT
BRANCH   1  14
ATOM     13  F   UNL     1      48.763   8.685  12.930  0.00  0.00    +0.000 F 
ATOM     14  C   UNL     1      47.876   7.983  12.174  0.00  0.00    +0.000 C 
ATOM     15  F   UNL     1      46.935   8.883  11.772  0.00  0.00    +0.000 F 
ATOM     16  F   UNL     1      48.548   7.619  11.048  0.00  0.00    +0.000 F 
ENDBRANCH   1  14
BRANCH   3  17
ATOM     17  O   UNL     1      44.510   4.491  12.639  0.00  0.00    +0.000 OA
BRANCH  17  18
ATOM     18  C   UNL     1      44.108   5.032  11.379  0.00  0.00    +0.000 C 
BRANCH  18  19
ATOM     19  C   UNL     1      44.627   4.166  10.252  0.00  0.00    +0.000 A 
ATOM     20  C   UNL     1      44.338   2.798  10.225  0.00  0.00    +0.000 A 
ATOM     21  C   UNL     1      44.770   2.042   9.145  0.00  0.00    +0.000 A 
ATOM     22  N   UNL     1      45.457   2.548   8.101  0.00  0.00    +0.000 NA
ATOM     23  C   UNL     1      45.718   3.872   8.137  0.00  0.00    +0.000 A 
ATOM     24  C   UNL     1      45.326   4.712   9.170  0.00  0.00    +0.000 A 
ENDBRANCH  18  19
ENDBRANCH  17  18
ENDBRANCH   3  17
TORSDOF 4
ENDMDL
MODEL 4
REMARK VINA RESULT:    -6.925      2.534      3.400
REMARK INTER + INTRA:          -9.145
REMARK INTER:                  -8.558
REMARK INTRA:                  -0.587
REMARK UNBOUND:                -0.601
REMARK  Name = 
REMARK  4 active torsions:
REMARK  status: ('A' for Active; 'I' for Inactive)
REMARK    1  A    between atoms: C_2  and  C_5
REMARK    2  A    between atoms: C_7  and  O_8
REMARK    3  A    between atoms: O_8  and  C_9
REMARK    4  A    between atoms: C_9  and  C_10
REMARK                            x       y       z     vdW  Elec       q    Type
REMARK                         _______ _______ _______ _____ _____    ______ ____
ROOT
ATOM      1  C   UNL     1      45.895   5.123  12.561  0.00  0.00    +0.000 A 
ATOM      2  C   UNL     1      45.431   4.461  11.430  0.00  0.00    +0.000 A 
ATOM      3  C   UNL     1      44.703   5.190  10.509  0.00  0.00    +0.000 A 
ATOM      4  N   UNL     1      44.440   6.509  10.627  0.00  0.00    +0.000 NA
ATOM      5  C   UNL     1      44.930   7.178  11.693  0.00  0.00    +0.000 A 
ATOM      6  N   UNL     1      44.675   8.529  11.822  0.00  0.00    +0.000 N 
ATOM      7  C   UNL     1      43.486   9.104  11.195  0.00  0.00    +0.000 C 
ATOM      8  C   UNL     1      43.865  10.127  10.128  0.00  0.00    +0.000 C 
ATOM      9  C   UNL     1      44.851  11.160  10.670  0.00  0.00    +0.000 C 
ATOM     10  C   UNL     1      46.075  10.468  11.260  0.00  0.00    +0.000 C 
ATOM     11  C   UNL     1      45.680   9.455  12.336  0.00  0.00    +0.000 C 
ATOM     12  C   UNL     1      45.648   6.497  12.675  0.00  0.00    +0.000 A 
ENDROOT
BRANCH   1  14
ATOM     13  F   UNL     1      46.011   4.511  14.876  0.00  0.00    +0.000 F 
ATOM     14  C   UNL     1      46.618   4.404  13.663  0.00  0.00    +0.000 C 
ATOM     15  F   UNL     1      47.886   4.871  13.839  0.00  0.00    +0.000 F 
ATOM     16  F   UNL     1      46.743   3.070  13.422  0.00  0.00    +0.000 F 
ENDBRANCH   1  14
BRANCH   3  17
ATOM     17  O   UNL     1      44.267   4.496   9.396  0.00  0.00    +0.000 OA
BRANCH  17  18
ATOM     18  C   UNL     1      44.530   3.095   9.491  0.00  0.00    +0.000 C 
BRANCH  18  19
ATOM     19  C   UNL     1      45.533   2.683   8.436  0.00  0.00    +0.000 A 
ATOM     20  C   UNL     1      46.012   1.369   8.396  0.00  0.00    +0.000 A 
ATOM     21  C   UNL     1      46.879   1.003   7.377  0.00  0.00    +0.000 A 
ATOM     22  N   UNL     1      47.294   1.841   6.405  0.00  0.00    +0.000 NA
ATOM     23  C   UNL     1      46.814   3.102   6.453  0.00  0.00    +0.000 A 
ATOM     24  C   UNL     1      45.940   3.562   7.427  0.00  0.00    +0.000 A 
ENDBRANCH  18  19
ENDBRANCH  17  18
ENDBRANCH   3  17
TORSDOF 4
ENDMDL
MODEL 5
REMARK VINA RESULT:    -6.742      3.532      6.226
REMARK INTER + INTRA:          -8.920
REMARK INTER:                  -8.399
REMARK INTRA:                  -0.521
REMARK UNBOUND:                -0.601
REMARK  Name = 
REMARK  4 active torsions:
REMARK  status: ('A' for Active; 'I' for Inactive)
REMARK    1  A    between atoms: C_2  and  C_5
REMARK    2  A    between atoms: C_7  and  O_8
REMARK    3  A    between atoms: O_8  and  C_9
REMARK    4  A    between atoms: C_9  and  C_10
REMARK                            x       y       z     vdW  Elec       q    Type
REMARK                         _______ _______ _______ _____ _____    ______ ____
ROOT
ATOM      1  C   UNL     1      45.058   3.864  11.820  0.00  0.00    +0.000 A 
ATOM      2  C   UNL     1      45.708   3.193  12.849  0.00  0.00    +0.000 A 
ATOM      3  C   UNL     1      46.728   3.853  13.507  0.00  0.00    +0.000 A 
ATOM      4  N   UNL     1      47.112   5.118  13.229  0.00  0.00    +0.000 NA
ATOM      5  C   UNL     1      46.454   5.803  12.268  0.00  0.00    +0.000 A 
ATOM      6  N   UNL     1      46.831   7.099  11.981  0.00  0.00    +0.000 N 
ATOM      7  C   UNL     1      48.201   7.532  12.252  0.00  0.00    +0.000 C 
ATOM      8  C   UNL     1      48.232   8.641  13.301  0.00  0.00    +0.000 C 
ATOM      9  C   UNL     1      47.274   9.775  12.941  0.00  0.00    +0.000 C 
ATOM     10  C   UNL     1      45.866   9.233  12.721  0.00  0.00    +0.000 C 
ATOM     11  C   UNL     1      45.850   8.132  11.660  0.00  0.00    +0.000 C 
ATOM     12  C   UNL     1      45.434   5.185  11.546  0.00  0.00    +0.000 A 
ENDROOT
BRANCH   1  14
ATOM     13  F   UNL     1      43.093   2.494  11.710  0.00  0.00    +0.000 F 
ATOM     14  C   UNL     1      43.998   3.205  10.985  0.00  0.00    +0.000 C 
ATOM     15  F   UNL     1      44.523   2.329  10.082  0.00  0.00    +0.000 F 
ATOM     16  F   UNL     1      43.276   4.101  10.257  0.00  0.00    +0.000 F 
ENDBRANCH   1  14
BRANCH   3  17
ATOM     17  O   UNL     1      47.343   3.154  14.527  0.00  0.00    +0.000 OA
BRANCH  17  18
ATOM     18  C   UNL     1      47.335   3.873  15.762  0.00  0.00    +0.000 C 
BRANCH  18  19
ATOM     19  C   UNL     1      48.617   3.616  16.522  0.00  0.00    +0.000 A 
ATOM     20  C   UNL     1      49.128   2.318  16.622  0.00  0.00    +0.000 A 
ATOM     21  C   UNL     1      50.341   2.123  17.268  0.00  0.00    +0.000 A 
ATOM     22  N   UNL     1      51.072   3.117  17.811  0.00  0.00    +0.000 NA
ATOM     23  C   UNL     1      50.569   4.365  17.696  0.00  0.00    +0.000 A 
ATOM     24  C   UNL     1      49.370   4.663  17.066  0.00  0.00    +0.000 A 
ENDBRANCH  18  19
ENDBRANCH  17  18
ENDBRANCH   3  17
TORSDOF 4
ENDMDL
MODEL 6
REMARK VINA RESULT:    -6.304      3.040      4.121
REMARK INTER + INTRA:          -8.379
REMARK INTER:                  -7.777
REMARK INTRA:                  -0.603
REMARK UNBOUND:                -0.601
REMARK  Name = 
REMARK  4 active torsions:
REMARK  status: ('A' for Active; 'I' for Inactive)
REMARK    1  A    between atoms: C_2  and  C_5
REMARK    2  A    between atoms: C_7  and  O_8
REMARK    3  A    between atoms: O_8  and  C_9
REMARK    4  A    between atoms: C_9  and  C_10
REMARK                            x       y       z     vdW  Elec       q    Type
REMARK                         _______ _______ _______ _____ _____    ______ ____
ROOT
ATOM      1  C   UNL     1      47.506   4.818  15.454  0.00  0.00    +0.000 A 
ATOM      2  C   UNL     1      46.465   4.411  14.628  0.00  0.00    +0.000 A 
ATOM      3  C   UNL     1      46.156   5.205  13.540  0.00  0.00    +0.000 A 
ATOM      4  N   UNL     1      46.821   6.335  13.216  0.00  0.00    +0.000 NA
ATOM      5  C   UNL     1      47.870   6.715  13.978  0.00  0.00    +0.000 A 
ATOM      6  N   UNL     1      48.564   7.863  13.653  0.00  0.00    +0.000 N 
ATOM      7  C   UNL     1      47.893   8.928  12.909  0.00  0.00    +0.000 C 
ATOM      8  C   UNL     1      48.546   9.148  11.547  0.00  0.00    +0.000 C 
ATOM      9  C   UNL     1      50.057   9.328  11.677  0.00  0.00    +0.000 C 
ATOM     10  C   UNL     1      50.672   8.149  12.424  0.00  0.00    +0.000 C 
ATOM     11  C   UNL     1      50.015   7.950  13.791  0.00  0.00    +0.000 C 
ATOM     12  C   UNL     1      48.217   5.974  15.107  0.00  0.00    +0.000 A 
ENDROOT
BRANCH   1  14
ATOM     13  F   UNL     1      47.257   4.562  17.825  0.00  0.00    +0.000 F 
ATOM     14  C   UNL     1      47.864   4.075  16.709  0.00  0.00    +0.000 C 
ATOM     15  F   UNL     1      49.202   4.111  16.966  0.00  0.00    +0.000 F 
ATOM     16  F   UNL     1      47.532   2.756  16.647  0.00  0.00    +0.000 F 
ENDBRANCH   1  14
BRANCH   3  17
ATOM     17  O   UNL     1      45.119   4.762  12.742  0.00  0.00    +0.000 OA
BRANCH  17  18
ATOM     18  C   UNL     1      45.041   5.475  11.506  0.00  0.00    +0.000 C 
BRANCH  18  19
ATOM     19  C   UNL     1      45.056   4.507  10.345  0.00  0.00    +0.000 A 
ATOM     20  C   UNL     1      45.588   4.895   9.111  0.00  0.00    +0.000 A 
ATOM     21  C   UNL     1      45.649   3.965   8.084  0.00  0.00    +0.000 A 
ATOM     22  N   UNL     1      45.226   2.689   8.199  0.00  0.00    +0.000 NA
ATOM     23  C   UNL     1      44.726   2.328   9.400  0.00  0.00    +0.000 A 
ATOM     24  C   UNL     1      44.626   3.183  10.488  0.00  0.00    +0.000 A 
ENDBRANCH  18  19
ENDBRANCH  17  18
ENDBRANCH   3  17
TORSDOF 4
ENDMDL
MODEL 7
REMARK VINA RESULT:    -6.298      3.830      5.195
REMARK INTER + INTRA:          -8.372
REMARK INTER:                  -7.846
REMARK INTRA:                  -0.526
REMARK UNBOUND:                -0.601
REMARK  Name = 
REMARK  4 active torsions:
REMARK  status: ('A' for Active; 'I' for Inactive)
REMARK    1  A    between atoms: C_2  and  C_5
REMARK    2  A    between atoms: C_7  and  O_8
REMARK    3  A    between atoms: O_8  and  C_9
REMARK    4  A    between atoms: C_9  and  C_10
REMARK                            x       y       z     vdW  Elec       q    Type
REMARK                         _______ _______ _______ _____ _____    ______ ____
ROOT
ATOM      1  C   UNL     1      48.146   7.003  13.161  0.00  0.00    +0.000 A 
ATOM      2  C   UNL     1      47.218   6.065  12.722  0.00  0.00    +0.000 A 
ATOM      3  C   UNL     1      46.883   5.038  13.582  0.00  0.00    +0.000 A 
ATOM      4  N   UNL     1      47.380   4.904  14.831  0.00  0.00    +0.000 NA
ATOM      5  C   UNL     1      48.241   5.837  15.292  0.00  0.00    +0.000 A 
ATOM      6  N   UNL     1      48.750   5.717  16.570  0.00  0.00    +0.000 N 
ATOM      7  C   UNL     1      48.841   4.398  17.192  0.00  0.00    +0.000 C 
ATOM      8  C   UNL     1      47.958   4.311  18.435  0.00  0.00    +0.000 C 
ATOM      9  C   UNL     1      48.221   5.475  19.388  0.00  0.00    +0.000 C 
ATOM     10  C   UNL     1      48.059   6.806  18.661  0.00  0.00    +0.000 C 
ATOM     11  C   UNL     1      48.959   6.882  17.427  0.00  0.00    +0.000 C 
ATOM     12  C   UNL     1      48.644   6.885  14.465  0.00  0.00    +0.000 A 
ENDROOT
BRANCH   1  14
ATOM     13  F   UNL     1      49.734   8.755  12.765  0.00  0.00    +0.000 F 
ATOM     14  C   UNL     1      48.644   8.106  12.273  0.00  0.00    +0.000 C 
ATOM     15  F   UNL     1      47.700   9.068  12.067  0.00  0.00    +0.000 F 
ATOM     16  F   UNL     1      48.998   7.662  11.037  0.00  0.00    +0.000 F 
ENDBRANCH   1  14
BRANCH   3  17
ATOM     17  O   UNL     1      45.953   4.131  13.110  0.00  0.00    +0.000 OA
BRANCH  17  18
ATOM     18  C   UNL     1      44.939   4.755  12.320  0.00  0.00    +0.000 C 
BRANCH  18  19
ATOM     19  C   UNL     1      44.944   4.182  10.920  0.00  0.00    +0.000 A 
ATOM     20  C   UNL     1      45.382   4.961   9.844  0.00  0.00    +0.000 A 
ATOM     21  C   UNL     1      45.439   4.387   8.581  0.00  0.00    +0.000 A 
ATOM     22  N   UNL     1      45.098   3.109   8.320  0.00  0.00    +0.000 NA
ATOM     23  C   UNL     1      44.688   2.369   9.372  0.00  0.00    +0.000 A 
ATOM     24  C   UNL     1      44.601   2.849  10.671  0.00  0.00    +0.000 A 
ENDBRANCH  18  19
ENDBRANCH  17  18
ENDBRANCH   3  17
TORSDOF 4
ENDMDL
MODEL 8
REMARK VINA RESULT:    -6.217      4.421      8.246
REMARK INTER + INTRA:          -8.272
REMARK INTER:                  -7.754
REMARK INTRA:                  -0.519
REMARK UNBOUND:                -0.601
REMARK  Name = 
REMARK  4 active torsions:
REMARK  status: ('A' for Active; 'I' for Inactive)
REMARK    1  A    between atoms: C_2  and  C_5
REMARK    2  A    between atoms: C_7  and  O_8
REMARK    3  A    between atoms: O_8  and  C_9
REMARK    4  A    between atoms: C_9  and  C_10
REMARK                            x       y       z     vdW  Elec       q    Type
REMARK                         _______ _______ _______ _____ _____    ______ ____
ROOT
ATOM      1  C   UNL     1      47.714   7.278  12.811  0.00  0.00    +0.000 A 
ATOM      2  C   UNL     1      48.255   6.624  13.913  0.00  0.00    +0.000 A 
ATOM      3  C   UNL     1      47.590   5.514  14.394  0.00  0.00    +0.000 A 
ATOM      4  N   UNL     1      46.464   5.009  13.844  0.00  0.00    +0.000 NA
ATOM      5  C   UNL     1      45.956   5.601  12.741  0.00  0.00    +0.000 A 
ATOM      6  N   UNL     1      44.811   5.090  12.164  0.00  0.00    +0.000 N 
ATOM      7  C   UNL     1      43.861   4.338  12.982  0.00  0.00    +0.000 C 
ATOM      8  C   UNL     1      43.743   2.893  12.504  0.00  0.00    +0.000 C 
ATOM      9  C   UNL     1      43.472   2.823  11.003  0.00  0.00    +0.000 C 
ATOM     10  C   UNL     1      44.538   3.596  10.233  0.00  0.00    +0.000 C 
ATOM     11  C   UNL     1      44.634   5.044  10.715  0.00  0.00    +0.000 C 
ATOM     12  C   UNL     1      46.562   6.743  12.220  0.00  0.00    +0.000 A 
ENDROOT
BRANCH   1  14
ATOM     13  F   UNL     1      47.385   9.427  11.799  0.00  0.00    +0.000 F 
ATOM     14  C   UNL     1      48.309   8.544  12.266  0.00  0.00    +0.000 C 
ATOM     15  F   UNL     1      49.158   8.308  11.226  0.00  0.00    +0.000 F 
ATOM     16  F   UNL     1      49.038   9.221  13.195  0.00  0.00    +0.000 F 
ENDBRANCH   1  14
BRANCH   3  17
ATOM     17  O   UNL     1      48.164   4.890  15.485  0.00  0.00    +0.000 OA
BRANCH  17  18
ATOM     18  C   UNL     1      47.189   4.313  16.356  0.00  0.00    +0.000 C 
BRANCH  18  19
ATOM     19  C   UNL     1      47.536   4.616  17.797  0.00  0.00    +0.000 A 
ATOM     20  C   UNL     1      48.509   3.862  18.461  0.00  0.00    +0.000 A 
ATOM     21  C   UNL     1      48.853   4.206  19.760  0.00  0.00    +0.000 A 
ATOM     22  N   UNL     1      48.305   5.237  20.435  0.00  0.00    +0.000 NA
ATOM     23  C   UNL     1      47.375   5.961  19.776  0.00  0.00    +0.000 A 
ATOM     24  C   UNL     1      46.967   5.699  18.476  0.00  0.00    +0.000 A 
ENDBRANCH  18  19
ENDBRANCH  17  18
ENDBRANCH   3  17
TORSDOF 4
ENDMDL
MODEL 9
REMARK VINA RESULT:    -6.118      4.159      7.949
REMARK INTER + INTRA:          -8.150
REMARK INTER:                  -7.554
REMARK INTRA:                  -0.596
REMARK UNBOUND:                -0.601
REMARK  Name = 
REMARK  4 active torsions:
REMARK  status: ('A' for Active; 'I' for Inactive)
REMARK    1  A    between atoms: C_2  and  C_5
REMARK    2  A    between atoms: C_7  and  O_8
REMARK    3  A    between atoms: O_8  and  C_9
REMARK    4  A    between atoms: C_9  and  C_10
REMARK                            x       y       z     vdW  Elec       q    Type
REMARK                         _______ _______ _______ _____ _____    ______ ____
ROOT
ATOM      1  C   UNL     1      47.839   7.139  12.837  0.00  0.00    +0.000 A 
ATOM      2  C   UNL     1      48.299   6.515  13.991  0.00  0.00    +0.000 A 
ATOM      3  C   UNL     1      47.557   5.467  14.497  0.00  0.00    +0.000 A 
ATOM      4  N   UNL     1      46.428   4.994  13.925  0.00  0.00    +0.000 NA
ATOM      5  C   UNL     1      45.997   5.553  12.774  0.00  0.00    +0.000 A 
ATOM      6  N   UNL     1      44.850   5.074  12.174  0.00  0.00    +0.000 N 
ATOM      7  C   UNL     1      43.830   4.415  12.987  0.00  0.00    +0.000 C 
ATOM      8  C   UNL     1      43.654   2.955  12.576  0.00  0.00    +0.000 C 
ATOM      9  C   UNL     1      43.440   2.822  11.070  0.00  0.00    +0.000 C 
ATOM     10  C   UNL     1      44.575   3.499  10.309  0.00  0.00    +0.000 C 
ATOM     11  C   UNL     1      44.730   4.963  10.723  0.00  0.00    +0.000 C 
ATOM     12  C   UNL     1      46.685   6.635  12.224  0.00  0.00    +0.000 A 
ENDROOT
BRANCH   1  14
ATOM     13  F   UNL     1      49.263   9.041  13.159  0.00  0.00    +0.000 F 
ATOM     14  C   UNL     1      48.522   8.343  12.256  0.00  0.00    +0.000 C 
ATOM     15  F   UNL     1      47.636   9.236  11.731  0.00  0.00    +0.000 F 
ATOM     16  F   UNL     1      49.372   8.022  11.242  0.00  0.00    +0.000 F 
ENDBRANCH   1  14
BRANCH   3  17
ATOM     17  O   UNL     1      48.052   4.871  15.641  0.00  0.00    +0.000 OA
BRANCH  17  18
ATOM     18  C   UNL     1      48.631   5.817  16.541  0.00  0.00    +0.000 C 
BRANCH  18  19
ATOM     19  C   UNL     1      49.991   5.338  16.997  0.00  0.00    +0.000 A 
ATOM     20  C   UNL     1      50.136   4.067  17.563  0.00  0.00    +0.000 A 
ATOM     21  C   UNL     1      51.406   3.629  17.910  0.00  0.00    +0.000 A 
ATOM     22  N   UNL     1      52.527   4.356  17.731  0.00  0.00    +0.000 NA
ATOM     23  C   UNL     1      52.370   5.575  17.173  0.00  0.00    +0.000 A 
ATOM     24  C   UNL     1      51.145   6.101  16.789  0.00  0.00    +0.000 A 
ENDBRANCH  18  19
ENDBRANCH  17  18
ENDBRANCH   3  17
TORSDOF 4
ENDMDL
