MODEL 1
REMARK VINA RESULT:    -9.156      0.000      0.000
REMARK INTER + INTRA:         -11.624
REMARK INTER:                 -11.297
REMARK INTRA:                  -0.327
REMARK UNBOUND:                -0.327
REMARK  Name = 
REMARK  6 active torsions:
REMARK  status: ('A' for Active; 'I' for Inactive)
REMARK    1  A    between atoms: C_1  and  C_2
REMARK    2  A    between atoms: N_4  and  C_5
REMARK    3  A    between atoms: C_10  and  C_11
REMARK    4  A    between atoms: C_11  and  N_12
REMARK    5  A    between atoms: C_16  and  C_17
REMARK    6  A    between atoms: C_26  and  C_27
REMARK                            x       y       z     vdW  Elec       q    Type
REMARK                         _______ _______ _______ _____ _____    ______ ____
ROOT
ATOM      1  C   UNL     1      46.914   6.940  13.181  0.00  0.00    +0.000 A 
ATOM      2  C   UNL     1      47.320   5.884  14.000  0.00  0.00    +0.000 A 
ATOM      3  C   UNL     1      46.730   4.624  13.895  0.00  0.00    +0.000 A 
ATOM      4 CL   UNL     1      47.238   3.359  14.947  0.00  0.00    +0.000 Cl
ATOM      5  C   UNL     1      45.721   4.390  12.974  0.00  0.00    +0.000 A 
ATOM      6  C   UNL     1      45.231   5.422  12.168  0.00  0.00    +0.000 A 
ATOM      7  C   UNL     1      45.863   6.679  12.285  0.00  0.00    +0.000 A 
ENDROOT
BRANCH   1  11
ATOM      8  C   UNL     1      50.160   8.119  11.611  0.00  0.00    +0.000 C 
ATOM      9  C   UNL     1      49.774   9.074  12.745  0.00  0.00    +0.000 C 
ATOM     10  C   UNL     1      48.869   8.377  13.792  0.00  0.00    +0.000 C 
ATOM     11  N   UNL     1      47.511   8.182  13.266  0.00  0.00    +0.000 N 
ATOM     12  C   UNL     1      46.873   9.381  12.699  0.00  0.00    +0.000 C 
ATOM     13  C   UNL     1      47.820  10.074  11.680  0.00  0.00    +0.000 C 
ATOM     14  C   UNL     1      47.213  11.399  11.218  0.00  0.00    +0.000 C 
ATOM     15  N   UNL     1      49.180  10.329  12.217  0.00  0.00    +0.000 NA
ATOM     16  H   UNL     1      49.082  10.975  13.003  0.00  0.00    +0.000 HD
ENDBRANCH   1  11
BRANCH   6  17
ATOM     17  C   UNL     1      44.044   5.193  11.235  0.00  0.00    +0.000 C 
ATOM     18  C   UNL     1      42.658   5.558  11.728  0.00  0.00    +0.000 C 
ATOM     19  C   UNL     1      43.037   4.119  11.672  0.00  0.00    +0.000 C 
BRANCH  17  20
ATOM     20  N   UNL     1      44.390   5.131   9.819  0.00  0.00    +0.000 N 
ATOM     21  C   UNL     1      45.081   4.143   9.136  0.00  0.00    +0.000 A 
ATOM     22  C   UNL     1      45.213   2.827   9.539  0.00  0.00    +0.000 A 
ATOM     23  C   UNL     1      45.930   1.929   8.733  0.00  0.00    +0.000 A 
ATOM     24  C   UNL     1      46.494   2.370   7.538  0.00  0.00    +0.000 A 
ATOM     25  C   UNL     1      46.286   3.693   7.202  0.00  0.00    +0.000 A 
ATOM     26  N   UNL     1      45.607   4.579   7.973  0.00  0.00    +0.000 NA
ATOM     27  H   UNL     1      44.545   6.003   9.317  0.00  0.00    +0.000 HD
BRANCH  24  28
ATOM     28  C   UNL     1      47.266   1.429   6.693  0.00  0.00    +0.000 C 
ATOM     29  N   UNL     1      48.241   1.925   5.868  0.00  0.00    +0.000 N 
ATOM     30  O   UNL     1      47.060   0.228   6.733  0.00  0.00    +0.000 OA
ATOM     31  H   UNL     1      48.510   2.892   5.770  0.00  0.00    +0.000 HD
ATOM     32  H   UNL     1      48.754   1.245   5.320  0.00  0.00    +0.000 HD
ENDBRANCH  24  28
ENDBRANCH  17  20
ENDBRANCH   6  17
TORSDOF 4
ENDMDL
MODEL 2
REMARK VINA RESULT:    -8.864      2.332      3.640
REMARK INTER + INTRA:         -11.264
REMARK INTER:                 -11.354
REMARK INTRA:                   0.090
REMARK UNBOUND:                -0.327
REMARK  Name = 
REMARK  6 active torsions:
REMARK  status: ('A' for Active; 'I' for Inactive)
REMARK    1  A    between atoms: C_1  and  C_2
REMARK    2  A    between atoms: N_4  and  C_5
REMARK    3  A    between atoms: C_10  and  C_11
REMARK    4  A    between atoms: C_11  and  N_12
REMARK    5  A    between atoms: C_16  and  C_17
REMARK    6  A    between atoms: C_26  and  C_27
REMARK                            x       y       z     vdW  Elec       q    Type
REMARK                         _______ _______ _______ _____ _____    ______ ____
ROOT
ATOM      1  C   UNL     1      46.749   6.572  13.253  0.00  0.00    +0.000 A 
ATOM      2  C   UNL     1      46.692   7.955  13.068  0.00  0.00    +0.000 A 
ATOM      3  C   UNL     1      45.673   8.540  12.318  0.00  0.00    +0.000 A 
ATOM      4 CL   UNL     1      45.660  10.247  12.087  0.00  0.00    +0.000 Cl
ATOM      5  C   UNL     1      44.689   7.759  11.732  0.00  0.00    +0.000 A 
ATOM      6  C   UNL     1      44.725   6.365  11.832  0.00  0.00    +0.000 A 
ATOM      7  C   UNL     1      45.758   5.807  12.615  0.00  0.00    +0.000 A 
ENDROOT
BRANCH   1  11
ATOM      8  C   UNL     1      48.456   7.937  16.354  0.00  0.00    +0.000 C 
ATOM      9  C   UNL     1      49.314   6.814  15.761  0.00  0.00    +0.000 C 
ATOM     10  C   UNL     1      49.046   6.634  14.245  0.00  0.00    +0.000 C 
ATOM     11  N   UNL     1      47.745   5.992  14.015  0.00  0.00    +0.000 N 
ATOM     12  C   UNL     1      47.509   4.749  14.767  0.00  0.00    +0.000 C 
ATOM     13  C   UNL     1      47.821   4.955  16.275  0.00  0.00    +0.000 C 
ATOM     14  C   UNL     1      47.726   3.621  17.017  0.00  0.00    +0.000 C 
ATOM     15  N   UNL     1      49.157   5.550  16.526  0.00  0.00    +0.000 NA
ATOM     16  H   UNL     1      49.856   4.893  16.175  0.00  0.00    +0.000 HD
ENDBRANCH   1  11
BRANCH   6  17
ATOM     17  C   UNL     1      43.706   5.499  11.093  0.00  0.00    +0.000 C 
ATOM     18  C   UNL     1      42.278   5.474  11.600  0.00  0.00    +0.000 C 
ATOM     19  C   UNL     1      43.151   4.296  11.869  0.00  0.00    +0.000 C 
BRANCH  17  20
ATOM     20  N   UNL     1      44.061   5.193   9.712  0.00  0.00    +0.000 N 
ATOM     21  C   UNL     1      44.774   4.112   9.218  0.00  0.00    +0.000 A 
ATOM     22  C   UNL     1      44.929   2.892   9.849  0.00  0.00    +0.000 A 
ATOM     23  C   UNL     1      45.667   1.878   9.218  0.00  0.00    +0.000 A 
ATOM     24  C   UNL     1      46.230   2.110   7.965  0.00  0.00    +0.000 A 
ATOM     25  C   UNL     1      45.999   3.348   7.397  0.00  0.00    +0.000 A 
ATOM     26  N   UNL     1      45.298   4.344   7.997  0.00  0.00    +0.000 NA
ATOM     27  H   UNL     1      44.203   5.964   9.062  0.00  0.00    +0.000 HD
BRANCH  24  28
ATOM     28  C   UNL     1      47.024   1.048   7.303  0.00  0.00    +0.000 C 
ATOM     29  N   UNL     1      46.792  -0.260   7.639  0.00  0.00    +0.000 N 
ATOM     30  O   UNL     1      47.862   1.318   6.461  0.00  0.00    +0.000 OA
ATOM     31  H   UNL     1      46.112  -0.598   8.303  0.00  0.00    +0.000 HD
ATOM     32  H   UNL     1      47.347  -0.953   7.151  0.00  0.00    +0.000 HD
ENDBRANCH  24  28
ENDBRANCH  17  20
ENDBRANCH   6  17
TORSDOF 4
ENDMDL
MODEL 3
REMARK VINA RESULT:    -7.808      3.880      6.552
REMARK INTER + INTRA:          -9.960
REMARK INTER:                  -8.901
REMARK INTRA:                  -1.060
REMARK UNBOUND:                -0.327
REMARK  Name = 
REMARK  6 active torsions:
REMARK  status: ('A' for Active; 'I' for Inactive)
REMARK    1  A    between atoms: C_1  and  C_2
REMARK    2  A    between atoms: N_4  and  C_5
REMARK    3  A    between atoms: C_10  and  C_11
REMARK    4  A    between atoms: C_11  and  N_12
REMARK    5  A    between atoms: C_16  and  C_17
REMARK    6  A    between atoms: C_26  and  C_27
REMARK                            x       y       z     vdW  Elec       q    Type
REMARK                         _______ _______ _______ _____ _____    ______ ____
ROOT
ATOM      1  C   UNL     1      48.860   6.867  17.122  0.00  0.00    +0.000 A 
ATOM      2  C   UNL     1      48.593   8.108  17.705  0.00  0.00    +0.000 A 
ATOM      3  C   UNL     1      48.248   9.210  16.924  0.00  0.00    +0.000 A 
ATOM      4 CL   UNL     1      47.960  10.730  17.680  0.00  0.00    +0.000 Cl
ATOM      5  C   UNL     1      48.163   9.100  15.544  0.00  0.00    +0.000 A 
ATOM      6  C   UNL     1      48.475   7.900  14.899  0.00  0.00    +0.000 A 
ATOM      7  C   UNL     1      48.802   6.800  15.720  0.00  0.00    +0.000 A 
ENDROOT
BRANCH   1  11
ATOM      8  C   UNL     1      47.832   3.248  16.634  0.00  0.00    +0.000 C 
ATOM      9  C   UNL     1      48.313   3.443  18.075  0.00  0.00    +0.000 C 
ATOM     10  C   UNL     1      48.165   4.918  18.530  0.00  0.00    +0.000 C 
ATOM     11  N   UNL     1      49.181   5.768  17.895  0.00  0.00    +0.000 N 
ATOM     12  C   UNL     1      50.569   5.293  18.015  0.00  0.00    +0.000 C 
ATOM     13  C   UNL     1      50.676   3.803  17.585  0.00  0.00    +0.000 C 
ATOM     14  C   UNL     1      52.085   3.278  17.864  0.00  0.00    +0.000 C 
ATOM     15  N   UNL     1      49.692   2.922  18.262  0.00  0.00    +0.000 NA
ATOM     16  H   UNL     1      49.895   2.947  19.263  0.00  0.00    +0.000 HD
ENDBRANCH   1  11
BRANCH   6  17
ATOM     17  C   UNL     1      48.492   7.810  13.374  0.00  0.00    +0.000 C 
ATOM     18  C   UNL     1      49.771   7.369  12.691  0.00  0.00    +0.000 C 
ATOM     19  C   UNL     1      49.401   8.811  12.647  0.00  0.00    +0.000 C 
BRANCH  17  20
ATOM     20  N   UNL     1      47.176   7.661  12.762  0.00  0.00    +0.000 N 
ATOM     21  C   UNL     1      46.446   6.503  12.544  0.00  0.00    +0.000 A 
ATOM     22  C   UNL     1      46.599   5.313  13.230  0.00  0.00    +0.000 A 
ATOM     23  C   UNL     1      45.773   4.224  12.912  0.00  0.00    +0.000 A 
ATOM     24  C   UNL     1      44.808   4.355  11.916  0.00  0.00    +0.000 A 
ATOM     25  C   UNL     1      44.707   5.589  11.305  0.00  0.00    +0.000 A 
ATOM     26  N   UNL     1      45.504   6.650  11.590  0.00  0.00    +0.000 NA
ATOM     27  H   UNL     1      46.890   8.331  12.051  0.00  0.00    +0.000 HD
BRANCH  24  28
ATOM     28  C   UNL     1      43.946   3.201  11.566  0.00  0.00    +0.000 C 
ATOM     29  N   UNL     1      43.718   2.233  12.508  0.00  0.00    +0.000 N 
ATOM     30  O   UNL     1      43.427   3.111  10.466  0.00  0.00    +0.000 OA
ATOM     31  H   UNL     1      44.076   2.217  13.450  0.00  0.00    +0.000 HD
ATOM     32  H   UNL     1      43.111   1.471  12.231  0.00  0.00    +0.000 HD
ENDBRANCH  24  28
ENDBRANCH  17  20
ENDBRANCH   6  17
TORSDOF 4
ENDMDL
MODEL 4
REMARK VINA RESULT:    -7.256      4.479      8.624
REMARK INTER + INTRA:          -9.279
REMARK INTER:                  -8.398
REMARK INTRA:                  -0.881
REMARK UNBOUND:                -0.327
REMARK  Name = 
REMARK  6 active torsions:
REMARK  status: ('A' for Active; 'I' for Inactive)
REMARK    1  A    between atoms: C_1  and  C_2
REMARK    2  A    between atoms: N_4  and  C_5
REMARK    3  A    between atoms: C_10  and  C_11
REMARK    4  A    between atoms: C_11  and  N_12
REMARK    5  A    between atoms: C_16  and  C_17
REMARK    6  A    between atoms: C_26  and  C_27
REMARK                            x       y       z     vdW  Elec       q    Type
REMARK                         _______ _______ _______ _____ _____    ______ ____
ROOT
ATOM      1  C   UNL     1      45.922   6.506  12.277  0.00  0.00    +0.000 A 
ATOM      2  C   UNL     1      45.210   7.684  12.043  0.00  0.00    +0.000 A 
ATOM      3  C   UNL     1      45.733   8.925  12.405  0.00  0.00    +0.000 A 
ATOM      4 CL   UNL     1      44.807  10.350  12.130  0.00  0.00    +0.000 Cl
ATOM      5  C   UNL     1      46.976   9.019  13.012  0.00  0.00    +0.000 A 
ATOM      6  C   UNL     1      47.710   7.871  13.325  0.00  0.00    +0.000 A 
ATOM      7  C   UNL     1      47.161   6.633  12.927  0.00  0.00    +0.000 A 
ENDROOT
BRANCH   1  11
ATOM      8  C   UNL     1      42.297   5.450  11.907  0.00  0.00    +0.000 C 
ATOM      9  C   UNL     1      43.177   4.199  12.007  0.00  0.00    +0.000 C 
ATOM     10  C   UNL     1      44.506   4.497  12.747  0.00  0.00    +0.000 C 
ATOM     11  N   UNL     1      45.416   5.277  11.899  0.00  0.00    +0.000 N 
ATOM     12  C   UNL     1      45.648   4.735  10.551  0.00  0.00    +0.000 C 
ATOM     13  C   UNL     1      44.298   4.415   9.850  0.00  0.00    +0.000 C 
ATOM     14  C   UNL     1      44.552   3.707   8.519  0.00  0.00    +0.000 C 
ATOM     15  N   UNL     1      43.389   3.579  10.674  0.00  0.00    +0.000 NA
ATOM     16  H   UNL     1      43.854   2.681  10.825  0.00  0.00    +0.000 HD
ENDBRANCH   1  11
BRANCH   6  17
ATOM     17  C   UNL     1      49.026   7.967  14.094  0.00  0.00    +0.000 C 
ATOM     18  C   UNL     1      49.531   9.340  14.493  0.00  0.00    +0.000 C 
ATOM     19  C   UNL     1      50.193   8.640  13.357  0.00  0.00    +0.000 C 
BRANCH  17  20
ATOM     20  N   UNL     1      49.404   6.749  14.802  0.00  0.00    +0.000 N 
ATOM     21  C   UNL     1      49.212   6.425  16.136  0.00  0.00    +0.000 A 
ATOM     22  C   UNL     1      48.260   6.979  16.970  0.00  0.00    +0.000 A 
ATOM     23  C   UNL     1      48.169   6.539  18.300  0.00  0.00    +0.000 A 
ATOM     24  C   UNL     1      49.033   5.548  18.761  0.00  0.00    +0.000 A 
ATOM     25  C   UNL     1      49.932   5.031  17.849  0.00  0.00    +0.000 A 
ATOM     26  N   UNL     1      50.042   5.452  16.564  0.00  0.00    +0.000 NA
ATOM     27  H   UNL     1      50.226   6.237  14.487  0.00  0.00    +0.000 HD
BRANCH  24  28
ATOM     28  C   UNL     1      48.951   5.092  20.169  0.00  0.00    +0.000 C 
ATOM     29  N   UNL     1      48.544   3.809  20.428  0.00  0.00    +0.000 N 
ATOM     30  O   UNL     1      49.255   5.830  21.091  0.00  0.00    +0.000 OA
ATOM     31  H   UNL     1      48.291   3.111  19.747  0.00  0.00    +0.000 HD
ATOM     32  H   UNL     1      48.518   3.536  21.404  0.00  0.00    +0.000 HD
ENDBRANCH  24  28
ENDBRANCH  17  20
ENDBRANCH   6  17
TORSDOF 4
ENDMDL
MODEL 5
REMARK VINA RESULT:    -6.987      3.510      6.454
REMARK INTER + INTRA:          -8.948
REMARK INTER:                  -8.066
REMARK INTRA:                  -0.882
REMARK UNBOUND:                -0.327
REMARK  Name = 
REMARK  6 active torsions:
REMARK  status: ('A' for Active; 'I' for Inactive)
REMARK    1  A    between atoms: C_1  and  C_2
REMARK    2  A    between atoms: N_4  and  C_5
REMARK    3  A    between atoms: C_10  and  C_11
REMARK    4  A    between atoms: C_11  and  N_12
REMARK    5  A    between atoms: C_16  and  C_17
REMARK    6  A    between atoms: C_26  and  C_27
REMARK                            x       y       z     vdW  Elec       q    Type
REMARK                         _______ _______ _______ _____ _____    ______ ____
ROOT
ATOM      1  C   UNL     1      49.782   6.536  16.102  0.00  0.00    +0.000 A 
ATOM      2  C   UNL     1      51.100   6.973  15.947  0.00  0.00    +0.000 A 
ATOM      3  C   UNL     1      51.422   7.980  15.038  0.00  0.00    +0.000 A 
ATOM      4 CL   UNL     1      53.065   8.465  14.855  0.00  0.00    +0.000 Cl
ATOM      5  C   UNL     1      50.439   8.572  14.261  0.00  0.00    +0.000 A 
ATOM      6  C   UNL     1      49.112   8.138  14.329  0.00  0.00    +0.000 A 
ATOM      7  C   UNL     1      48.817   7.131  15.272  0.00  0.00    +0.000 A 
ENDROOT
BRANCH   1  11
ATOM      8  C   UNL     1      47.039   3.924  15.896  0.00  0.00    +0.000 C 
ATOM      9  C   UNL     1      47.500   4.054  17.351  0.00  0.00    +0.000 C 
ATOM     10  C   UNL     1      48.125   5.446  17.627  0.00  0.00    +0.000 C 
ATOM     11  N   UNL     1      49.457   5.554  17.017  0.00  0.00    +0.000 N 
ATOM     12  C   UNL     1      50.389   4.461  17.333  0.00  0.00    +0.000 C 
ATOM     13  C   UNL     1      49.721   3.081  17.079  0.00  0.00    +0.000 C 
ATOM     14  C   UNL     1      50.639   1.957  17.560  0.00  0.00    +0.000 C 
ATOM     15  N   UNL     1      48.398   2.936  17.737  0.00  0.00    +0.000 NA
ATOM     16  H   UNL     1      48.549   3.000  18.746  0.00  0.00    +0.000 HD
ENDBRANCH   1  11
BRANCH   6  17
ATOM     17  C   UNL     1      48.050   8.712  13.393  0.00  0.00    +0.000 C 
ATOM     18  C   UNL     1      48.506   9.428  12.137  0.00  0.00    +0.000 C 
ATOM     19  C   UNL     1      48.004  10.242  13.279  0.00  0.00    +0.000 C 
BRANCH  17  20
ATOM     20  N   UNL     1      46.735   8.093  13.517  0.00  0.00    +0.000 N 
ATOM     21  C   UNL     1      46.144   7.141  12.702  0.00  0.00    +0.000 A 
ATOM     22  C   UNL     1      46.813   6.267  11.866  0.00  0.00    +0.000 A 
ATOM     23  C   UNL     1      46.080   5.340  11.109  0.00  0.00    +0.000 A 
ATOM     24  C   UNL     1      44.691   5.307  11.212  0.00  0.00    +0.000 A 
ATOM     25  C   UNL     1      44.110   6.196  12.095  0.00  0.00    +0.000 A 
ATOM     26  N   UNL     1      44.801   7.107  12.826  0.00  0.00    +0.000 NA
ATOM     27  H   UNL     1      45.982   8.629  13.943  0.00  0.00    +0.000 HD
BRANCH  24  28
ATOM     28  C   UNL     1      43.912   4.341  10.401  0.00  0.00    +0.000 C 
ATOM     29  N   UNL     1      43.916   4.465   9.037  0.00  0.00    +0.000 N 
ATOM     30  O   UNL     1      43.287   3.435  10.926  0.00  0.00    +0.000 OA
ATOM     31  H   UNL     1      44.412   5.158   8.499  0.00  0.00    +0.000 HD
ATOM     32  H   UNL     1      43.383   3.774   8.522  0.00  0.00    +0.000 HD
ENDBRANCH  24  28
ENDBRANCH  17  20
ENDBRANCH   6  17
TORSDOF 4
ENDMDL
MODEL 6
REMARK VINA RESULT:    -6.691      5.422      7.635
REMARK INTER + INTRA:          -8.583
REMARK INTER:                  -7.812
REMARK INTRA:                  -0.771
REMARK UNBOUND:                -0.327
REMARK  Name = 
REMARK  6 active torsions:
REMARK  status: ('A' for Active; 'I' for Inactive)
REMARK    1  A    between atoms: C_1  and  C_2
REMARK    2  A    between atoms: N_4  and  C_5
REMARK    3  A    between atoms: C_10  and  C_11
REMARK    4  A    between atoms: C_11  and  N_12
REMARK    5  A    between atoms: C_16  and  C_17
REMARK    6  A    between atoms: C_26  and  C_27
REMARK                            x       y       z     vdW  Elec       q    Type
REMARK                         _______ _______ _______ _____ _____    ______ ____
ROOT
ATOM      1  C   UNL     1      48.189   6.914  14.145  0.00  0.00    +0.000 A 
ATOM      2  C   UNL     1      47.345   6.186  13.303  0.00  0.00    +0.000 A 
ATOM      3  C   UNL     1      46.795   4.972  13.712  0.00  0.00    +0.000 A 
ATOM      4 CL   UNL     1      45.786   4.090  12.630  0.00  0.00    +0.000 Cl
ATOM      5  C   UNL     1      47.077   4.454  14.967  0.00  0.00    +0.000 A 
ATOM      6  C   UNL     1      47.961   5.107  15.830  0.00  0.00    +0.000 A 
ATOM      7  C   UNL     1      48.484   6.343  15.394  0.00  0.00    +0.000 A 
ENDROOT
BRANCH   1  11
ATOM      8  C   UNL     1      50.497   7.660  11.228  0.00  0.00    +0.000 C 
ATOM      9  C   UNL     1      50.549   8.826  12.220  0.00  0.00    +0.000 C 
ATOM     10  C   UNL     1      50.162   8.373  13.651  0.00  0.00    +0.000 C 
ATOM     11  N   UNL     1      48.717   8.129  13.752  0.00  0.00    +0.000 N 
ATOM     12  C   UNL     1      47.855   9.219  13.268  0.00  0.00    +0.000 C 
ATOM     13  C   UNL     1      48.291   9.674  11.847  0.00  0.00    +0.000 C 
ATOM     14  C   UNL     1      47.495  10.907  11.423  0.00  0.00    +0.000 C 
ATOM     15  N   UNL     1      49.740   9.978  11.745  0.00  0.00    +0.000 NA
ATOM     16  H   UNL     1      49.933  10.764  12.369  0.00  0.00    +0.000 HD
ENDBRANCH   1  11
BRANCH   6  17
ATOM     17  C   UNL     1      48.359   4.481  17.165  0.00  0.00    +0.000 C 
ATOM     18  C   UNL     1      47.421   3.473  17.799  0.00  0.00    +0.000 C 
ATOM     19  C   UNL     1      47.484   4.847  18.373  0.00  0.00    +0.000 C 
BRANCH  17  20
ATOM     20  N   UNL     1      49.791   4.516  17.446  0.00  0.00    +0.000 N 
ATOM     21  C   UNL     1      50.677   3.457  17.570  0.00  0.00    +0.000 A 
ATOM     22  C   UNL     1      50.501   2.193  17.039  0.00  0.00    +0.000 A 
ATOM     23  C   UNL     1      51.496   1.221  17.230  0.00  0.00    +0.000 A 
ATOM     24  C   UNL     1      52.647   1.541  17.946  0.00  0.00    +0.000 A 
ATOM     25  C   UNL     1      52.750   2.837  18.414  0.00  0.00    +0.000 A 
ATOM     26  N   UNL     1      51.794   3.786  18.250  0.00  0.00    +0.000 NA
ATOM     27  H   UNL     1      50.159   5.278  18.011  0.00  0.00    +0.000 HD
BRANCH  24  28
ATOM     28  C   UNL     1      53.692   0.513  18.165  0.00  0.00    +0.000 C 
ATOM     29  N   UNL     1      53.896  -0.441  17.202  0.00  0.00    +0.000 N 
ATOM     30  O   UNL     1      54.378   0.513  19.173  0.00  0.00    +0.000 OA
ATOM     31  H   UNL     1      53.405  -0.523  16.325  0.00  0.00    +0.000 HD
ATOM     32  H   UNL     1      54.630  -1.114  17.386  0.00  0.00    +0.000 HD
ENDBRANCH  24  28
ENDBRANCH  17  20
ENDBRANCH   6  17
TORSDOF 4
ENDMDL
MODEL 7
REMARK VINA RESULT:    -6.300      4.505      8.347
REMARK INTER + INTRA:          -8.101
REMARK INTER:                  -8.699
REMARK INTRA:                   0.599
REMARK UNBOUND:                -0.327
REMARK  Name = 
REMARK  6 active torsions:
REMARK  status: ('A' for Active; 'I' for Inactive)
REMARK    1  A    between atoms: C_1  and  C_2
REMARK    2  A    between atoms: N_4  and  C_5
REMARK    3  A    between atoms: C_10  and  C_11
REMARK    4  A    between atoms: C_11  and  N_12
REMARK    5  A    between atoms: C_16  and  C_17
REMARK    6  A    between atoms: C_26  and  C_27
REMARK                            x       y       z     vdW  Elec       q    Type
REMARK                         _______ _______ _______ _____ _____    ______ ____
ROOT
ATOM      1  C   UNL     1      45.886   6.447  12.306  0.00  0.00    +0.000 A 
ATOM      2  C   UNL     1      45.314   7.659  11.913  0.00  0.00    +0.000 A 
ATOM      3  C   UNL     1      45.823   8.875  12.368  0.00  0.00    +0.000 A 
ATOM      4 CL   UNL     1      45.067  10.346  11.886  0.00  0.00    +0.000 Cl
ATOM      5  C   UNL     1      46.911   8.910  13.226  0.00  0.00    +0.000 A 
ATOM      6  C   UNL     1      47.489   7.729  13.701  0.00  0.00    +0.000 A 
ATOM      7  C   UNL     1      46.962   6.516  13.206  0.00  0.00    +0.000 A 
ENDROOT
BRANCH   1  11
ATOM      8  C   UNL     1      42.276   5.361  11.877  0.00  0.00    +0.000 C 
ATOM      9  C   UNL     1      43.177   4.121  11.878  0.00  0.00    +0.000 C 
ATOM     10  C   UNL     1      44.505   4.385  12.632  0.00  0.00    +0.000 C 
ATOM     11  N   UNL     1      45.398   5.241  11.840  0.00  0.00    +0.000 N 
ATOM     12  C   UNL     1      45.629   4.805  10.454  0.00  0.00    +0.000 C 
ATOM     13  C   UNL     1      44.280   4.516   9.738  0.00  0.00    +0.000 C 
ATOM     14  C   UNL     1      44.538   3.914   8.357  0.00  0.00    +0.000 C 
ATOM     15  N   UNL     1      43.391   3.605  10.502  0.00  0.00    +0.000 NA
ATOM     16  H   UNL     1      43.870   2.707  10.584  0.00  0.00    +0.000 HD
ENDBRANCH   1  11
BRANCH   6  17
ATOM     17  C   UNL     1      48.613   7.765  14.734  0.00  0.00    +0.000 C 
ATOM     18  C   UNL     1      49.421   9.040  14.877  0.00  0.00    +0.000 C 
ATOM     19  C   UNL     1      50.040   7.879  14.178  0.00  0.00    +0.000 C 
BRANCH  17  20
ATOM     20  N   UNL     1      48.479   6.789  15.810  0.00  0.00    +0.000 N 
ATOM     21  C   UNL     1      49.464   6.027  16.418  0.00  0.00    +0.000 A 
ATOM     22  C   UNL     1      50.813   6.326  16.446  0.00  0.00    +0.000 A 
ATOM     23  C   UNL     1      51.696   5.467  17.119  0.00  0.00    +0.000 A 
ATOM     24  C   UNL     1      51.204   4.328  17.753  0.00  0.00    +0.000 A 
ATOM     25  C   UNL     1      49.839   4.125  17.698  0.00  0.00    +0.000 A 
ATOM     26  N   UNL     1      48.972   4.937  17.043  0.00  0.00    +0.000 NA
ATOM     27  H   UNL     1      47.608   6.268  15.889  0.00  0.00    +0.000 HD
BRANCH  24  28
ATOM     28  C   UNL     1      52.135   3.409  18.450  0.00  0.00    +0.000 C 
ATOM     29  N   UNL     1      52.139   2.083  18.105  0.00  0.00    +0.000 N 
ATOM     30  O   UNL     1      52.902   3.816  19.305  0.00  0.00    +0.000 OA
ATOM     31  H   UNL     1      51.567   1.644  17.401  0.00  0.00    +0.000 HD
ATOM     32  H   UNL     1      52.802   1.494  18.596  0.00  0.00    +0.000 HD
ENDBRANCH  24  28
ENDBRANCH  17  20
ENDBRANCH   6  17
TORSDOF 4
ENDMDL
MODEL 8
REMARK VINA RESULT:    -6.223      3.155      7.495
REMARK INTER + INTRA:          -8.005
REMARK INTER:                  -7.325
REMARK INTRA:                  -0.681
REMARK UNBOUND:                -0.327
REMARK  Name = 
REMARK  6 active torsions:
REMARK  status: ('A' for Active; 'I' for Inactive)
REMARK    1  A    between atoms: C_1  and  C_2
REMARK    2  A    between atoms: N_4  and  C_5
REMARK    3  A    between atoms: C_10  and  C_11
REMARK    4  A    between atoms: C_11  and  N_12
REMARK    5  A    between atoms: C_16  and  C_17
REMARK    6  A    between atoms: C_26  and  C_27
REMARK                            x       y       z     vdW  Elec       q    Type
REMARK                         _______ _______ _______ _____ _____    ______ ____
ROOT
ATOM      1  C   UNL     1      44.771   3.700  10.088  0.00  0.00    +0.000 A 
ATOM      2  C   UNL     1      44.114   3.113  11.172  0.00  0.00    +0.000 A 
ATOM      3  C   UNL     1      43.984   3.787  12.386  0.00  0.00    +0.000 A 
ATOM      4 CL   UNL     1      43.196   3.013  13.707  0.00  0.00    +0.000 Cl
ATOM      5  C   UNL     1      44.509   5.060  12.548  0.00  0.00    +0.000 A 
ATOM      6  C   UNL     1      45.227   5.676  11.519  0.00  0.00    +0.000 A 
ATOM      7  C   UNL     1      45.323   4.975  10.298  0.00  0.00    +0.000 A 
ENDROOT
BRANCH   1  11
ATOM      8  C   UNL     1      47.291   4.268   7.310  0.00  0.00    +0.000 C 
ATOM      9  C   UNL     1      46.095   3.490   6.752  0.00  0.00    +0.000 C 
ATOM     10  C   UNL     1      44.813   3.742   7.586  0.00  0.00    +0.000 C 
ATOM     11  N   UNL     1      44.881   3.045   8.877  0.00  0.00    +0.000 N 
ATOM     12  C   UNL     1      45.220   1.614   8.808  0.00  0.00    +0.000 C 
ATOM     13  C   UNL     1      46.488   1.393   7.937  0.00  0.00    +0.000 C 
ATOM     14  C   UNL     1      46.736  -0.103   7.742  0.00  0.00    +0.000 C 
ATOM     15  N   UNL     1      46.410   2.045   6.606  0.00  0.00    +0.000 NA
ATOM     16  H   UNL     1      45.634   1.614   6.099  0.00  0.00    +0.000 HD
ENDBRANCH   1  11
BRANCH   6  17
ATOM     17  C   UNL     1      45.902   7.029  11.735  0.00  0.00    +0.000 C 
ATOM     18  C   UNL     1      45.316   7.971  12.768  0.00  0.00    +0.000 C 
ATOM     19  C   UNL     1      45.088   8.265  11.325  0.00  0.00    +0.000 C 
BRANCH  17  20
ATOM     20  N   UNL     1      47.299   7.082  11.319  0.00  0.00    +0.000 N 
ATOM     21  C   UNL     1      48.417   7.407  12.070  0.00  0.00    +0.000 A 
ATOM     22  C   UNL     1      48.513   7.330  13.447  0.00  0.00    +0.000 A 
ATOM     23  C   UNL     1      49.721   7.676  14.074  0.00  0.00    +0.000 A 
ATOM     24  C   UNL     1      50.807   8.087  13.304  0.00  0.00    +0.000 A 
ATOM     25  C   UNL     1      50.629   8.105  11.935  0.00  0.00    +0.000 A 
ATOM     26  N   UNL     1      49.466   7.786  11.312  0.00  0.00    +0.000 NA
ATOM     27  H   UNL     1      47.511   7.322  10.352  0.00  0.00    +0.000 HD
BRANCH  24  28
ATOM     28  C   UNL     1      52.078   8.469  13.964  0.00  0.00    +0.000 C 
ATOM     29  N   UNL     1      53.196   7.710  13.738  0.00  0.00    +0.000 N 
ATOM     30  O   UNL     1      52.146   9.450  14.684  0.00  0.00    +0.000 OA
ATOM     31  H   UNL     1      53.260   6.895  13.148  0.00  0.00    +0.000 HD
ATOM     32  H   UNL     1      54.046   8.016  14.197  0.00  0.00    +0.000 HD
ENDBRANCH  24  28
ENDBRANCH  17  20
ENDBRANCH   6  17
TORSDOF 4
ENDMDL
