MODEL 1
REMARK VINA RESULT:    -9.078      0.000      0.000
REMARK INTER + INTRA:         -12.257
REMARK INTER:                 -11.731
REMARK INTRA:                  -0.526
REMARK UNBOUND:                -0.526
REMARK  Name = 
REMARK  5 active torsions:
REMARK  status: ('A' for Active; 'I' for Inactive)
REMARK    1  A    between atoms: C_2  and  C_18
REMARK    2  A    between atoms: N_3  and  C_4
REMARK    3  A    between atoms: C_4  and  C_5
REMARK    4  A    between atoms: C_8  and  O_9
REMARK    5  A    between atoms: O_9  and  C_10
REMARK                            x       y       z     vdW  Elec       q    Type
REMARK                         _______ _______ _______ _____ _____    ______ ____
ROOT
ATOM      1  O   UNL     1      46.339   3.505  13.804  0.00  0.00    +0.000 OA
ATOM      2  C   UNL     1      46.305   4.716  14.008  0.00  0.00    +0.000 C 
ATOM      3  N   UNL     1      45.227   5.489  13.661  0.00  0.00    +0.000 N 
ATOM      4  H   UNL     1      45.307   6.498  13.691  0.00  0.00    +0.000 HD
ENDROOT
BRANCH   2   5
ATOM      5  C   UNL     1      47.407   5.408  14.687  0.00  0.00    +0.000 A 
ATOM      6  C   UNL     1      48.142   6.363  13.998  0.00  0.00    +0.000 A 
ATOM      7  S   UNL     1      49.379   7.078  14.931  0.00  0.00    +0.000 S 
ATOM      8  C   UNL     1      48.946   6.164  16.299  0.00  0.00    +0.000 A 
ATOM      9  N   UNL     1      49.597   6.331  17.483  0.00  0.00    +0.000 NA
ATOM     10  C   UNL     1      49.136   5.610  18.450  0.00  0.00    +0.000 A 
ATOM     11  N   UNL     1      48.099   4.722  18.337  0.00  0.00    +0.000 N 
ATOM     12  C   UNL     1      47.473   4.454  17.139  0.00  0.00    +0.000 A 
ATOM     13  O   UNL     1      46.659   3.544  17.040  0.00  0.00    +0.000 OA
ATOM     14  C   UNL     1      47.905   5.294  16.038  0.00  0.00    +0.000 A 
ATOM     15  H   UNL     1      47.816   4.156  19.124  0.00  0.00    +0.000 HD
ENDBRANCH   2   5
BRANCH   3  16
ATOM     16  C   UNL     1      44.095   4.960  12.946  0.00  0.00    +0.000 C 
BRANCH  16  17
ATOM     17  C   UNL     1      44.442   4.645  11.515  0.00  0.00    +0.000 A 
ATOM     18  C   UNL     1      43.944   3.482  10.915  0.00  0.00    +0.000 A 
ATOM     19  C   UNL     1      44.218   3.201   9.577  0.00  0.00    +0.000 A 
ATOM     20  C   UNL     1      44.945   4.110   8.805  0.00  0.00    +0.000 A 
ATOM     21  C   UNL     1      45.516   5.229   9.415  0.00  0.00    +0.000 A 
ATOM     22  C   UNL     1      45.273   5.491  10.765  0.00  0.00    +0.000 A 
BRANCH  20  23
ATOM     23  O   UNL     1      45.180   3.957   7.456  0.00  0.00    +0.000 OA
BRANCH  23  24
ATOM     24  C   UNL     1      46.162   3.085   7.035  0.00  0.00    +0.000 A 
ATOM     25  C   UNL     1      46.538   1.931   7.720  0.00  0.00    +0.000 A 
ATOM     26  C   UNL     1      47.587   1.184   7.213  0.00  0.00    +0.000 A 
ATOM     27  N   UNL     1      48.227   1.476   6.061  0.00  0.00    +0.000 NA
ATOM     28  C   UNL     1      47.790   2.559   5.382  0.00  0.00    +0.000 A 
ATOM     29  C   UNL     1      46.772   3.386   5.822  0.00  0.00    +0.000 A 
ENDBRANCH  23  24
ENDBRANCH  20  23
ENDBRANCH  16  17
ENDBRANCH   3  16
TORSDOF 5
ENDMDL
MODEL 2
REMARK VINA RESULT:    -8.782      1.465      2.045
REMARK INTER + INTRA:         -11.875
REMARK INTER:                 -11.061
REMARK INTRA:                  -0.815
REMARK UNBOUND:                -0.526
REMARK  Name = 
REMARK  5 active torsions:
REMARK  status: ('A' for Active; 'I' for Inactive)
REMARK    1  A    between atoms: C_2  and  C_18
REMARK    2  A    between atoms: N_3  and  C_4
REMARK    3  A    between atoms: C_4  and  C_5
REMARK    4  A    between atoms: C_8  and  O_9
REMARK    5  A    between atoms: O_9  and  C_10
REMARK                            x       y       z     vdW  Elec       q    Type
REMARK                         _______ _______ _______ _____ _____    ______ ____
ROOT
ATOM      1  O   UNL     1      48.195   7.499  12.697  0.00  0.00    +0.000 OA
ATOM      2  C   UNL     1      47.574   6.956  13.608  0.00  0.00    +0.000 C 
ATOM      3  N   UNL     1      46.224   6.727  13.541  0.00  0.00    +0.000 N 
ATOM      4  H   UNL     1      45.726   6.435  14.373  0.00  0.00    +0.000 HD
ENDROOT
BRANCH   2   5
ATOM      5  C   UNL     1      48.255   6.472  14.814  0.00  0.00    +0.000 A 
ATOM      6  C   UNL     1      49.290   7.219  15.360  0.00  0.00    +0.000 A 
ATOM      7  S   UNL     1      49.969   6.524  16.763  0.00  0.00    +0.000 S 
ATOM      8  C   UNL     1      48.873   5.223  16.711  0.00  0.00    +0.000 A 
ATOM      9  N   UNL     1      48.882   4.265  17.678  0.00  0.00    +0.000 NA
ATOM     10  C   UNL     1      47.968   3.364  17.543  0.00  0.00    +0.000 A 
ATOM     11  N   UNL     1      47.059   3.320  16.519  0.00  0.00    +0.000 N 
ATOM     12  C   UNL     1      47.070   4.216  15.472  0.00  0.00    +0.000 A 
ATOM     13  O   UNL     1      46.348   4.057  14.495  0.00  0.00    +0.000 OA
ATOM     14  C   UNL     1      48.032   5.292  15.617  0.00  0.00    +0.000 A 
ATOM     15  H   UNL     1      46.396   2.561  16.449  0.00  0.00    +0.000 HD
ENDBRANCH   2   5
BRANCH   3  16
ATOM     16  C   UNL     1      45.414   7.188  12.444  0.00  0.00    +0.000 C 
BRANCH  16  17
ATOM     17  C   UNL     1      45.245   6.124  11.393  0.00  0.00    +0.000 A 
ATOM     18  C   UNL     1      44.298   5.107  11.574  0.00  0.00    +0.000 A 
ATOM     19  C   UNL     1      44.097   4.142  10.588  0.00  0.00    +0.000 A 
ATOM     20  C   UNL     1      44.800   4.215   9.383  0.00  0.00    +0.000 A 
ATOM     21  C   UNL     1      45.804   5.172   9.229  0.00  0.00    +0.000 A 
ATOM     22  C   UNL     1      46.032   6.118  10.232  0.00  0.00    +0.000 A 
BRANCH  20  23
ATOM     23  O   UNL     1      44.595   3.360   8.322  0.00  0.00    +0.000 OA
BRANCH  23  24
ATOM     24  C   UNL     1      45.681   2.761   7.717  0.00  0.00    +0.000 A 
ATOM     25  C   UNL     1      46.397   3.314   6.657  0.00  0.00    +0.000 A 
ATOM     26  C   UNL     1      47.423   2.569   6.105  0.00  0.00    +0.000 A 
ATOM     27  N   UNL     1      47.811   1.364   6.573  0.00  0.00    +0.000 NA
ATOM     28  C   UNL     1      47.146   0.888   7.648  0.00  0.00    +0.000 A 
ATOM     29  C   UNL     1      46.086   1.542   8.251  0.00  0.00    +0.000 A 
ENDBRANCH  23  24
ENDBRANCH  20  23
ENDBRANCH  16  17
ENDBRANCH   3  16
TORSDOF 5
ENDMDL
MODEL 3
REMARK VINA RESULT:    -8.650      1.963      2.903
REMARK INTER + INTRA:         -11.704
REMARK INTER:                 -10.817
REMARK INTRA:                  -0.887
REMARK UNBOUND:                -0.526
REMARK  Name = 
REMARK  5 active torsions:
REMARK  status: ('A' for Active; 'I' for Inactive)
REMARK    1  A    between atoms: C_2  and  C_18
REMARK    2  A    between atoms: N_3  and  C_4
REMARK    3  A    between atoms: C_4  and  C_5
REMARK    4  A    between atoms: C_8  and  O_9
REMARK    5  A    between atoms: O_9  and  C_10
REMARK                            x       y       z     vdW  Elec       q    Type
REMARK                         _______ _______ _______ _____ _____    ______ ____
ROOT
ATOM      1  O   UNL     1      46.563   4.306  14.325  0.00  0.00    +0.000 OA
ATOM      2  C   UNL     1      46.745   5.490  14.053  0.00  0.00    +0.000 C 
ATOM      3  N   UNL     1      45.792   6.255  13.431  0.00  0.00    +0.000 N 
ATOM      4  H   UNL     1      46.042   7.169  13.075  0.00  0.00    +0.000 HD
ENDROOT
BRANCH   2   5
ATOM      5  C   UNL     1      47.987   6.176  14.424  0.00  0.00    +0.000 A 
ATOM      6  C   UNL     1      48.466   6.069  15.723  0.00  0.00    +0.000 A 
ATOM      7  S   UNL     1      49.923   6.917  15.987  0.00  0.00    +0.000 S 
ATOM      8  C   UNL     1      49.985   7.420  14.362  0.00  0.00    +0.000 A 
ATOM      9  N   UNL     1      51.031   8.158  13.901  0.00  0.00    +0.000 NA
ATOM     10  C   UNL     1      50.976   8.430  12.640  0.00  0.00    +0.000 A 
ATOM     11  N   UNL     1      49.960   8.050  11.803  0.00  0.00    +0.000 N 
ATOM     12  C   UNL     1      48.840   7.381  12.244  0.00  0.00    +0.000 A 
ATOM     13  O   UNL     1      47.881   7.195  11.504  0.00  0.00    +0.000 OA
ATOM     14  C   UNL     1      48.890   6.988  13.639  0.00  0.00    +0.000 A 
ATOM     15  H   UNL     1      49.957   8.334  10.834  0.00  0.00    +0.000 HD
ENDBRANCH   2   5
BRANCH   3  16
ATOM     16  C   UNL     1      44.546   5.708  12.963  0.00  0.00    +0.000 C 
BRANCH  16  17
ATOM     17  C   UNL     1      44.686   5.103  11.591  0.00  0.00    +0.000 A 
ATOM     18  C   UNL     1      44.002   3.922  11.275  0.00  0.00    +0.000 A 
ATOM     19  C   UNL     1      44.085   3.377   9.995  0.00  0.00    +0.000 A 
ATOM     20  C   UNL     1      44.806   4.037   8.996  0.00  0.00    +0.000 A 
ATOM     21  C   UNL     1      45.558   5.166   9.324  0.00  0.00    +0.000 A 
ATOM     22  C   UNL     1      45.505   5.693  10.617  0.00  0.00    +0.000 A 
BRANCH  20  23
ATOM     23  O   UNL     1      44.862   3.618   7.685  0.00  0.00    +0.000 OA
BRANCH  23  24
ATOM     24  C   UNL     1      45.927   2.848   7.266  0.00  0.00    +0.000 A 
ATOM     25  C   UNL     1      46.347   1.676   7.891  0.00  0.00    +0.000 A 
ATOM     26  C   UNL     1      47.474   1.042   7.399  0.00  0.00    +0.000 A 
ATOM     27  N   UNL     1      48.155   1.460   6.311  0.00  0.00    +0.000 NA
ATOM     28  C   UNL     1      47.680   2.557   5.683  0.00  0.00    +0.000 A 
ATOM     29  C   UNL     1      46.580   3.279   6.116  0.00  0.00    +0.000 A 
ENDBRANCH  23  24
ENDBRANCH  20  23
ENDBRANCH  16  17
ENDBRANCH   3  16
TORSDOF 5
ENDMDL
MODEL 4
REMARK VINA RESULT:    -8.428      1.732      2.267
REMARK INTER + INTRA:         -11.417
REMARK INTER:                 -10.600
REMARK INTRA:                  -0.817
REMARK UNBOUND:                -0.526
REMARK  Name = 
REMARK  5 active torsions:
REMARK  status: ('A' for Active; 'I' for Inactive)
REMARK    1  A    between atoms: C_2  and  C_18
REMARK    2  A    between atoms: N_3  and  C_4
REMARK    3  A    between atoms: C_4  and  C_5
REMARK    4  A    between atoms: C_8  and  O_9
REMARK    5  A    between atoms: O_9  and  C_10
REMARK                            x       y       z     vdW  Elec       q    Type
REMARK                         _______ _______ _______ _____ _____    ______ ____
ROOT
ATOM      1  O   UNL     1      48.402   5.985  13.624  0.00  0.00    +0.000 OA
ATOM      2  C   UNL     1      47.497   5.608  14.365  0.00  0.00    +0.000 C 
ATOM      3  N   UNL     1      46.173   5.778  14.053  0.00  0.00    +0.000 N 
ATOM      4  H   UNL     1      45.469   5.609  14.761  0.00  0.00    +0.000 HD
ENDROOT
BRANCH   2   5
ATOM      5  C   UNL     1      47.783   4.902  15.620  0.00  0.00    +0.000 A 
ATOM      6  C   UNL     1      47.476   3.553  15.731  0.00  0.00    +0.000 A 
ATOM      7  S   UNL     1      47.879   2.882  17.248  0.00  0.00    +0.000 S 
ATOM      8  C   UNL     1      48.516   4.364  17.791  0.00  0.00    +0.000 A 
ATOM      9  N   UNL     1      49.081   4.469  19.025  0.00  0.00    +0.000 NA
ATOM     10  C   UNL     1      49.567   5.635  19.291  0.00  0.00    +0.000 A 
ATOM     11  N   UNL     1      49.521   6.712  18.445  0.00  0.00    +0.000 N 
ATOM     12  C   UNL     1      48.880   6.676  17.226  0.00  0.00    +0.000 A 
ATOM     13  O   UNL     1      48.721   7.696  16.564  0.00  0.00    +0.000 OA
ATOM     14  C   UNL     1      48.383   5.367  16.850  0.00  0.00    +0.000 A 
ATOM     15  H   UNL     1      49.882   7.610  18.733  0.00  0.00    +0.000 HD
ENDBRANCH   2   5
BRANCH   3  16
ATOM     16  C   UNL     1      45.741   6.495  12.883  0.00  0.00    +0.000 C 
BRANCH  16  17
ATOM     17  C   UNL     1      45.564   5.576  11.703  0.00  0.00    +0.000 A 
ATOM     18  C   UNL     1      45.035   4.292  11.891  0.00  0.00    +0.000 A 
ATOM     19  C   UNL     1      44.822   3.448  10.802  0.00  0.00    +0.000 A 
ATOM     20  C   UNL     1      45.079   3.898   9.505  0.00  0.00    +0.000 A 
ATOM     21  C   UNL     1      45.684   5.142   9.316  0.00  0.00    +0.000 A 
ATOM     22  C   UNL     1      45.933   5.974  10.410  0.00  0.00    +0.000 A 
BRANCH  20  23
ATOM     23  O   UNL     1      44.809   3.165   8.370  0.00  0.00    +0.000 OA
BRANCH  23  24
ATOM     24  C   UNL     1      45.854   2.642   7.638  0.00  0.00    +0.000 A 
ATOM     25  C   UNL     1      46.442   3.271   6.542  0.00  0.00    +0.000 A 
ATOM     26  C   UNL     1      47.440   2.597   5.861  0.00  0.00    +0.000 A 
ATOM     27  N   UNL     1      47.919   1.391   6.233  0.00  0.00    +0.000 NA
ATOM     28  C   UNL     1      47.381   0.841   7.343  0.00  0.00    +0.000 A 
ATOM     29  C   UNL     1      46.358   1.421   8.073  0.00  0.00    +0.000 A 
ENDBRANCH  23  24
ENDBRANCH  20  23
ENDBRANCH  16  17
ENDBRANCH   3  16
TORSDOF 5
ENDMDL
MODEL 5
REMARK VINA RESULT:    -8.228      1.812      2.405
REMARK INTER + INTRA:         -11.159
REMARK INTER:                 -10.523
REMARK INTRA:                  -0.636
REMARK UNBOUND:                -0.526
REMARK  Name = 
REMARK  5 active torsions:
REMARK  status: ('A' for Active; 'I' for Inactive)
REMARK    1  A    between atoms: C_2  and  C_18
REMARK    2  A    between atoms: N_3  and  C_4
REMARK    3  A    between atoms: C_4  and  C_5
REMARK    4  A    between atoms: C_8  and  O_9
REMARK    5  A    between atoms: O_9  and  C_10
REMARK                            x       y       z     vdW  Elec       q    Type
REMARK                         _______ _______ _______ _____ _____    ______ ____
ROOT
ATOM      1  O   UNL     1      47.858   4.931  14.076  0.00  0.00    +0.000 OA
ATOM      2  C   UNL     1      47.657   6.101  13.758  0.00  0.00    +0.000 C 
ATOM      3  N   UNL     1      46.421   6.557  13.379  0.00  0.00    +0.000 N 
ATOM      4  H   UNL     1      46.335   7.477  12.966  0.00  0.00    +0.000 HD
ENDROOT
BRANCH   2   5
ATOM      5  C   UNL     1      48.730   7.100  13.810  0.00  0.00    +0.000 A 
ATOM      6  C   UNL     1      48.851   8.028  12.785  0.00  0.00    +0.000 A 
ATOM      7  S   UNL     1      50.142   9.123  13.002  0.00  0.00    +0.000 S 
ATOM      8  C   UNL     1      50.555   8.420  14.496  0.00  0.00    +0.000 A 
ATOM      9  N   UNL     1      51.571   8.927  15.247  0.00  0.00    +0.000 NA
ATOM     10  C   UNL     1      51.746   8.329  16.378  0.00  0.00    +0.000 A 
ATOM     11  N   UNL     1      51.012   7.258  16.818  0.00  0.00    +0.000 N 
ATOM     12  C   UNL     1      50.036   6.657  16.052  0.00  0.00    +0.000 A 
ATOM     13  O   UNL     1      49.509   5.610  16.408  0.00  0.00    +0.000 OA
ATOM     14  C   UNL     1      49.752   7.339  14.804  0.00  0.00    +0.000 A 
ATOM     15  H   UNL     1      51.229   6.809  17.695  0.00  0.00    +0.000 HD
ENDBRANCH   2   5
BRANCH   3  16
ATOM     16  C   UNL     1      45.286   5.684  13.233  0.00  0.00    +0.000 C 
BRANCH  16  17
ATOM     17  C   UNL     1      45.118   5.228  11.808  0.00  0.00    +0.000 A 
ATOM     18  C   UNL     1      45.832   5.862  10.782  0.00  0.00    +0.000 A 
ATOM     19  C   UNL     1      45.722   5.419   9.465  0.00  0.00    +0.000 A 
ATOM     20  C   UNL     1      44.943   4.299   9.164  0.00  0.00    +0.000 A 
ATOM     21  C   UNL     1      44.164   3.714  10.164  0.00  0.00    +0.000 A 
ATOM     22  C   UNL     1      44.244   4.181  11.478  0.00  0.00    +0.000 A 
BRANCH  20  23
ATOM     23  O   UNL     1      44.855   3.740   7.908  0.00  0.00    +0.000 OA
BRANCH  23  24
ATOM     24  C   UNL     1      45.848   2.885   7.477  0.00  0.00    +0.000 A 
ATOM     25  C   UNL     1      46.125   1.645   8.051  0.00  0.00    +0.000 A 
ATOM     26  C   UNL     1      47.196   0.922   7.555  0.00  0.00    +0.000 A 
ATOM     27  N   UNL     1      47.950   1.320   6.509  0.00  0.00    +0.000 NA
ATOM     28  C   UNL     1      47.610   2.491   5.927  0.00  0.00    +0.000 A 
ATOM     29  C   UNL     1      46.578   3.301   6.368  0.00  0.00    +0.000 A 
ENDBRANCH  23  24
ENDBRANCH  20  23
ENDBRANCH  16  17
ENDBRANCH   3  16
TORSDOF 5
ENDMDL
MODEL 6
REMARK VINA RESULT:    -7.874      1.785      2.494
REMARK INTER + INTRA:         -10.701
REMARK INTER:                  -9.892
REMARK INTRA:                  -0.810
REMARK UNBOUND:                -0.526
REMARK  Name = 
REMARK  5 active torsions:
REMARK  status: ('A' for Active; 'I' for Inactive)
REMARK    1  A    between atoms: C_2  and  C_18
REMARK    2  A    between atoms: N_3  and  C_4
REMARK    3  A    between atoms: C_4  and  C_5
REMARK    4  A    between atoms: C_8  and  O_9
REMARK    5  A    between atoms: O_9  and  C_10
REMARK                            x       y       z     vdW  Elec       q    Type
REMARK                         _______ _______ _______ _____ _____    ______ ____
ROOT
ATOM      1  O   UNL     1      49.259   7.145  13.514  0.00  0.00    +0.000 OA
ATOM      2  C   UNL     1      48.462   6.906  14.418  0.00  0.00    +0.000 C 
ATOM      3  N   UNL     1      47.121   7.163  14.301  0.00  0.00    +0.000 N 
ATOM      4  H   UNL     1      46.530   7.111  15.122  0.00  0.00    +0.000 HD
ENDROOT
BRANCH   2   5
ATOM      5  C   UNL     1      48.896   6.281  15.672  0.00  0.00    +0.000 A 
ATOM      6  C   UNL     1      49.929   6.855  16.400  0.00  0.00    +0.000 A 
ATOM      7  S   UNL     1      50.306   6.011  17.836  0.00  0.00    +0.000 S 
ATOM      8  C   UNL     1      49.071   4.875  17.552  0.00  0.00    +0.000 A 
ATOM      9  N   UNL     1      48.819   3.882  18.448  0.00  0.00    +0.000 NA
ATOM     10  C   UNL     1      47.826   3.119  18.133  0.00  0.00    +0.000 A 
ATOM     11  N   UNL     1      47.075   3.246  16.993  0.00  0.00    +0.000 N 
ATOM     12  C   UNL     1      47.351   4.178  16.017  0.00  0.00    +0.000 A 
ATOM     13  O   UNL     1      46.762   4.163  14.943  0.00  0.00    +0.000 OA
ATOM     14  C   UNL     1      48.411   5.106  16.360  0.00  0.00    +0.000 A 
ATOM     15  H   UNL     1      46.338   2.588  16.786  0.00  0.00    +0.000 HD
ENDBRANCH   2   5
BRANCH   3  16
ATOM     16  C   UNL     1      46.556   7.820  13.151  0.00  0.00    +0.000 C 
BRANCH  16  17
ATOM     17  C   UNL     1      45.975   6.830  12.177  0.00  0.00    +0.000 A 
ATOM     18  C   UNL     1      44.759   6.197  12.465  0.00  0.00    +0.000 A 
ATOM     19  C   UNL     1      44.186   5.314  11.552  0.00  0.00    +0.000 A 
ATOM     20  C   UNL     1      44.791   5.096  10.312  0.00  0.00    +0.000 A 
ATOM     21  C   UNL     1      46.044   5.655  10.051  0.00  0.00    +0.000 A 
ATOM     22  C   UNL     1      46.637   6.511  10.982  0.00  0.00    +0.000 A 
BRANCH  20  23
ATOM     23  O   UNL     1      44.246   4.315   9.317  0.00  0.00    +0.000 OA
BRANCH  23  24
ATOM     24  C   UNL     1      45.039   3.386   8.676  0.00  0.00    +0.000 A 
ATOM     25  C   UNL     1      45.142   2.047   9.047  0.00  0.00    +0.000 A 
ATOM     26  C   UNL     1      46.029   1.244   8.352  0.00  0.00    +0.000 A 
ATOM     27  N   UNL     1      46.755   1.668   7.296  0.00  0.00    +0.000 NA
ATOM     28  C   UNL     1      46.578   2.951   6.914  0.00  0.00    +0.000 A 
ATOM     29  C   UNL     1      45.740   3.840   7.563  0.00  0.00    +0.000 A 
ENDBRANCH  23  24
ENDBRANCH  20  23
ENDBRANCH  16  17
ENDBRANCH   3  16
TORSDOF 5
ENDMDL
MODEL 7
REMARK VINA RESULT:    -7.705      3.172      3.882
REMARK INTER + INTRA:         -10.484
REMARK INTER:                  -9.560
REMARK INTRA:                  -0.924
REMARK UNBOUND:                -0.526
REMARK  Name = 
REMARK  5 active torsions:
REMARK  status: ('A' for Active; 'I' for Inactive)
REMARK    1  A    between atoms: C_2  and  C_18
REMARK    2  A    between atoms: N_3  and  C_4
REMARK    3  A    between atoms: C_4  and  C_5
REMARK    4  A    between atoms: C_8  and  O_9
REMARK    5  A    between atoms: O_9  and  C_10
REMARK                            x       y       z     vdW  Elec       q    Type
REMARK                         _______ _______ _______ _____ _____    ______ ____
ROOT
ATOM      1  O   UNL     1      44.677   8.599  11.559  0.00  0.00    +0.000 OA
ATOM      2  C   UNL     1      45.638   8.252  12.244  0.00  0.00    +0.000 C 
ATOM      3  N   UNL     1      45.618   7.120  13.016  0.00  0.00    +0.000 N 
ATOM      4  H   UNL     1      46.358   6.963  13.689  0.00  0.00    +0.000 HD
ENDROOT
BRANCH   2   5
ATOM      5  C   UNL     1      46.892   9.012  12.237  0.00  0.00    +0.000 A 
ATOM      6  C   UNL     1      46.858  10.389  12.059  0.00  0.00    +0.000 A 
ATOM      7  S   UNL     1      48.399  11.121  12.086  0.00  0.00    +0.000 S 
ATOM      8  C   UNL     1      49.160   9.628  12.381  0.00  0.00    +0.000 A 
ATOM      9  N   UNL     1      50.508   9.557  12.559  0.00  0.00    +0.000 NA
ATOM     10  C   UNL     1      50.948   8.371  12.822  0.00  0.00    +0.000 A 
ATOM     11  N   UNL     1      50.167   7.248  12.901  0.00  0.00    +0.000 N 
ATOM     12  C   UNL     1      48.814   7.259  12.639  0.00  0.00    +0.000 A 
ATOM     13  O   UNL     1      48.176   6.216  12.564  0.00  0.00    +0.000 OA
ATOM     14  C   UNL     1      48.260   8.580  12.412  0.00  0.00    +0.000 A 
ATOM     15  H   UNL     1      50.581   6.343  13.068  0.00  0.00    +0.000 HD
ENDBRANCH   2   5
BRANCH   3  16
ATOM     16  C   UNL     1      44.442   6.303  13.161  0.00  0.00    +0.000 C 
BRANCH  16  17
ATOM     17  C   UNL     1      44.411   5.191  12.147  0.00  0.00    +0.000 A 
ATOM     18  C   UNL     1      43.670   5.340  10.968  0.00  0.00    +0.000 A 
ATOM     19  C   UNL     1      43.670   4.338   9.999  0.00  0.00    +0.000 A 
ATOM     20  C   UNL     1      44.459   3.198  10.170  0.00  0.00    +0.000 A 
ATOM     21  C   UNL     1      45.133   3.002  11.377  0.00  0.00    +0.000 A 
ATOM     22  C   UNL     1      45.103   3.990  12.365  0.00  0.00    +0.000 A 
BRANCH  20  23
ATOM     23  O   UNL     1      44.591   2.206   9.224  0.00  0.00    +0.000 OA
BRANCH  23  24
ATOM     24  C   UNL     1      45.620   2.277   8.308  0.00  0.00    +0.000 A 
ATOM     25  C   UNL     1      46.009   3.441   7.648  0.00  0.00    +0.000 A 
ATOM     26  C   UNL     1      47.016   3.349   6.704  0.00  0.00    +0.000 A 
ATOM     27  N   UNL     1      47.686   2.209   6.429  0.00  0.00    +0.000 NA
ATOM     28  C   UNL     1      47.335   1.114   7.138  0.00  0.00    +0.000 A 
ATOM     29  C   UNL     1      46.321   1.097   8.079  0.00  0.00    +0.000 A 
ENDBRANCH  23  24
ENDBRANCH  20  23
ENDBRANCH  16  17
ENDBRANCH   3  16
TORSDOF 5
ENDMDL
MODEL 8
REMARK VINA RESULT:    -7.377      2.643      3.797
REMARK INTER + INTRA:         -10.059
REMARK INTER:                  -8.990
REMARK INTRA:                  -1.068
REMARK UNBOUND:                -0.526
REMARK  Name = 
REMARK  5 active torsions:
REMARK  status: ('A' for Active; 'I' for Inactive)
REMARK    1  A    between atoms: C_2  and  C_18
REMARK    2  A    between atoms: N_3  and  C_4
REMARK    3  A    between atoms: C_4  and  C_5
REMARK    4  A    between atoms: C_8  and  O_9
REMARK    5  A    between atoms: O_9  and  C_10
REMARK                            x       y       z     vdW  Elec       q    Type
REMARK                         _______ _______ _______ _____ _____    ______ ____
ROOT
ATOM      1  O   UNL     1      50.149   6.483  15.520  0.00  0.00    +0.000 OA
ATOM      2  C   UNL     1      49.038   6.586  16.035  0.00  0.00    +0.000 C 
ATOM      3  N   UNL     1      47.936   6.993  15.329  0.00  0.00    +0.000 N 
ATOM      4  H   UNL     1      47.084   7.225  15.825  0.00  0.00    +0.000 HD
ENDROOT
BRANCH   2   5
ATOM      5  C   UNL     1      48.813   6.229  17.441  0.00  0.00    +0.000 A 
ATOM      6  C   UNL     1      49.125   4.950  17.880  0.00  0.00    +0.000 A 
ATOM      7  S   UNL     1      48.813   4.701  19.539  0.00  0.00    +0.000 S 
ATOM      8  C   UNL     1      48.291   6.309  19.735  0.00  0.00    +0.000 A 
ATOM      9  N   UNL     1      47.918   6.776  20.957  0.00  0.00    +0.000 NA
ATOM     10  C   UNL     1      47.591   8.026  20.973  0.00  0.00    +0.000 A 
ATOM     11  N   UNL     1      47.582   8.844  19.874  0.00  0.00    +0.000 N 
ATOM     12  C   UNL     1      47.865   8.392  18.604  0.00  0.00    +0.000 A 
ATOM     13  O   UNL     1      47.696   9.109  17.624  0.00  0.00    +0.000 OA
ATOM     14  C   UNL     1      48.310   7.013  18.546  0.00  0.00    +0.000 A 
ATOM     15  H   UNL     1      47.274   9.803  19.948  0.00  0.00    +0.000 HD
ENDBRANCH   2   5
BRANCH   3  16
ATOM     16  C   UNL     1      48.012   7.423  13.957  0.00  0.00    +0.000 C 
BRANCH  16  17
ATOM     17  C   UNL     1      46.994   6.719  13.099  0.00  0.00    +0.000 A 
ATOM     18  C   UNL     1      46.249   7.446  12.162  0.00  0.00    +0.000 A 
ATOM     19  C   UNL     1      45.337   6.800  11.328  0.00  0.00    +0.000 A 
ATOM     20  C   UNL     1      45.202   5.411  11.379  0.00  0.00    +0.000 A 
ATOM     21  C   UNL     1      45.878   4.690  12.365  0.00  0.00    +0.000 A 
ATOM     22  C   UNL     1      46.764   5.342  13.227  0.00  0.00    +0.000 A 
BRANCH  20  23
ATOM     23  O   UNL     1      44.396   4.686  10.529  0.00  0.00    +0.000 OA
BRANCH  23  24
ATOM     24  C   UNL     1      44.976   3.859   9.589  0.00  0.00    +0.000 A 
ATOM     25  C   UNL     1      44.890   2.468   9.602  0.00  0.00    +0.000 A 
ATOM     26  C   UNL     1      45.579   1.764   8.630  0.00  0.00    +0.000 A 
ATOM     27  N   UNL     1      46.279   2.347   7.635  0.00  0.00    +0.000 NA
ATOM     28  C   UNL     1      46.282   3.698   7.606  0.00  0.00    +0.000 A 
ATOM     29  C   UNL     1      45.652   4.490   8.550  0.00  0.00    +0.000 A 
ENDBRANCH  23  24
ENDBRANCH  20  23
ENDBRANCH  16  17
ENDBRANCH   3  16
TORSDOF 5
ENDMDL
MODEL 9
REMARK VINA RESULT:    -7.317      2.332      3.533
REMARK INTER + INTRA:          -9.981
REMARK INTER:                  -9.091
REMARK INTRA:                  -0.890
REMARK UNBOUND:                -0.526
REMARK  Name = 
REMARK  5 active torsions:
REMARK  status: ('A' for Active; 'I' for Inactive)
REMARK    1  A    between atoms: C_2  and  C_18
REMARK    2  A    between atoms: N_3  and  C_4
REMARK    3  A    between atoms: C_4  and  C_5
REMARK    4  A    between atoms: C_8  and  O_9
REMARK    5  A    between atoms: O_9  and  C_10
REMARK                            x       y       z     vdW  Elec       q    Type
REMARK                         _______ _______ _______ _____ _____    ______ ____
ROOT
ATOM      1  O   UNL     1      50.247   6.904  15.314  0.00  0.00    +0.000 OA
ATOM      2  C   UNL     1      49.159   7.182  15.814  0.00  0.00    +0.000 C 
ATOM      3  N   UNL     1      48.076   7.550  15.057  0.00  0.00    +0.000 N 
ATOM      4  H   UNL     1      47.257   7.931  15.513  0.00  0.00    +0.000 HD
ENDROOT
BRANCH   2   5
ATOM      5  C   UNL     1      48.939   7.089  17.261  0.00  0.00    +0.000 A 
ATOM      6  C   UNL     1      48.641   8.238  17.982  0.00  0.00    +0.000 A 
ATOM      7  S   UNL     1      48.405   7.957  19.649  0.00  0.00    +0.000 S 
ATOM      8  C   UNL     1      48.651   6.284  19.455  0.00  0.00    +0.000 A 
ATOM      9  N   UNL     1      48.540   5.437  20.514  0.00  0.00    +0.000 NA
ATOM     10  C   UNL     1      48.704   4.191  20.217  0.00  0.00    +0.000 A 
ATOM     11  N   UNL     1      48.989   3.717  18.964  0.00  0.00    +0.000 N 
ATOM     12  C   UNL     1      49.200   4.545  17.883  0.00  0.00    +0.000 A 
ATOM     13  O   UNL     1      49.607   4.101  16.815  0.00  0.00    +0.000 OA
ATOM     14  C   UNL     1      48.953   5.949  18.149  0.00  0.00    +0.000 A 
ATOM     15  H   UNL     1      49.148   2.732  18.808  0.00  0.00    +0.000 HD
ENDBRANCH   2   5
BRANCH   3  16
ATOM     16  C   UNL     1      48.155   7.732  13.632  0.00  0.00    +0.000 C 
BRANCH  16  17
ATOM     17  C   UNL     1      47.083   6.955  12.914  0.00  0.00    +0.000 A 
ATOM     18  C   UNL     1      46.214   7.613  12.035  0.00  0.00    +0.000 A 
ATOM     19  C   UNL     1      45.247   6.899  11.327  0.00  0.00    +0.000 A 
ATOM     20  C   UNL     1      45.176   5.509  11.446  0.00  0.00    +0.000 A 
ATOM     21  C   UNL     1      45.981   4.857  12.381  0.00  0.00    +0.000 A 
ATOM     22  C   UNL     1      46.924   5.577  13.118  0.00  0.00    +0.000 A 
BRANCH  20  23
ATOM     23  O   UNL     1      44.317   4.719  10.715  0.00  0.00    +0.000 OA
BRANCH  23  24
ATOM     24  C   UNL     1      44.829   3.866   9.759  0.00  0.00    +0.000 A 
ATOM     25  C   UNL     1      44.734   2.477   9.809  0.00  0.00    +0.000 A 
ATOM     26  C   UNL     1      45.355   1.745   8.813  0.00  0.00    +0.000 A 
ATOM     27  N   UNL     1      45.995   2.300   7.762  0.00  0.00    +0.000 NA
ATOM     28  C   UNL     1      46.006   3.649   7.702  0.00  0.00    +0.000 A 
ATOM     29  C   UNL     1      45.442   4.468   8.665  0.00  0.00    +0.000 A 
ENDBRANCH  23  24
ENDBRANCH  20  23
ENDBRANCH  16  17
ENDBRANCH   3  16
TORSDOF 5
ENDMDL
