MODEL 1
REMARK VINA RESULT:    -8.219      0.000      0.000
REMARK INTER + INTRA:         -13.380
REMARK INTER:                 -12.063
REMARK INTRA:                  -1.318
REMARK UNBOUND:                -1.318
REMARK  Name = 
REMARK  10 active torsions:
REMARK  status: ('A' for Active; 'I' for Inactive)
REMARK    1  A    between atoms: C_1  and  O_2
REMARK    2  A    between atoms: O_2  and  C_3
REMARK    3  A    between atoms: C_10  and  C_11
REMARK    4  A    between atoms: N_13  and  C_14
REMARK    5  A    between atoms: C_14  and  C_15
REMARK    6  A    between atoms: C_18  and  C_19
REMARK    7  A    between atoms: C_19  and  O_20
REMARK    8  A    between atoms: O_20  and  C_21
REMARK    9  A    between atoms: C_21  and  C_22
REMARK   10  A    between atoms: C_25  and  C_26
REMARK                            x       y       z     vdW  Elec       q    Type
REMARK                         _______ _______ _______ _____ _____    ______ ____
ROOT
ATOM      1  C   UNL     1      48.347   6.576  13.316  0.00  0.00    +0.000 C 
ENDROOT
BRANCH   1   2
ATOM      2  C   UNL     1      47.017   6.122  12.784  0.00  0.00    +0.000 A 
ATOM      3  C   UNL     1      46.542   6.575  11.548  0.00  0.00    +0.000 A 
ATOM      4  C   UNL     1      45.313   6.128  11.059  0.00  0.00    +0.000 A 
ATOM      5  C   UNL     1      44.544   5.218  11.799  0.00  0.00    +0.000 A 
ATOM      6  C   UNL     1      45.003   4.794  13.050  0.00  0.00    +0.000 A 
ATOM      7  C   UNL     1      46.227   5.247  13.541  0.00  0.00    +0.000 A 
BRANCH   5   8
ATOM      8  C   UNL     1      43.263   4.657  11.235  0.00  0.00    +0.000 C 
BRANCH   8   9
ATOM      9  O   UNL     1      43.482   4.009   9.985  0.00  0.00    +0.000 OA
BRANCH   9  10
ATOM     10  C   UNL     1      44.214   2.785  10.115  0.00  0.00    +0.000 C 
BRANCH  10  11
ATOM     11  C   UNL     1      45.192   2.667   8.971  0.00  0.00    +0.000 A 
ATOM     12  C   UNL     1      45.490   3.788   8.200  0.00  0.00    +0.000 A 
ATOM     13  C   UNL     1      46.389   3.665   7.146  0.00  0.00    +0.000 A 
ATOM     14  C   UNL     1      46.972   2.427   6.883  0.00  0.00    +0.000 A 
ATOM     15  C   UNL     1      47.929   2.233   5.754  0.00  0.00    +0.000 C 
ATOM     16  C   UNL     1      46.633   1.367   7.714  0.00  0.00    +0.000 A 
ATOM     17  N   UNL     1      45.763   1.457   8.748  0.00  0.00    +0.000 NA
ENDBRANCH  10  11
ENDBRANCH   9  10
ENDBRANCH   8   9
ENDBRANCH   5   8
ENDBRANCH   1   2
BRANCH   1  20
ATOM     18  C   UNL     1      49.451   7.061  15.435  0.00  0.00    +0.000 C 
ATOM     19  O   UNL     1      50.452   7.445  14.833  0.00  0.00    +0.000 OA
ATOM     20  N   UNL     1      48.350   6.618  14.756  0.00  0.00    +0.000 N 
ATOM     21  H   UNL     1      47.525   6.301  15.252  0.00  0.00    +0.000 HD
BRANCH  18  29
ATOM     22  C   UNL     1      48.793   4.616  17.794  0.00  0.00    +0.000 A 
ATOM     23  N   UNL     1      48.603   3.889  18.917  0.00  0.00    +0.000 NA
ATOM     24  C   UNL     1      48.736   4.497  20.098  0.00  0.00    +0.000 A 
ATOM     25  N   UNL     1      49.041   5.772  20.308  0.00  0.00    +0.000 NA
ATOM     26  C   UNL     1      49.224   6.463  19.170  0.00  0.00    +0.000 A 
ATOM     27  S   UNL     1      49.615   8.111  19.261  0.00  0.00    +0.000 S 
ATOM     28  C   UNL     1      49.674   8.237  17.570  0.00  0.00    +0.000 A 
ATOM     29  C   UNL     1      49.407   7.046  16.905  0.00  0.00    +0.000 A 
ATOM     30  C   UNL     1      49.129   5.981  17.866  0.00  0.00    +0.000 A 
BRANCH  22  32
ATOM     31  C   UNL     1      48.566   2.555  16.699  0.00  0.00    +0.000 C 
ATOM     32  O   UNL     1      48.654   3.977  16.576  0.00  0.00    +0.000 OA
ENDBRANCH  22  32
ENDBRANCH  18  29
ENDBRANCH   1  20
TORSDOF 8
ENDMDL
MODEL 2
REMARK VINA RESULT:    -7.907      1.773      2.903
REMARK INTER + INTRA:         -12.923
REMARK INTER:                 -11.587
REMARK INTRA:                  -1.336
REMARK UNBOUND:                -1.318
REMARK  Name = 
REMARK  10 active torsions:
REMARK  status: ('A' for Active; 'I' for Inactive)
REMARK    1  A    between atoms: C_1  and  O_2
REMARK    2  A    between atoms: O_2  and  C_3
REMARK    3  A    between atoms: C_10  and  C_11
REMARK    4  A    between atoms: N_13  and  C_14
REMARK    5  A    between atoms: C_14  and  C_15
REMARK    6  A    between atoms: C_18  and  C_19
REMARK    7  A    between atoms: C_19  and  O_20
REMARK    8  A    between atoms: O_20  and  C_21
REMARK    9  A    between atoms: C_21  and  C_22
REMARK   10  A    between atoms: C_25  and  C_26
REMARK                            x       y       z     vdW  Elec       q    Type
REMARK                         _______ _______ _______ _____ _____    ______ ____
ROOT
ATOM      1  C   UNL     1      48.334   6.360  14.073  0.00  0.00    +0.000 C 
ENDROOT
BRANCH   1   2
ATOM      2  C   UNL     1      47.078   5.928  13.371  0.00  0.00    +0.000 A 
ATOM      3  C   UNL     1      46.295   4.883  13.872  0.00  0.00    +0.000 A 
ATOM      4  C   UNL     1      45.119   4.507  13.219  0.00  0.00    +0.000 A 
ATOM      5  C   UNL     1      44.711   5.175  12.055  0.00  0.00    +0.000 A 
ATOM      6  C   UNL     1      45.514   6.194  11.534  0.00  0.00    +0.000 A 
ATOM      7  C   UNL     1      46.691   6.564  12.184  0.00  0.00    +0.000 A 
BRANCH   5   8
ATOM      8  C   UNL     1      43.396   4.839  11.397  0.00  0.00    +0.000 C 
BRANCH   8   9
ATOM      9  O   UNL     1      43.590   4.261  10.109  0.00  0.00    +0.000 OA
BRANCH   9  10
ATOM     10  C   UNL     1      44.162   2.950  10.169  0.00  0.00    +0.000 C 
BRANCH  10  11
ATOM     11  C   UNL     1      45.158   2.791   9.046  0.00  0.00    +0.000 A 
ATOM     12  C   UNL     1      45.543   3.905   8.303  0.00  0.00    +0.000 A 
ATOM     13  C   UNL     1      46.458   3.744   7.268  0.00  0.00    +0.000 A 
ATOM     14  C   UNL     1      46.970   2.477   6.996  0.00  0.00    +0.000 A 
ATOM     15  C   UNL     1      47.941   2.243   5.886  0.00  0.00    +0.000 C 
ATOM     16  C   UNL     1      46.546   1.425   7.799  0.00  0.00    +0.000 A 
ATOM     17  N   UNL     1      45.659   1.552   8.814  0.00  0.00    +0.000 NA
ENDBRANCH  10  11
ENDBRANCH   9  10
ENDBRANCH   8   9
ENDBRANCH   5   8
ENDBRANCH   1   2
BRANCH   1  20
ATOM     18  C   UNL     1      48.669   6.111  16.476  0.00  0.00    +0.000 C 
ATOM     19  O   UNL     1      49.461   5.192  16.276  0.00  0.00    +0.000 OA
ATOM     20  N   UNL     1      48.065   6.756  15.432  0.00  0.00    +0.000 N 
ATOM     21  H   UNL     1      47.413   7.513  15.596  0.00  0.00    +0.000 HD
BRANCH  18  29
ATOM     22  C   UNL     1      47.904   9.161  17.921  0.00  0.00    +0.000 A 
ATOM     23  N   UNL     1      47.564  10.179  18.741  0.00  0.00    +0.000 NA
ATOM     24  C   UNL     1      47.329   9.908  20.026  0.00  0.00    +0.000 A 
ATOM     25  N   UNL     1      47.393   8.720  20.615  0.00  0.00    +0.000 NA
ATOM     26  C   UNL     1      47.733   7.732  19.770  0.00  0.00    +0.000 A 
ATOM     27  S   UNL     1      47.866   6.148  20.364  0.00  0.00    +0.000 S 
ATOM     28  C   UNL     1      48.283   5.560  18.829  0.00  0.00    +0.000 A 
ATOM     29  C   UNL     1      48.327   6.537  17.841  0.00  0.00    +0.000 A 
ATOM     30  C   UNL     1      48.004   7.844  18.407  0.00  0.00    +0.000 A 
BRANCH  22  32
ATOM     31  C   UNL     1      49.350  10.195  16.391  0.00  0.00    +0.000 C 
ATOM     32  O   UNL     1      48.144   9.452  16.591  0.00  0.00    +0.000 OA
ENDBRANCH  22  32
ENDBRANCH  18  29
ENDBRANCH   1  20
TORSDOF 8
ENDMDL
MODEL 3
REMARK VINA RESULT:    -7.582      1.768      2.058
REMARK INTER + INTRA:         -12.446
REMARK INTER:                 -11.390
REMARK INTRA:                  -1.056
REMARK UNBOUND:                -1.318
REMARK  Name = 
REMARK  10 active torsions:
REMARK  status: ('A' for Active; 'I' for Inactive)
REMARK    1  A    between atoms: C_1  and  O_2
REMARK    2  A    between atoms: O_2  and  C_3
REMARK    3  A    between atoms: C_10  and  C_11
REMARK    4  A    between atoms: N_13  and  C_14
REMARK    5  A    between atoms: C_14  and  C_15
REMARK    6  A    between atoms: C_18  and  C_19
REMARK    7  A    between atoms: C_19  and  O_20
REMARK    8  A    between atoms: O_20  and  C_21
REMARK    9  A    between atoms: C_21  and  C_22
REMARK   10  A    between atoms: C_25  and  C_26
REMARK                            x       y       z     vdW  Elec       q    Type
REMARK                         _______ _______ _______ _____ _____    ______ ____
ROOT
ATOM      1  C   UNL     1      47.696   8.719  13.750  0.00  0.00    +0.000 C 
ENDROOT
BRANCH   1   2
ATOM      2  C   UNL     1      47.030   7.446  13.311  0.00  0.00    +0.000 A 
ATOM      3  C   UNL     1      45.949   7.468  12.422  0.00  0.00    +0.000 A 
ATOM      4  C   UNL     1      45.353   6.275  12.007  0.00  0.00    +0.000 A 
ATOM      5  C   UNL     1      45.833   5.043  12.476  0.00  0.00    +0.000 A 
ATOM      6  C   UNL     1      46.889   5.024  13.392  0.00  0.00    +0.000 A 
ATOM      7  C   UNL     1      47.479   6.217  13.811  0.00  0.00    +0.000 A 
BRANCH   5   8
ATOM      8  C   UNL     1      45.258   3.748  11.960  0.00  0.00    +0.000 C 
BRANCH   8   9
ATOM      9  O   UNL     1      44.447   3.960  10.807  0.00  0.00    +0.000 OA
BRANCH   9  10
ATOM     10  C   UNL     1      44.190   2.752  10.081  0.00  0.00    +0.000 C 
BRANCH  10  11
ATOM     11  C   UNL     1      45.168   2.643   8.936  0.00  0.00    +0.000 A 
ATOM     12  C   UNL     1      45.397   3.746   8.117  0.00  0.00    +0.000 A 
ATOM     13  C   UNL     1      46.297   3.631   7.064  0.00  0.00    +0.000 A 
ATOM     14  C   UNL     1      46.950   2.419   6.849  0.00  0.00    +0.000 A 
ATOM     15  C   UNL     1      47.912   2.233   5.722  0.00  0.00    +0.000 C 
ATOM     16  C   UNL     1      46.676   1.376   7.725  0.00  0.00    +0.000 A 
ATOM     17  N   UNL     1      45.807   1.459   8.760  0.00  0.00    +0.000 NA
ENDBRANCH  10  11
ENDBRANCH   9  10
ENDBRANCH   8   9
ENDBRANCH   5   8
ENDBRANCH   1   2
BRANCH   1  20
ATOM     18  C   UNL     1      48.428   8.882  16.071  0.00  0.00    +0.000 C 
ATOM     19  O   UNL     1      49.567   8.555  15.740  0.00  0.00    +0.000 OA
ATOM     20  N   UNL     1      47.434   8.997  15.140  0.00  0.00    +0.000 N 
ATOM     21  H   UNL     1      46.496   9.266  15.410  0.00  0.00    +0.000 HD
BRANCH  18  29
ATOM     22  C   UNL     1      47.911   6.861  18.832  0.00  0.00    +0.000 A 
ATOM     23  N   UNL     1      47.676   6.345  20.057  0.00  0.00    +0.000 NA
ATOM     24  C   UNL     1      47.414   7.184  21.061  0.00  0.00    +0.000 A 
ATOM     25  N   UNL     1      47.353   8.509  20.997  0.00  0.00    +0.000 NA
ATOM     26  C   UNL     1      47.593   8.987  19.765  0.00  0.00    +0.000 A 
ATOM     27  S   UNL     1      47.548  10.663  19.508  0.00  0.00    +0.000 S 
ATOM     28  C   UNL     1      47.920  10.467  17.865  0.00  0.00    +0.000 A 
ATOM     29  C   UNL     1      48.090   9.143  17.477  0.00  0.00    +0.000 A 
ATOM     30  C   UNL     1      47.886   8.252  18.618  0.00  0.00    +0.000 A 
BRANCH  22  32
ATOM     31  C   UNL     1      47.336   4.831  17.809  0.00  0.00    +0.000 C 
ATOM     32  O   UNL     1      48.182   5.984  17.798  0.00  0.00    +0.000 OA
ENDBRANCH  22  32
ENDBRANCH  18  29
ENDBRANCH   1  20
TORSDOF 8
ENDMDL
MODEL 4
REMARK VINA RESULT:    -7.402      1.971      2.471
REMARK INTER + INTRA:         -12.182
REMARK INTER:                 -11.095
REMARK INTRA:                  -1.087
REMARK UNBOUND:                -1.318
REMARK  Name = 
REMARK  10 active torsions:
REMARK  status: ('A' for Active; 'I' for Inactive)
REMARK    1  A    between atoms: C_1  and  O_2
REMARK    2  A    between atoms: O_2  and  C_3
REMARK    3  A    between atoms: C_10  and  C_11
REMARK    4  A    between atoms: N_13  and  C_14
REMARK    5  A    between atoms: C_14  and  C_15
REMARK    6  A    between atoms: C_18  and  C_19
REMARK    7  A    between atoms: C_19  and  O_20
REMARK    8  A    between atoms: O_20  and  C_21
REMARK    9  A    between atoms: C_21  and  C_22
REMARK   10  A    between atoms: C_25  and  C_26
REMARK                            x       y       z     vdW  Elec       q    Type
REMARK                         _______ _______ _______ _____ _____    ______ ____
ROOT
ATOM      1  C   UNL     1      48.782   8.325  14.759  0.00  0.00    +0.000 C 
ENDROOT
BRANCH   1   2
ATOM      2  C   UNL     1      47.677   7.757  13.914  0.00  0.00    +0.000 A 
ATOM      3  C   UNL     1      46.648   8.574  13.429  0.00  0.00    +0.000 A 
ATOM      4  C   UNL     1      45.639   8.035  12.628  0.00  0.00    +0.000 A 
ATOM      5  C   UNL     1      45.647   6.671  12.299  0.00  0.00    +0.000 A 
ATOM      6  C   UNL     1      46.655   5.850  12.815  0.00  0.00    +0.000 A 
ATOM      7  C   UNL     1      47.658   6.387  13.620  0.00  0.00    +0.000 A 
BRANCH   5   8
ATOM      8  C   UNL     1      44.616   6.101  11.358  0.00  0.00    +0.000 C 
BRANCH   8   9
ATOM      9  O   UNL     1      44.839   4.714  11.118  0.00  0.00    +0.000 OA
BRANCH   9  10
ATOM     10  C   UNL     1      44.107   4.222   9.989  0.00  0.00    +0.000 C 
BRANCH  10  11
ATOM     11  C   UNL     1      45.072   3.618   8.997  0.00  0.00    +0.000 A 
ATOM     12  C   UNL     1      45.242   2.236   8.955  0.00  0.00    +0.000 A 
ATOM     13  C   UNL     1      46.137   1.692   8.040  0.00  0.00    +0.000 A 
ATOM     14  C   UNL     1      46.843   2.537   7.187  0.00  0.00    +0.000 A 
ATOM     15  C   UNL     1      47.830   2.011   6.198  0.00  0.00    +0.000 C 
ATOM     16  C   UNL     1      46.598   3.901   7.283  0.00  0.00    +0.000 A 
ATOM     17  N   UNL     1      45.732   4.459   8.162  0.00  0.00    +0.000 NA
ENDBRANCH  10  11
ENDBRANCH   9  10
ENDBRANCH   8   9
ENDBRANCH   5   8
ENDBRANCH   1   2
BRANCH   1  20
ATOM     18  C   UNL     1      49.476   6.892  16.605  0.00  0.00    +0.000 C 
ATOM     19  O   UNL     1      48.630   7.410  17.333  0.00  0.00    +0.000 OA
ATOM     20  N   UNL     1      49.615   7.282  15.303  0.00  0.00    +0.000 N 
ATOM     21  H   UNL     1      50.311   6.856  14.703  0.00  0.00    +0.000 HD
BRANCH  18  29
ATOM     22  C   UNL     1      49.380   3.432  16.628  0.00  0.00    +0.000 A 
ATOM     23  N   UNL     1      49.623   2.112  16.769  0.00  0.00    +0.000 NA
ATOM     24  C   UNL     1      50.754   1.734  17.367  0.00  0.00    +0.000 A 
ATOM     25  N   UNL     1      51.700   2.527  17.857  0.00  0.00    +0.000 NA
ATOM     26  C   UNL     1      51.425   3.832  17.699  0.00  0.00    +0.000 A 
ATOM     27  S   UNL     1      52.530   4.983  18.276  0.00  0.00    +0.000 S 
ATOM     28  C   UNL     1      51.550   6.259  17.740  0.00  0.00    +0.000 A 
ATOM     29  C   UNL     1      50.379   5.849  17.113  0.00  0.00    +0.000 A 
ATOM     30  C   UNL     1      50.299   4.390  17.095  0.00  0.00    +0.000 A 
BRANCH  22  32
ATOM     31  C   UNL     1      47.119   3.983  16.922  0.00  0.00    +0.000 C 
ATOM     32  O   UNL     1      48.205   3.814  16.006  0.00  0.00    +0.000 OA
ENDBRANCH  22  32
ENDBRANCH  18  29
ENDBRANCH   1  20
TORSDOF 8
ENDMDL
MODEL 5
REMARK VINA RESULT:    -7.078      1.690      2.090
REMARK INTER + INTRA:         -11.705
REMARK INTER:                 -10.599
REMARK INTRA:                  -1.107
REMARK UNBOUND:                -1.318
REMARK  Name = 
REMARK  10 active torsions:
REMARK  status: ('A' for Active; 'I' for Inactive)
REMARK    1  A    between atoms: C_1  and  O_2
REMARK    2  A    between atoms: O_2  and  C_3
REMARK    3  A    between atoms: C_10  and  C_11
REMARK    4  A    between atoms: N_13  and  C_14
REMARK    5  A    between atoms: C_14  and  C_15
REMARK    6  A    between atoms: C_18  and  C_19
REMARK    7  A    between atoms: C_19  and  O_20
REMARK    8  A    between atoms: O_20  and  C_21
REMARK    9  A    between atoms: C_21  and  C_22
REMARK   10  A    between atoms: C_25  and  C_26
REMARK                            x       y       z     vdW  Elec       q    Type
REMARK                         _______ _______ _______ _____ _____    ______ ____
ROOT
ATOM      1  C   UNL     1      48.642   8.665  14.769  0.00  0.00    +0.000 C 
ENDROOT
BRANCH   1   2
ATOM      2  C   UNL     1      47.594   8.071  13.871  0.00  0.00    +0.000 A 
ATOM      3  C   UNL     1      46.464   8.808  13.496  0.00  0.00    +0.000 A 
ATOM      4  C   UNL     1      45.509   8.249  12.645  0.00  0.00    +0.000 A 
ATOM      5  C   UNL     1      45.673   6.944  12.155  0.00  0.00    +0.000 A 
ATOM      6  C   UNL     1      46.783   6.196  12.560  0.00  0.00    +0.000 A 
ATOM      7  C   UNL     1      47.733   6.753  13.416  0.00  0.00    +0.000 A 
BRANCH   5   8
ATOM      8  C   UNL     1      44.696   6.368  11.161  0.00  0.00    +0.000 C 
BRANCH   8   9
ATOM      9  O   UNL     1      44.782   4.947  11.109  0.00  0.00    +0.000 OA
BRANCH   9  10
ATOM     10  C   UNL     1      44.047   4.386  10.015  0.00  0.00    +0.000 C 
BRANCH  10  11
ATOM     11  C   UNL     1      45.005   3.686   9.081  0.00  0.00    +0.000 A 
ATOM     12  C   UNL     1      45.153   2.303   9.155  0.00  0.00    +0.000 A 
ATOM     13  C   UNL     1      46.041   1.670   8.292  0.00  0.00    +0.000 A 
ATOM     14  C   UNL     1      46.764   2.430   7.375  0.00  0.00    +0.000 A 
ATOM     15  C   UNL     1      47.745   1.807   6.437  0.00  0.00    +0.000 C 
ATOM     16  C   UNL     1      46.541   3.801   7.357  0.00  0.00    +0.000 A 
ATOM     17  N   UNL     1      45.681   4.444   8.182  0.00  0.00    +0.000 NA
ENDBRANCH  10  11
ENDBRANCH   9  10
ENDBRANCH   8   9
ENDBRANCH   5   8
ENDBRANCH   1   2
BRANCH   1  20
ATOM     18  C   UNL     1      48.195   8.637  17.166  0.00  0.00    +0.000 C 
ATOM     19  O   UNL     1      47.722   9.770  17.097  0.00  0.00    +0.000 OA
ATOM     20  N   UNL     1      48.670   8.006  16.050  0.00  0.00    +0.000 N 
ATOM     21  H   UNL     1      49.060   7.073  16.106  0.00  0.00    +0.000 HD
BRANCH  18  29
ATOM     22  C   UNL     1      48.549   5.311  18.055  0.00  0.00    +0.000 A 
ATOM     23  N   UNL     1      48.694   4.129  18.691  0.00  0.00    +0.000 NA
ATOM     24  C   UNL     1      48.729   4.125  20.025  0.00  0.00    +0.000 A 
ATOM     25  N   UNL     1      48.632   5.178  20.828  0.00  0.00    +0.000 NA
ATOM     26  C   UNL     1      48.489   6.335  20.162  0.00  0.00    +0.000 A 
ATOM     27  S   UNL     1      48.345   7.780  21.040  0.00  0.00    +0.000 S 
ATOM     28  C   UNL     1      48.217   8.688  19.613  0.00  0.00    +0.000 A 
ATOM     29  C   UNL     1      48.285   7.928  18.451  0.00  0.00    +0.000 A 
ATOM     30  C   UNL     1      48.440   6.513  18.780  0.00  0.00    +0.000 A 
BRANCH  22  32
ATOM     31  C   UNL     1      47.530   4.413  16.143  0.00  0.00    +0.000 C 
ATOM     32  O   UNL     1      48.515   5.305  16.673  0.00  0.00    +0.000 OA
ENDBRANCH  22  32
ENDBRANCH  18  29
ENDBRANCH   1  20
TORSDOF 8
ENDMDL
MODEL 6
REMARK VINA RESULT:    -6.852      1.967      2.324
REMARK INTER + INTRA:         -11.375
REMARK INTER:                 -10.157
REMARK INTRA:                  -1.218
REMARK UNBOUND:                -1.318
REMARK  Name = 
REMARK  10 active torsions:
REMARK  status: ('A' for Active; 'I' for Inactive)
REMARK    1  A    between atoms: C_1  and  O_2
REMARK    2  A    between atoms: O_2  and  C_3
REMARK    3  A    between atoms: C_10  and  C_11
REMARK    4  A    between atoms: N_13  and  C_14
REMARK    5  A    between atoms: C_14  and  C_15
REMARK    6  A    between atoms: C_18  and  C_19
REMARK    7  A    between atoms: C_19  and  O_20
REMARK    8  A    between atoms: O_20  and  C_21
REMARK    9  A    between atoms: C_21  and  C_22
REMARK   10  A    between atoms: C_25  and  C_26
REMARK                            x       y       z     vdW  Elec       q    Type
REMARK                         _______ _______ _______ _____ _____    ______ ____
ROOT
ATOM      1  C   UNL     1      48.924   8.761  13.028  0.00  0.00    +0.000 C 
ENDROOT
BRANCH   1   2
ATOM      2  C   UNL     1      47.680   8.007  12.655  0.00  0.00    +0.000 A 
ATOM      3  C   UNL     1      47.728   6.937  11.753  0.00  0.00    +0.000 A 
ATOM      4  C   UNL     1      46.565   6.234  11.432  0.00  0.00    +0.000 A 
ATOM      5  C   UNL     1      45.338   6.589  12.012  0.00  0.00    +0.000 A 
ATOM      6  C   UNL     1      45.286   7.681  12.884  0.00  0.00    +0.000 A 
ATOM      7  C   UNL     1      46.446   8.387  13.199  0.00  0.00    +0.000 A 
BRANCH   5   8
ATOM      8  C   UNL     1      44.098   5.776  11.744  0.00  0.00    +0.000 C 
BRANCH   8   9
ATOM      9  O   UNL     1      44.072   5.288  10.405  0.00  0.00    +0.000 OA
BRANCH   9  10
ATOM     10  C   UNL     1      44.024   3.858  10.336  0.00  0.00    +0.000 C 
BRANCH  10  11
ATOM     11  C   UNL     1      44.996   3.380   9.283  0.00  0.00    +0.000 A 
ATOM     12  C   UNL     1      45.609   4.304   8.440  0.00  0.00    +0.000 A 
ATOM     13  C   UNL     1      46.499   3.850   7.473  0.00  0.00    +0.000 A 
ATOM     14  C   UNL     1      46.757   2.485   7.366  0.00  0.00    +0.000 A 
ATOM     15  C   UNL     1      47.688   1.939   6.334  0.00  0.00    +0.000 C 
ATOM     16  C   UNL     1      46.116   1.636   8.259  0.00  0.00    +0.000 A 
ATOM     17  N   UNL     1      45.247   2.049   9.213  0.00  0.00    +0.000 NA
ENDBRANCH  10  11
ENDBRANCH   9  10
ENDBRANCH   8   9
ENDBRANCH   5   8
ENDBRANCH   1   2
BRANCH   1  20
ATOM     18  C   UNL     1      50.012   8.077  15.100  0.00  0.00    +0.000 C 
ATOM     19  O   UNL     1      49.367   8.919  15.723  0.00  0.00    +0.000 OA
ATOM     20  N   UNL     1      49.848   7.924  13.752  0.00  0.00    +0.000 N 
ATOM     21  H   UNL     1      50.378   7.232  13.238  0.00  0.00    +0.000 HD
BRANCH  18  29
ATOM     22  C   UNL     1      49.771   5.478  17.373  0.00  0.00    +0.000 A 
ATOM     23  N   UNL     1      49.986   4.454  18.226  0.00  0.00    +0.000 NA
ATOM     24  C   UNL     1      51.244   4.069  18.453  0.00  0.00    +0.000 A 
ATOM     25  N   UNL     1      52.344   4.590  17.923  0.00  0.00    +0.000 NA
ATOM     26  C   UNL     1      52.092   5.605  17.080  0.00  0.00    +0.000 A 
ATOM     27  S   UNL     1      53.391   6.388  16.320  0.00  0.00    +0.000 S 
ATOM     28  C   UNL     1      52.340   7.437  15.502  0.00  0.00    +0.000 A 
ATOM     29  C   UNL     1      50.995   7.219  15.778  0.00  0.00    +0.000 A 
ATOM     30  C   UNL     1      50.846   6.123  16.732  0.00  0.00    +0.000 A 
BRANCH  22  32
ATOM     31  C   UNL     1      47.918   6.641  18.217  0.00  0.00    +0.000 C 
ATOM     32  O   UNL     1      48.464   5.869  17.145  0.00  0.00    +0.000 OA
ENDBRANCH  22  32
ENDBRANCH  18  29
ENDBRANCH   1  20
TORSDOF 8
ENDMDL
MODEL 7
REMARK VINA RESULT:    -6.595      4.714      9.774
REMARK INTER + INTRA:         -10.998
REMARK INTER:                 -10.132
REMARK INTRA:                  -0.865
REMARK UNBOUND:                -1.318
REMARK  Name = 
REMARK  10 active torsions:
REMARK  status: ('A' for Active; 'I' for Inactive)
REMARK    1  A    between atoms: C_1  and  O_2
REMARK    2  A    between atoms: O_2  and  C_3
REMARK    3  A    between atoms: C_10  and  C_11
REMARK    4  A    between atoms: N_13  and  C_14
REMARK    5  A    between atoms: C_14  and  C_15
REMARK    6  A    between atoms: C_18  and  C_19
REMARK    7  A    between atoms: C_19  and  O_20
REMARK    8  A    between atoms: O_20  and  C_21
REMARK    9  A    between atoms: C_21  and  C_22
REMARK   10  A    between atoms: C_25  and  C_26
REMARK                            x       y       z     vdW  Elec       q    Type
REMARK                         _______ _______ _______ _____ _____    ______ ____
ROOT
ATOM      1  C   UNL     1      47.414   3.256  17.144  0.00  0.00    +0.000 C 
ENDROOT
BRANCH   1   2
ATOM      2  C   UNL     1      48.883   3.137  17.436  0.00  0.00    +0.000 A 
ATOM      3  C   UNL     1      49.610   2.013  17.027  0.00  0.00    +0.000 A 
ATOM      4  C   UNL     1      50.979   1.926  17.288  0.00  0.00    +0.000 A 
ATOM      5  C   UNL     1      51.640   2.965  17.961  0.00  0.00    +0.000 A 
ATOM      6  C   UNL     1      50.905   4.070  18.401  0.00  0.00    +0.000 A 
ATOM      7  C   UNL     1      49.537   4.153  18.146  0.00  0.00    +0.000 A 
BRANCH   5   8
ATOM      8  C   UNL     1      53.133   2.922  18.162  0.00  0.00    +0.000 C 
BRANCH   8   9
ATOM      9  O   UNL     1      53.555   1.660  18.674  0.00  0.00    +0.000 OA
BRANCH   9  10
ATOM     10  C   UNL     1      54.557   1.038  17.860  0.00  0.00    +0.000 C 
BRANCH  10  11
ATOM     11  C   UNL     1      54.484  -0.459  18.042  0.00  0.00    +0.000 A 
ATOM     12  C   UNL     1      55.061  -1.297  17.090  0.00  0.00    +0.000 A 
ATOM     13  C   UNL     1      54.983  -2.674  17.266  0.00  0.00    +0.000 A 
ATOM     14  C   UNL     1      54.333  -3.186  18.387  0.00  0.00    +0.000 A 
ATOM     15  C   UNL     1      54.204  -4.656  18.618  0.00  0.00    +0.000 C 
ATOM     16  C   UNL     1      53.803  -2.279  19.295  0.00  0.00    +0.000 A 
ATOM     17  N   UNL     1      53.865  -0.933  19.151  0.00  0.00    +0.000 NA
ENDBRANCH  10  11
ENDBRANCH   9  10
ENDBRANCH   8   9
ENDBRANCH   5   8
ENDBRANCH   1   2
BRANCH   1  20
ATOM     18  C   UNL     1      47.188   4.134  14.880  0.00  0.00    +0.000 C 
ATOM     19  O   UNL     1      47.439   3.022  14.418  0.00  0.00    +0.000 OA
ATOM     20  N   UNL     1      47.147   4.339  16.231  0.00  0.00    +0.000 N 
ATOM     21  H   UNL     1      46.940   5.254  16.613  0.00  0.00    +0.000 HD
BRANCH  18  29
ATOM     22  C   UNL     1      44.793   4.863  12.491  0.00  0.00    +0.000 A 
ATOM     23  N   UNL     1      44.008   5.420  11.544  0.00  0.00    +0.000 NA
ATOM     24  C   UNL     1      44.317   6.640  11.099  0.00  0.00    +0.000 A 
ATOM     25  N   UNL     1      45.338   7.395  11.488  0.00  0.00    +0.000 NA
ATOM     26  C   UNL     1      46.095   6.810  12.431  0.00  0.00    +0.000 A 
ATOM     27  S   UNL     1      47.445   7.640  13.035  0.00  0.00    +0.000 S 
ATOM     28  C   UNL     1      47.823   6.358  14.079  0.00  0.00    +0.000 A 
ATOM     29  C   UNL     1      46.943   5.285  14.000  0.00  0.00    +0.000 A 
ATOM     30  C   UNL     1      45.908   5.553  13.003  0.00  0.00    +0.000 A 
BRANCH  22  32
ATOM     31  C   UNL     1      43.457   2.966  12.153  0.00  0.00    +0.000 C 
ATOM     32  O   UNL     1      44.464   3.599  12.946  0.00  0.00    +0.000 OA
ENDBRANCH  22  32
ENDBRANCH  18  29
ENDBRANCH   1  20
TORSDOF 8
ENDMDL
MODEL 8
REMARK VINA RESULT:    -6.533      3.680      8.820
REMARK INTER + INTRA:         -10.907
REMARK INTER:                  -9.642
REMARK INTRA:                  -1.264
REMARK UNBOUND:                -1.318
REMARK  Name = 
REMARK  10 active torsions:
REMARK  status: ('A' for Active; 'I' for Inactive)
REMARK    1  A    between atoms: C_1  and  O_2
REMARK    2  A    between atoms: O_2  and  C_3
REMARK    3  A    between atoms: C_10  and  C_11
REMARK    4  A    between atoms: N_13  and  C_14
REMARK    5  A    between atoms: C_14  and  C_15
REMARK    6  A    between atoms: C_18  and  C_19
REMARK    7  A    between atoms: C_19  and  O_20
REMARK    8  A    between atoms: O_20  and  C_21
REMARK    9  A    between atoms: C_21  and  C_22
REMARK   10  A    between atoms: C_25  and  C_26
REMARK                            x       y       z     vdW  Elec       q    Type
REMARK                         _______ _______ _______ _____ _____    ______ ____
ROOT
ATOM      1  C   UNL     1      47.425   3.198  17.029  0.00  0.00    +0.000 C 
ENDROOT
BRANCH   1   2
ATOM      2  C   UNL     1      48.876   3.269  17.409  0.00  0.00    +0.000 A 
ATOM      3  C   UNL     1      49.769   2.256  17.039  0.00  0.00    +0.000 A 
ATOM      4  C   UNL     1      51.119   2.347  17.382  0.00  0.00    +0.000 A 
ATOM      5  C   UNL     1      51.596   3.456  18.099  0.00  0.00    +0.000 A 
ATOM      6  C   UNL     1      50.696   4.448  18.499  0.00  0.00    +0.000 A 
ATOM      7  C   UNL     1      49.346   4.353  18.162  0.00  0.00    +0.000 A 
BRANCH   5   8
ATOM      8  C   UNL     1      53.067   3.608  18.390  0.00  0.00    +0.000 C 
BRANCH   8   9
ATOM      9  O   UNL     1      53.505   4.947  18.179  0.00  0.00    +0.000 OA
BRANCH   9  10
ATOM     10  C   UNL     1      54.347   5.080  17.027  0.00  0.00    +0.000 C 
BRANCH  10  11
ATOM     11  C   UNL     1      53.789   6.156  16.126  0.00  0.00    +0.000 A 
ATOM     12  C   UNL     1      54.576   6.670  15.098  0.00  0.00    +0.000 A 
ATOM     13  C   UNL     1      54.052   7.664  14.278  0.00  0.00    +0.000 A 
ATOM     14  C   UNL     1      52.756   8.124  14.501  0.00  0.00    +0.000 A 
ATOM     15  C   UNL     1      52.149   9.202  13.664  0.00  0.00    +0.000 C 
ATOM     16  C   UNL     1      52.036   7.543  15.537  0.00  0.00    +0.000 A 
ATOM     17  N   UNL     1      52.518   6.573  16.350  0.00  0.00    +0.000 NA
ENDBRANCH  10  11
ENDBRANCH   9  10
ENDBRANCH   8   9
ENDBRANCH   5   8
ENDBRANCH   1   2
BRANCH   1  20
ATOM     18  C   UNL     1      47.087   4.120  14.797  0.00  0.00    +0.000 C 
ATOM     19  O   UNL     1      47.413   3.044  14.297  0.00  0.00    +0.000 OA
ATOM     20  N   UNL     1      47.057   4.282  16.154  0.00  0.00    +0.000 N 
ATOM     21  H   UNL     1      46.789   5.167  16.566  0.00  0.00    +0.000 HD
BRANCH  18  29
ATOM     22  C   UNL     1      44.460   4.821  12.656  0.00  0.00    +0.000 A 
ATOM     23  N   UNL     1      43.578   5.370  11.793  0.00  0.00    +0.000 NA
ATOM     24  C   UNL     1      43.820   6.600  11.333  0.00  0.00    +0.000 A 
ATOM     25  N   UNL     1      44.858   7.372  11.631  0.00  0.00    +0.000 NA
ATOM     26  C   UNL     1      45.713   6.795  12.491  0.00  0.00    +0.000 A 
ATOM     27  S   UNL     1      47.099   7.646  12.972  0.00  0.00    +0.000 S 
ATOM     28  C   UNL     1      47.599   6.363  13.962  0.00  0.00    +0.000 A 
ATOM     29  C   UNL     1      46.736   5.273  13.956  0.00  0.00    +0.000 A 
ATOM     30  C   UNL     1      45.605   5.529  13.066  0.00  0.00    +0.000 A 
BRANCH  22  32
ATOM     31  C   UNL     1      43.474   2.745  12.192  0.00  0.00    +0.000 C 
ATOM     32  O   UNL     1      44.201   3.547  13.126  0.00  0.00    +0.000 OA
ENDBRANCH  22  32
ENDBRANCH  18  29
ENDBRANCH   1  20
TORSDOF 8
ENDMDL
MODEL 9
REMARK VINA RESULT:    -6.509      3.425      5.306
REMARK INTER + INTRA:         -10.870
REMARK INTER:                  -9.621
REMARK INTRA:                  -1.249
REMARK UNBOUND:                -1.318
REMARK  Name = 
REMARK  10 active torsions:
REMARK  status: ('A' for Active; 'I' for Inactive)
REMARK    1  A    between atoms: C_1  and  O_2
REMARK    2  A    between atoms: O_2  and  C_3
REMARK    3  A    between atoms: C_10  and  C_11
REMARK    4  A    between atoms: N_13  and  C_14
REMARK    5  A    between atoms: C_14  and  C_15
REMARK    6  A    between atoms: C_18  and  C_19
REMARK    7  A    between atoms: C_19  and  O_20
REMARK    8  A    between atoms: O_20  and  C_21
REMARK    9  A    between atoms: C_21  and  C_22
REMARK   10  A    between atoms: C_25  and  C_26
REMARK                            x       y       z     vdW  Elec       q    Type
REMARK                         _______ _______ _______ _____ _____    ______ ____
ROOT
ATOM      1  C   UNL     1      49.046   7.065  15.168  0.00  0.00    +0.000 C 
ENDROOT
BRANCH   1   2
ATOM      2  C   UNL     1      47.975   6.337  14.406  0.00  0.00    +0.000 A 
ATOM      3  C   UNL     1      47.466   6.852  13.209  0.00  0.00    +0.000 A 
ATOM      4  C   UNL     1      46.485   6.154  12.502  0.00  0.00    +0.000 A 
ATOM      5  C   UNL     1      46.003   4.927  12.983  0.00  0.00    +0.000 A 
ATOM      6  C   UNL     1      46.486   4.432  14.198  0.00  0.00    +0.000 A 
ATOM      7  C   UNL     1      47.461   5.134  14.907  0.00  0.00    +0.000 A 
BRANCH   5   8
ATOM      8  C   UNL     1      45.015   4.121  12.179  0.00  0.00    +0.000 C 
BRANCH   8   9
ATOM      9  O   UNL     1      44.925   4.594  10.837  0.00  0.00    +0.000 OA
BRANCH   9  10
ATOM     10  C   UNL     1      44.280   3.661   9.962  0.00  0.00    +0.000 C 
BRANCH  10  11
ATOM     11  C   UNL     1      45.243   3.257   8.871  0.00  0.00    +0.000 A 
ATOM     12  C   UNL     1      45.632   1.925   8.753  0.00  0.00    +0.000 A 
ATOM     13  C   UNL     1      46.523   1.566   7.747  0.00  0.00    +0.000 A 
ATOM     14  C   UNL     1      47.007   2.544   6.881  0.00  0.00    +0.000 A 
ATOM     15  C   UNL     1      47.979   2.220   5.794  0.00  0.00    +0.000 C 
ATOM     16  C   UNL     1      46.552   3.845   7.058  0.00  0.00    +0.000 A 
ATOM     17  N   UNL     1      45.684   4.222   8.027  0.00  0.00    +0.000 NA
ENDBRANCH  10  11
ENDBRANCH   9  10
ENDBRANCH   8   9
ENDBRANCH   5   8
ENDBRANCH   1   2
BRANCH   1  20
ATOM     18  C   UNL     1      51.161   8.186  14.705  0.00  0.00    +0.000 C 
ATOM     19  O   UNL     1      51.013   8.890  15.703  0.00  0.00    +0.000 OA
ATOM     20  N   UNL     1      50.231   7.242  14.368  0.00  0.00    +0.000 N 
ATOM     21  H   UNL     1      50.352   6.662  13.547  0.00  0.00    +0.000 HD
BRANCH  18  29
ATOM     22  C   UNL     1      51.585   8.407  11.278  0.00  0.00    +0.000 A 
ATOM     23  N   UNL     1      52.049   8.535  10.016  0.00  0.00    +0.000 NA
ATOM     24  C   UNL     1      53.363   8.688   9.835  0.00  0.00    +0.000 A 
ATOM     25  N   UNL     1      54.298   8.730  10.777  0.00  0.00    +0.000 NA
ATOM     26  C   UNL     1      53.800   8.601  12.018  0.00  0.00    +0.000 A 
ATOM     27  S   UNL     1      54.863   8.628  13.339  0.00  0.00    +0.000 S 
ATOM     28  C   UNL     1      53.581   8.430  14.432  0.00  0.00    +0.000 A 
ATOM     29  C   UNL     1      52.332   8.345  13.830  0.00  0.00    +0.000 A 
ATOM     30  C   UNL     1      52.463   8.440  12.377  0.00  0.00    +0.000 A 
BRANCH  22  32
ATOM     31  C   UNL     1      49.521   9.493  11.522  0.00  0.00    +0.000 C 
ATOM     32  O   UNL     1      50.223   8.249  11.455  0.00  0.00    +0.000 OA
ENDBRANCH  22  32
ENDBRANCH  18  29
ENDBRANCH   1  20
TORSDOF 8
ENDMDL
