MODEL 1
REMARK VINA RESULT:    -7.120      0.000      0.000
REMARK INTER + INTRA:          -9.353
REMARK INTER:                  -8.993
REMARK INTRA:                  -0.361
REMARK UNBOUND:                -0.361
REMARK  Name = 
REMARK  5 active torsions:
REMARK  status: ('A' for Active; 'I' for Inactive)
REMARK    1  A    between atoms: N_1  and  C_2
REMARK    2  A    between atoms: C_2  and  C_3
REMARK    3  A    between atoms: C_6  and  C_7
REMARK    4  A    between atoms: C_7  and  O_8
REMARK    5  A    between atoms: O_8  and  C_9
REMARK                            x       y       z     vdW  Elec       q    Type
REMARK                         _______ _______ _______ _____ _____    ______ ____
ROOT
ATOM      1  C   UNL     1      46.603   2.295   7.481  0.00  0.00    +0.000 A 
ATOM      2  C   UNL     1      46.393   3.661   7.345  0.00  0.00    +0.000 A 
ATOM      3  N   UNL     1      45.530   4.353   8.126  0.00  0.00    +0.000 NA
ATOM      4  C   UNL     1      44.875   3.631   9.072  0.00  0.00    +0.000 A 
ATOM      5  C   UNL     1      45.076   2.259   9.198  0.00  0.00    +0.000 A 
ATOM      6  N   UNL     1      45.943   1.567   8.421  0.00  0.00    +0.000 NA
ENDROOT
BRANCH   1   7
ATOM      7  C   UNL     1      47.640   1.597   6.637  0.00  0.00    +0.000 C 
BRANCH   7   8
ATOM      8  N   UNL     1      48.635   2.533   6.107  0.00  0.00    +0.000 NA
ATOM      9  H   UNL     1      49.054   3.043   6.882  0.00  0.00    +0.000 HD
ATOM     10  H   UNL     1      48.134   3.232   5.554  0.00  0.00    +0.000 HD
ENDBRANCH   7   8
ENDBRANCH   1   7
BRANCH   4  11
ATOM     11  C   UNL     1      43.978   4.379  10.024  0.00  0.00    +0.000 C 
BRANCH  11  12
ATOM     12  O   UNL     1      44.645   5.537  10.530  0.00  0.00    +0.000 OA
BRANCH  12  13
ATOM     13  C   UNL     1      45.355   5.352  11.682  0.00  0.00    +0.000 A 
ATOM     14  C   UNL     1      46.481   6.073  12.078  0.00  0.00    +0.000 A 
ATOM     15  C   UNL     1      47.110   5.764  13.284  0.00  0.00    +0.000 A 
ATOM     16  C   UNL     1      46.579   4.744  14.053  0.00  0.00    +0.000 A 
ATOM     17 CL   UNL     1      47.313   4.290  15.535  0.00  0.00    +0.000 Cl
ATOM     18  N   UNL     1      45.482   4.037  13.723  0.00  0.00    +0.000 NA
ATOM     19  C   UNL     1      44.891   4.368  12.550  0.00  0.00    +0.000 A 
ENDBRANCH  12  13
ENDBRANCH  11  12
ENDBRANCH   4  11
TORSDOF 5
ENDMDL
MODEL 2
REMARK VINA RESULT:    -7.084      2.787      5.991
REMARK INTER + INTRA:          -9.309
REMARK INTER:                  -9.102
REMARK INTRA:                  -0.207
REMARK UNBOUND:                -0.361
REMARK  Name = 
REMARK  5 active torsions:
REMARK  status: ('A' for Active; 'I' for Inactive)
REMARK    1  A    between atoms: N_1  and  C_2
REMARK    2  A    between atoms: C_2  and  C_3
REMARK    3  A    between atoms: C_6  and  C_7
REMARK    4  A    between atoms: C_7  and  O_8
REMARK    5  A    between atoms: O_8  and  C_9
REMARK                            x       y       z     vdW  Elec       q    Type
REMARK                         _______ _______ _______ _____ _____    ______ ____
ROOT
ATOM      1  C   UNL     1      46.335   4.493  13.802  0.00  0.00    +0.000 A 
ATOM      2  C   UNL     1      45.861   5.659  13.213  0.00  0.00    +0.000 A 
ATOM      3  N   UNL     1      45.050   5.658  12.129  0.00  0.00    +0.000 NA
ATOM      4  C   UNL     1      44.711   4.437  11.642  0.00  0.00    +0.000 A 
ATOM      5  C   UNL     1      45.198   3.269  12.224  0.00  0.00    +0.000 A 
ATOM      6  N   UNL     1      46.005   3.269  13.311  0.00  0.00    +0.000 NA
ENDROOT
BRANCH   1   7
ATOM      7  C   UNL     1      47.166   4.559  15.058  0.00  0.00    +0.000 C 
BRANCH   7   8
ATOM      8  N   UNL     1      47.673   3.241  15.449  0.00  0.00    +0.000 NA
ATOM      9  H   UNL     1      48.689   3.273  15.477  0.00  0.00    +0.000 HD
ATOM     10  H   UNL     1      47.436   2.587  14.699  0.00  0.00    +0.000 HD
ENDBRANCH   7   8
ENDBRANCH   1   7
BRANCH   4  11
ATOM     11  C   UNL     1      43.735   4.389  10.495  0.00  0.00    +0.000 C 
BRANCH  11  12
ATOM     12  O   UNL     1      43.807   3.124   9.833  0.00  0.00    +0.000 OA
BRANCH  12  13
ATOM     13  C   UNL     1      44.806   2.997   8.911  0.00  0.00    +0.000 A 
ATOM     14  C   UNL     1      45.293   4.007   8.083  0.00  0.00    +0.000 A 
ATOM     15  C   UNL     1      46.317   3.725   7.178  0.00  0.00    +0.000 A 
ATOM     16  C   UNL     1      46.820   2.437   7.144  0.00  0.00    +0.000 A 
ATOM     17 CL   UNL     1      48.060   2.009   6.040  0.00  0.00    +0.000 Cl
ATOM     18  N   UNL     1      46.397   1.436   7.939  0.00  0.00    +0.000 NA
ATOM     19  C   UNL     1      45.408   1.746   8.811  0.00  0.00    +0.000 A 
ENDBRANCH  12  13
ENDBRANCH  11  12
ENDBRANCH   4  11
TORSDOF 5
ENDMDL
MODEL 3
REMARK VINA RESULT:    -6.773      1.853      2.399
REMARK INTER + INTRA:          -8.915
REMARK INTER:                  -8.659
REMARK INTRA:                  -0.256
REMARK UNBOUND:                -0.361
REMARK  Name = 
REMARK  5 active torsions:
REMARK  status: ('A' for Active; 'I' for Inactive)
REMARK    1  A    between atoms: N_1  and  C_2
REMARK    2  A    between atoms: C_2  and  C_3
REMARK    3  A    between atoms: C_6  and  C_7
REMARK    4  A    between atoms: C_7  and  O_8
REMARK    5  A    between atoms: O_8  and  C_9
REMARK                            x       y       z     vdW  Elec       q    Type
REMARK                         _______ _______ _______ _____ _____    ______ ____
ROOT
ATOM      1  C   UNL     1      46.629   2.783   6.933  0.00  0.00    +0.000 A 
ATOM      2  C   UNL     1      46.448   1.662   7.733  0.00  0.00    +0.000 A 
ATOM      3  N   UNL     1      45.689   1.674   8.854  0.00  0.00    +0.000 NA
ATOM      4  C   UNL     1      45.096   2.857   9.157  0.00  0.00    +0.000 A 
ATOM      5  C   UNL     1      45.290   3.984   8.363  0.00  0.00    +0.000 A 
ATOM      6  N   UNL     1      46.045   3.972   7.239  0.00  0.00    +0.000 NA
ENDROOT
BRANCH   1   7
ATOM      7  C   UNL     1      47.418   2.684   5.652  0.00  0.00    +0.000 C 
BRANCH   7   8
ATOM      8  N   UNL     1      48.535   1.743   5.768  0.00  0.00    +0.000 NA
ATOM      9  H   UNL     1      48.367   1.128   6.561  0.00  0.00    +0.000 HD
ATOM     10  H   UNL     1      49.368   2.285   6.008  0.00  0.00    +0.000 HD
ENDBRANCH   7   8
ENDBRANCH   1   7
BRANCH   4  11
ATOM     11  C   UNL     1      44.167   2.889  10.343  0.00  0.00    +0.000 C 
BRANCH  11  12
ATOM     12  O   UNL     1      44.893   3.193  11.536  0.00  0.00    +0.000 OA
BRANCH  12  13
ATOM     13  C   UNL     1      44.992   4.521  11.845  0.00  0.00    +0.000 A 
ATOM     14  C   UNL     1      44.109   5.524  11.447  0.00  0.00    +0.000 A 
ATOM     15  C   UNL     1      44.345   6.844  11.833  0.00  0.00    +0.000 A 
ATOM     16  C   UNL     1      45.459   7.106  12.612  0.00  0.00    +0.000 A 
ATOM     17 CL   UNL     1      45.828   8.707  13.102  0.00  0.00    +0.000 Cl
ATOM     18  N   UNL     1      46.325   6.168  13.037  0.00  0.00    +0.000 NA
ATOM     19  C   UNL     1      46.062   4.895  12.652  0.00  0.00    +0.000 A 
ENDBRANCH  12  13
ENDBRANCH  11  12
ENDBRANCH   4  11
TORSDOF 5
ENDMDL
MODEL 4
REMARK VINA RESULT:    -5.983      1.605      2.073
REMARK INTER + INTRA:          -7.918
REMARK INTER:                  -7.641
REMARK INTRA:                  -0.277
REMARK UNBOUND:                -0.361
REMARK  Name = 
REMARK  5 active torsions:
REMARK  status: ('A' for Active; 'I' for Inactive)
REMARK    1  A    between atoms: N_1  and  C_2
REMARK    2  A    between atoms: C_2  and  C_3
REMARK    3  A    between atoms: C_6  and  C_7
REMARK    4  A    between atoms: C_7  and  O_8
REMARK    5  A    between atoms: O_8  and  C_9
REMARK                            x       y       z     vdW  Elec       q    Type
REMARK                         _______ _______ _______ _____ _____    ______ ____
ROOT
ATOM      1  C   UNL     1      46.002   3.222   7.962  0.00  0.00    +0.000 A 
ATOM      2  C   UNL     1      45.313   2.263   8.694  0.00  0.00    +0.000 A 
ATOM      3  N   UNL     1      44.531   2.570   9.755  0.00  0.00    +0.000 NA
ATOM      4  C   UNL     1      44.447   3.888  10.069  0.00  0.00    +0.000 A 
ATOM      5  C   UNL     1      45.149   4.847   9.344  0.00  0.00    +0.000 A 
ATOM      6  N   UNL     1      45.928   4.542   8.279  0.00  0.00    +0.000 NA
ENDROOT
BRANCH   1   7
ATOM      7  C   UNL     1      46.790   2.825   6.739  0.00  0.00    +0.000 C 
BRANCH   7   8
ATOM      8  N   UNL     1      46.854   3.907   5.754  0.00  0.00    +0.000 NA
ATOM      9  H   UNL     1      46.233   4.658   6.047  0.00  0.00    +0.000 HD
ATOM     10  H   UNL     1      46.463   3.550   4.880  0.00  0.00    +0.000 HD
ENDBRANCH   7   8
ENDBRANCH   1   7
BRANCH   4  11
ATOM     11  C   UNL     1      43.512   4.282  11.183  0.00  0.00    +0.000 C 
BRANCH  11  12
ATOM     12  O   UNL     1      44.113   4.017  12.453  0.00  0.00    +0.000 OA
BRANCH  12  13
ATOM     13  C   UNL     1      45.163   4.824  12.789  0.00  0.00    +0.000 A 
ATOM     14  C   UNL     1      45.185   6.216  12.718  0.00  0.00    +0.000 A 
ATOM     15  C   UNL     1      46.339   6.908  13.087  0.00  0.00    +0.000 A 
ATOM     16  C   UNL     1      47.428   6.174  13.522  0.00  0.00    +0.000 A 
ATOM     17 CL   UNL     1      48.889   6.953  13.968  0.00  0.00    +0.000 Cl
ATOM     18  N   UNL     1      47.445   4.832  13.629  0.00  0.00    +0.000 NA
ATOM     19  C   UNL     1      46.306   4.192  13.270  0.00  0.00    +0.000 A 
ENDBRANCH  12  13
ENDBRANCH  11  12
ENDBRANCH   4  11
TORSDOF 5
ENDMDL
MODEL 5
REMARK VINA RESULT:    -5.969      2.018      2.201
REMARK INTER + INTRA:          -7.900
REMARK INTER:                  -7.499
REMARK INTRA:                  -0.400
REMARK UNBOUND:                -0.361
REMARK  Name = 
REMARK  5 active torsions:
REMARK  status: ('A' for Active; 'I' for Inactive)
REMARK    1  A    between atoms: N_1  and  C_2
REMARK    2  A    between atoms: C_2  and  C_3
REMARK    3  A    between atoms: C_6  and  C_7
REMARK    4  A    between atoms: C_7  and  O_8
REMARK    5  A    between atoms: O_8  and  C_9
REMARK                            x       y       z     vdW  Elec       q    Type
REMARK                         _______ _______ _______ _____ _____    ______ ____
ROOT
ATOM      1  C   UNL     1      46.355   2.555   7.734  0.00  0.00    +0.000 A 
ATOM      2  C   UNL     1      46.112   3.922   7.670  0.00  0.00    +0.000 A 
ATOM      3  N   UNL     1      45.209   4.545   8.462  0.00  0.00    +0.000 NA
ATOM      4  C   UNL     1      44.546   3.754   9.344  0.00  0.00    +0.000 A 
ATOM      5  C   UNL     1      44.780   2.382   9.398  0.00  0.00    +0.000 A 
ATOM      6  N   UNL     1      45.687   1.758   8.609  0.00  0.00    +0.000 NA
ENDROOT
BRANCH   1   7
ATOM      7  C   UNL     1      47.434   1.934   6.883  0.00  0.00    +0.000 C 
BRANCH   7   8
ATOM      8  N   UNL     1      47.785   0.587   7.340  0.00  0.00    +0.000 NA
ATOM      9  H   UNL     1      46.943   0.120   7.669  0.00  0.00    +0.000 HD
ATOM     10  H   UNL     1      48.384   0.690   8.162  0.00  0.00    +0.000 HD
ENDBRANCH   7   8
ENDBRANCH   1   7
BRANCH   4  11
ATOM     11  C   UNL     1      43.602   4.422  10.310  0.00  0.00    +0.000 C 
BRANCH  11  12
ATOM     12  O   UNL     1      44.148   4.407  11.631  0.00  0.00    +0.000 OA
BRANCH  12  13
ATOM     13  C   UNL     1      44.923   5.482  11.961  0.00  0.00    +0.000 A 
ATOM     14  C   UNL     1      46.157   5.437  12.609  0.00  0.00    +0.000 A 
ATOM     15  C   UNL     1      46.832   6.625  12.891  0.00  0.00    +0.000 A 
ATOM     16  C   UNL     1      46.246   7.816  12.502  0.00  0.00    +0.000 A 
ATOM     17 CL   UNL     1      47.005   9.317  12.837  0.00  0.00    +0.000 Cl
ATOM     18  N   UNL     1      45.069   7.907  11.855  0.00  0.00    +0.000 NA
ATOM     19  C   UNL     1      44.443   6.735  11.590  0.00  0.00    +0.000 A 
ENDBRANCH  12  13
ENDBRANCH  11  12
ENDBRANCH   4  11
TORSDOF 5
ENDMDL
MODEL 6
REMARK VINA RESULT:    -5.613      2.243      2.771
REMARK INTER + INTRA:          -7.450
REMARK INTER:                  -7.106
REMARK INTRA:                  -0.344
REMARK UNBOUND:                -0.361
REMARK  Name = 
REMARK  5 active torsions:
REMARK  status: ('A' for Active; 'I' for Inactive)
REMARK    1  A    between atoms: N_1  and  C_2
REMARK    2  A    between atoms: C_2  and  C_3
REMARK    3  A    between atoms: C_6  and  C_7
REMARK    4  A    between atoms: C_7  and  O_8
REMARK    5  A    between atoms: O_8  and  C_9
REMARK                            x       y       z     vdW  Elec       q    Type
REMARK                         _______ _______ _______ _____ _____    ______ ____
ROOT
ATOM      1  C   UNL     1      44.493   2.595   9.532  0.00  0.00    +0.000 A 
ATOM      2  C   UNL     1      44.719   3.935   9.241  0.00  0.00    +0.000 A 
ATOM      3  N   UNL     1      44.258   4.944  10.017  0.00  0.00    +0.000 NA
ATOM      4  C   UNL     1      43.557   4.572  11.119  0.00  0.00    +0.000 A 
ATOM      5  C   UNL     1      43.319   3.230  11.402  0.00  0.00    +0.000 A 
ATOM      6  N   UNL     1      43.784   2.220  10.630  0.00  0.00    +0.000 NA
ENDROOT
BRANCH   1   7
ATOM      7  C   UNL     1      45.105   1.516   8.674  0.00  0.00    +0.000 C 
BRANCH   7   8
ATOM      8  N   UNL     1      46.289   1.994   7.956  0.00  0.00    +0.000 NA
ATOM      9  H   UNL     1      46.680   2.789   8.456  0.00  0.00    +0.000 HD
ATOM     10  H   UNL     1      45.973   2.361   7.055  0.00  0.00    +0.000 HD
ENDBRANCH   7   8
ENDBRANCH   1   7
BRANCH   4  11
ATOM     11  C   UNL     1      43.108   5.660  12.060  0.00  0.00    +0.000 C 
BRANCH  11  12
ATOM     12  O   UNL     1      43.948   5.696  13.216  0.00  0.00    +0.000 OA
BRANCH  12  13
ATOM     13  C   UNL     1      45.220   6.151  13.007  0.00  0.00    +0.000 A 
ATOM     14  C   UNL     1      45.571   7.381  12.455  0.00  0.00    +0.000 A 
ATOM     15  C   UNL     1      46.918   7.706  12.293  0.00  0.00    +0.000 A 
ATOM     16  C   UNL     1      47.864   6.783  12.701  0.00  0.00    +0.000 A 
ATOM     17 CL   UNL     1      49.539   7.101  12.510  0.00  0.00    +0.000 Cl
ATOM     18  N   UNL     1      47.573   5.593  13.260  0.00  0.00    +0.000 NA
ATOM     19  C   UNL     1      46.256   5.313  13.410  0.00  0.00    +0.000 A 
ENDBRANCH  12  13
ENDBRANCH  11  12
ENDBRANCH   4  11
TORSDOF 5
ENDMDL
MODEL 7
REMARK VINA RESULT:    -5.363      3.873      7.966
REMARK INTER + INTRA:          -7.134
REMARK INTER:                  -6.901
REMARK INTRA:                  -0.233
REMARK UNBOUND:                -0.361
REMARK  Name = 
REMARK  5 active torsions:
REMARK  status: ('A' for Active; 'I' for Inactive)
REMARK    1  A    between atoms: N_1  and  C_2
REMARK    2  A    between atoms: C_2  and  C_3
REMARK    3  A    between atoms: C_6  and  C_7
REMARK    4  A    between atoms: C_7  and  O_8
REMARK    5  A    between atoms: O_8  and  C_9
REMARK                            x       y       z     vdW  Elec       q    Type
REMARK                         _______ _______ _______ _____ _____    ______ ____
ROOT
ATOM      1  C   UNL     1      48.293   4.754  18.149  0.00  0.00    +0.000 A 
ATOM      2  C   UNL     1      47.521   3.713  17.649  0.00  0.00    +0.000 A 
ATOM      3  N   UNL     1      47.106   3.658  16.362  0.00  0.00    +0.000 NA
ATOM      4  C   UNL     1      47.496   4.688  15.568  0.00  0.00    +0.000 A 
ATOM      5  C   UNL     1      48.258   5.738  16.073  0.00  0.00    +0.000 A 
ATOM      6  N   UNL     1      48.678   5.792  17.359  0.00  0.00    +0.000 NA
ENDROOT
BRANCH   1   7
ATOM      7  C   UNL     1      48.794   4.714  19.571  0.00  0.00    +0.000 C 
BRANCH   7   8
ATOM      8  N   UNL     1      48.348   3.510  20.276  0.00  0.00    +0.000 NA
ATOM      9  H   UNL     1      47.411   3.668  20.639  0.00  0.00    +0.000 HD
ATOM     10  H   UNL     1      48.948   3.395  21.095  0.00  0.00    +0.000 HD
ENDBRANCH   7   8
ENDBRANCH   1   7
BRANCH   4  11
ATOM     11  C   UNL     1      47.136   4.619  14.106  0.00  0.00    +0.000 C 
BRANCH  11  12
ATOM     12  O   UNL     1      45.728   4.428  13.949  0.00  0.00    +0.000 OA
BRANCH  12  13
ATOM     13  C   UNL     1      45.299   4.233  12.667  0.00  0.00    +0.000 A 
ATOM     14  C   UNL     1      44.493   3.187  12.221  0.00  0.00    +0.000 A 
ATOM     15  C   UNL     1      44.141   3.113  10.872  0.00  0.00    +0.000 A 
ATOM     16  C   UNL     1      44.607   4.101  10.023  0.00  0.00    +0.000 A 
ATOM     17 CL   UNL     1      44.237   4.062   8.348  0.00  0.00    +0.000 Cl
ATOM     18  N   UNL     1      45.367   5.141  10.412  0.00  0.00    +0.000 NA
ATOM     19  C   UNL     1      45.684   5.187  11.729  0.00  0.00    +0.000 A 
ENDBRANCH  12  13
ENDBRANCH  11  12
ENDBRANCH   4  11
TORSDOF 5
ENDMDL
MODEL 8
REMARK VINA RESULT:    -5.351      4.507      6.084
REMARK INTER + INTRA:          -7.119
REMARK INTER:                  -6.835
REMARK INTRA:                  -0.285
REMARK UNBOUND:                -0.361
REMARK  Name = 
REMARK  5 active torsions:
REMARK  status: ('A' for Active; 'I' for Inactive)
REMARK    1  A    between atoms: N_1  and  C_2
REMARK    2  A    between atoms: C_2  and  C_3
REMARK    3  A    between atoms: C_6  and  C_7
REMARK    4  A    between atoms: C_7  and  O_8
REMARK    5  A    between atoms: O_8  and  C_9
REMARK                            x       y       z     vdW  Elec       q    Type
REMARK                         _______ _______ _______ _____ _____    ______ ____
ROOT
ATOM      1  C   UNL     1      43.899   5.580  12.084  0.00  0.00    +0.000 A 
ATOM      2  C   UNL     1      43.964   4.275  12.557  0.00  0.00    +0.000 A 
ATOM      3  N   UNL     1      45.028   3.793  13.240  0.00  0.00    +0.000 NA
ATOM      4  C   UNL     1      46.045   4.669  13.451  0.00  0.00    +0.000 A 
ATOM      5  C   UNL     1      45.985   5.972  12.965  0.00  0.00    +0.000 A 
ATOM      6  N   UNL     1      44.918   6.457  12.285  0.00  0.00    +0.000 NA
ENDROOT
BRANCH   1   7
ATOM      7  C   UNL     1      42.650   6.081  11.403  0.00  0.00    +0.000 C 
BRANCH   7   8
ATOM      8  N   UNL     1      42.762   7.491  11.022  0.00  0.00    +0.000 NA
ATOM      9  H   UNL     1      42.092   7.688  10.282  0.00  0.00    +0.000 HD
ATOM     10  H   UNL     1      43.686   7.623  10.604  0.00  0.00    +0.000 HD
ENDBRANCH   7   8
ENDBRANCH   1   7
BRANCH   4  11
ATOM     11  C   UNL     1      47.206   4.202  14.290  0.00  0.00    +0.000 C 
BRANCH  11  12
ATOM     12  O   UNL     1      46.741   3.671  15.533  0.00  0.00    +0.000 OA
BRANCH  12  13
ATOM     13  C   UNL     1      47.567   3.867  16.604  0.00  0.00    +0.000 A 
ATOM     14  C   UNL     1      47.821   2.950  17.622  0.00  0.00    +0.000 A 
ATOM     15  C   UNL     1      48.686   3.296  18.662  0.00  0.00    +0.000 A 
ATOM     16  C   UNL     1      49.269   4.550  18.634  0.00  0.00    +0.000 A 
ATOM     17 CL   UNL     1      50.322   5.055  19.891  0.00  0.00    +0.000 Cl
ATOM     18  N   UNL     1      49.071   5.458  17.661  0.00  0.00    +0.000 NA
ATOM     19  C   UNL     1      48.233   5.087  16.663  0.00  0.00    +0.000 A 
ENDBRANCH  12  13
ENDBRANCH  11  12
ENDBRANCH   4  11
TORSDOF 5
ENDMDL
MODEL 9
REMARK VINA RESULT:    -5.008      3.414      5.271
REMARK INTER + INTRA:          -6.686
REMARK INTER:                  -6.441
REMARK INTRA:                  -0.245
REMARK UNBOUND:                -0.361
REMARK  Name = 
REMARK  5 active torsions:
REMARK  status: ('A' for Active; 'I' for Inactive)
REMARK    1  A    between atoms: N_1  and  C_2
REMARK    2  A    between atoms: C_2  and  C_3
REMARK    3  A    between atoms: C_6  and  C_7
REMARK    4  A    between atoms: C_7  and  O_8
REMARK    5  A    between atoms: O_8  and  C_9
REMARK                            x       y       z     vdW  Elec       q    Type
REMARK                         _______ _______ _______ _____ _____    ______ ____
ROOT
ATOM      1  C   UNL     1      44.809   4.485  11.082  0.00  0.00    +0.000 A 
ATOM      2  C   UNL     1      44.961   3.566  12.112  0.00  0.00    +0.000 A 
ATOM      3  N   UNL     1      45.777   3.777  13.171  0.00  0.00    +0.000 NA
ATOM      4  C   UNL     1      46.446   4.959  13.178  0.00  0.00    +0.000 A 
ATOM      5  C   UNL     1      46.304   5.873  12.138  0.00  0.00    +0.000 A 
ATOM      6  N   UNL     1      45.484   5.665  11.081  0.00  0.00    +0.000 NA
ENDROOT
BRANCH   1   7
ATOM      7  C   UNL     1      43.820   4.228   9.972  0.00  0.00    +0.000 C 
BRANCH   7   8
ATOM      8  N   UNL     1      44.364   3.329   8.951  0.00  0.00    +0.000 NA
ATOM      9  H   UNL     1      44.548   2.422   9.374  0.00  0.00    +0.000 HD
ATOM     10  H   UNL     1      45.277   3.697   8.675  0.00  0.00    +0.000 HD
ENDBRANCH   7   8
ENDBRANCH   1   7
BRANCH   4  11
ATOM     11  C   UNL     1      47.292   5.275  14.385  0.00  0.00    +0.000 C 
BRANCH  11  12
ATOM     12  O   UNL     1      47.525   4.092  15.153  0.00  0.00    +0.000 OA
BRANCH  12  13
ATOM     13  C   UNL     1      47.866   4.296  16.460  0.00  0.00    +0.000 A 
ATOM     14  C   UNL     1      48.238   5.511  17.032  0.00  0.00    +0.000 A 
ATOM     15  C   UNL     1      48.570   5.564  18.386  0.00  0.00    +0.000 A 
ATOM     16  C   UNL     1      48.507   4.392  19.119  0.00  0.00    +0.000 A 
ATOM     17 CL   UNL     1      48.925   4.374  20.782  0.00  0.00    +0.000 Cl
ATOM     18  N   UNL     1      48.131   3.201  18.615  0.00  0.00    +0.000 NA
ATOM     19  C   UNL     1      47.808   3.187  17.300  0.00  0.00    +0.000 A 
ENDBRANCH  12  13
ENDBRANCH  11  12
ENDBRANCH   4  11
TORSDOF 5
ENDMDL
