MODEL 1
REMARK VINA RESULT:    -7.126      0.000      0.000
REMARK INTER + INTRA:         -10.534
REMARK INTER:                 -10.043
REMARK INTRA:                  -0.491
REMARK UNBOUND:                -0.491
REMARK  Name = 
REMARK  10 active torsions:
REMARK  status: ('A' for Active; 'I' for Inactive)
REMARK    1  A    between atoms: C_1  and  C_2
REMARK    2  A    between atoms: C_2  and  N_3
REMARK    3  A    between atoms: N_3  and  C_4
REMARK    4  A    between atoms: N_3  and  C_5
REMARK    5  A    between atoms: C_5  and  C_6
REMARK    6  A    between atoms: C_6  and  N_7
REMARK    7  A    between atoms: N_7  and  C_8
REMARK    8  A    between atoms: C_12  and  C_13
REMARK    9  A    between atoms: C_13  and  N_14
REMARK   10  A    between atoms: C_19  and  C_20
REMARK                            x       y       z     vdW  Elec       q    Type
REMARK                         _______ _______ _______ _____ _____    ______ ____
ROOT
ATOM      1  C   UNL     1      44.859   3.914  11.369  0.00  0.00    +0.000 A 
ATOM      2  C   UNL     1      44.227   5.097  10.972  0.00  0.00    +0.000 A 
ATOM      3  C   UNL     1      44.536   6.319  11.577  0.00  0.00    +0.000 A 
ATOM      4  C   UNL     1      45.463   6.372  12.615  0.00  0.00    +0.000 A 
ATOM      5  C   UNL     1      46.062   5.196  13.077  0.00  0.00    +0.000 A 
ATOM      6  C   UNL     1      45.751   3.979  12.446  0.00  0.00    +0.000 A 
ENDROOT
BRANCH   1   7
ATOM      7  N   UNL     1      44.570   2.653  10.832  0.00  0.00    +0.000 N 
ATOM      8  H   UNL     1      43.794   2.214  11.327  0.00  0.00    +0.000 HD
BRANCH   7   9
ATOM      9  C   UNL     1      44.381   2.539   9.386  0.00  0.00    +0.000 C 
BRANCH   9  10
ATOM     10  C   UNL     1      45.492   1.663   8.762  0.00  0.00    +0.000 C 
BRANCH  10  11
ATOM     11  N   UNL     1      46.546   2.399   8.012  0.00  0.00    +0.000 NA
ATOM     12  C   UNL     1      45.921   3.541   7.331  0.00  0.00    +0.000 C 
BRANCH  11  14
ATOM     13  C   UNL     1      47.797   2.246   5.835  0.00  0.00    +0.000 C 
ATOM     14  C   UNL     1      47.244   1.519   7.057  0.00  0.00    +0.000 C 
ENDBRANCH  11  14
ENDBRANCH  10  11
ENDBRANCH   9  10
ENDBRANCH   7   9
ENDBRANCH   1   7
BRANCH   5  15
ATOM     15  C   UNL     1      47.016   5.228  14.248  0.00  0.00    +0.000 C 
BRANCH  15  16
ATOM     16  N   UNL     1      46.612   4.263  15.262  0.00  0.00    +0.000 N 
ATOM     17  C   UNL     1      47.567   4.117  16.283  0.00  0.00    +0.000 A 
ATOM     18  C   UNL     1      47.309   3.227  17.320  0.00  0.00    +0.000 A 
ATOM     19  C   UNL     1      48.232   3.102  18.359  0.00  0.00    +0.000 A 
ATOM     20  C   UNL     1      49.389   3.868  18.338  0.00  0.00    +0.000 A 
ATOM     21  C   UNL     1      49.583   4.739  17.275  0.00  0.00    +0.000 A 
ATOM     22  C   UNL     1      50.803   5.601  17.180  0.00  0.00    +0.000 C 
ATOM     23  N   UNL     1      48.686   4.868  16.269  0.00  0.00    +0.000 NA
ATOM     24  H   UNL     1      46.403   3.356  14.861  0.00  0.00    +0.000 HD
ENDBRANCH  15  16
ENDBRANCH   5  15
TORSDOF 7
ENDMDL
MODEL 2
REMARK VINA RESULT:    -6.805      1.309      8.336
REMARK INTER + INTRA:         -10.081
REMARK INTER:                  -9.582
REMARK INTRA:                  -0.499
REMARK UNBOUND:                -0.491
REMARK  Name = 
REMARK  10 active torsions:
REMARK  status: ('A' for Active; 'I' for Inactive)
REMARK    1  A    between atoms: C_1  and  C_2
REMARK    2  A    between atoms: C_2  and  N_3
REMARK    3  A    between atoms: N_3  and  C_4
REMARK    4  A    between atoms: N_3  and  C_5
REMARK    5  A    between atoms: C_5  and  C_6
REMARK    6  A    between atoms: C_6  and  N_7
REMARK    7  A    between atoms: N_7  and  C_8
REMARK    8  A    between atoms: C_12  and  C_13
REMARK    9  A    between atoms: C_13  and  N_14
REMARK   10  A    between atoms: C_19  and  C_20
REMARK                            x       y       z     vdW  Elec       q    Type
REMARK                         _______ _______ _______ _____ _____    ______ ____
ROOT
ATOM      1  C   UNL     1      45.302   4.041  12.986  0.00  0.00    +0.000 A 
ATOM      2  C   UNL     1      44.350   4.989  13.379  0.00  0.00    +0.000 A 
ATOM      3  C   UNL     1      43.303   5.356  12.528  0.00  0.00    +0.000 A 
ATOM      4  C   UNL     1      43.211   4.804  11.253  0.00  0.00    +0.000 A 
ATOM      5  C   UNL     1      44.184   3.904  10.809  0.00  0.00    +0.000 A 
ATOM      6  C   UNL     1      45.220   3.534  11.683  0.00  0.00    +0.000 A 
ENDROOT
BRANCH   1   7
ATOM      7  N   UNL     1      46.394   3.656  13.773  0.00  0.00    +0.000 N 
ATOM      8  H   UNL     1      47.064   3.113  13.228  0.00  0.00    +0.000 HD
BRANCH   7   9
ATOM      9  C   UNL     1      47.087   4.681  14.554  0.00  0.00    +0.000 C 
BRANCH   9  10
ATOM     10  C   UNL     1      47.303   4.201  16.008  0.00  0.00    +0.000 C 
BRANCH  10  11
ATOM     11  N   UNL     1      48.708   4.234  16.495  0.00  0.00    +0.000 NA
ATOM     12  C   UNL     1      48.855   3.230  17.557  0.00  0.00    +0.000 C 
BRANCH  11  14
ATOM     13  C   UNL     1      49.514   5.622  18.431  0.00  0.00    +0.000 C 
ATOM     14  C   UNL     1      49.085   5.578  16.968  0.00  0.00    +0.000 C 
ENDBRANCH  11  14
ENDBRANCH  10  11
ENDBRANCH   9  10
ENDBRANCH   7   9
ENDBRANCH   1   7
BRANCH   5  15
ATOM     15  C   UNL     1      44.136   3.351   9.403  0.00  0.00    +0.000 C 
BRANCH  15  16
ATOM     16  N   UNL     1      45.037   4.094   8.532  0.00  0.00    +0.000 N 
ATOM     17  C   UNL     1      45.970   3.265   7.884  0.00  0.00    +0.000 A 
ATOM     18  C   UNL     1      46.893   3.842   7.019  0.00  0.00    +0.000 A 
ATOM     19  C   UNL     1      47.799   3.026   6.342  0.00  0.00    +0.000 A 
ATOM     20  C   UNL     1      47.762   1.653   6.545  0.00  0.00    +0.000 A 
ATOM     21  C   UNL     1      46.814   1.142   7.419  0.00  0.00    +0.000 A 
ATOM     22  C   UNL     1      46.708  -0.326   7.690  0.00  0.00    +0.000 C 
ATOM     23  N   UNL     1      45.929   1.931   8.073  0.00  0.00    +0.000 NA
ATOM     24  H   UNL     1      45.525   4.830   9.029  0.00  0.00    +0.000 HD
ENDBRANCH  15  16
ENDBRANCH   5  15
TORSDOF 7
ENDMDL
MODEL 3
REMARK VINA RESULT:    -6.699      2.681      7.761
REMARK INTER + INTRA:          -9.932
REMARK INTER:                  -9.025
REMARK INTRA:                  -0.907
REMARK UNBOUND:                -0.491
REMARK  Name = 
REMARK  10 active torsions:
REMARK  status: ('A' for Active; 'I' for Inactive)
REMARK    1  A    between atoms: C_1  and  C_2
REMARK    2  A    between atoms: C_2  and  N_3
REMARK    3  A    between atoms: N_3  and  C_4
REMARK    4  A    between atoms: N_3  and  C_5
REMARK    5  A    between atoms: C_5  and  C_6
REMARK    6  A    between atoms: C_6  and  N_7
REMARK    7  A    between atoms: N_7  and  C_8
REMARK    8  A    between atoms: C_12  and  C_13
REMARK    9  A    between atoms: C_13  and  N_14
REMARK   10  A    between atoms: C_19  and  C_20
REMARK                            x       y       z     vdW  Elec       q    Type
REMARK                         _______ _______ _______ _____ _____    ______ ____
ROOT
ATOM      1  C   UNL     1      44.161   5.880  12.217  0.00  0.00    +0.000 A 
ATOM      2  C   UNL     1      43.550   5.183  13.265  0.00  0.00    +0.000 A 
ATOM      3  C   UNL     1      43.210   3.833  13.134  0.00  0.00    +0.000 A 
ATOM      4  C   UNL     1      43.445   3.166  11.934  0.00  0.00    +0.000 A 
ATOM      5  C   UNL     1      43.993   3.854  10.847  0.00  0.00    +0.000 A 
ATOM      6  C   UNL     1      44.345   5.206  11.003  0.00  0.00    +0.000 A 
ENDROOT
BRANCH   1   7
ATOM      7  N   UNL     1      44.494   7.239  12.269  0.00  0.00    +0.000 N 
ATOM      8  H   UNL     1      44.230   7.647  13.166  0.00  0.00    +0.000 HD
BRANCH   7   9
ATOM      9  C   UNL     1      45.856   7.637  11.911  0.00  0.00    +0.000 C 
BRANCH   9  10
ATOM     10  C   UNL     1      46.588   8.226  13.139  0.00  0.00    +0.000 C 
BRANCH  10  11
ATOM     11  N   UNL     1      47.774   7.461  13.610  0.00  0.00    +0.000 NA
ATOM     12  C   UNL     1      48.986   8.164  13.168  0.00  0.00    +0.000 C 
BRANCH  11  14
ATOM     13  C   UNL     1      47.189   5.071  14.130  0.00  0.00    +0.000 C 
ATOM     14  C   UNL     1      47.749   6.071  13.123  0.00  0.00    +0.000 C 
ENDBRANCH  11  14
ENDBRANCH  10  11
ENDBRANCH   9  10
ENDBRANCH   7   9
ENDBRANCH   1   7
BRANCH   5  15
ATOM     15  C   UNL     1      44.189   3.161   9.519  0.00  0.00    +0.000 C 
BRANCH  15  16
ATOM     16  N   UNL     1      45.077   3.939   8.664  0.00  0.00    +0.000 N 
ATOM     17  C   UNL     1      46.004   3.139   7.974  0.00  0.00    +0.000 A 
ATOM     18  C   UNL     1      46.913   3.751   7.119  0.00  0.00    +0.000 A 
ATOM     19  C   UNL     1      47.813   2.964   6.400  0.00  0.00    +0.000 A 
ATOM     20  C   UNL     1      47.782   1.584   6.551  0.00  0.00    +0.000 A 
ATOM     21  C   UNL     1      46.847   1.037   7.418  0.00  0.00    +0.000 A 
ATOM     22  C   UNL     1      46.748  -0.440   7.635  0.00  0.00    +0.000 C 
ATOM     23  N   UNL     1      45.969   1.798   8.112  0.00  0.00    +0.000 NA
ATOM     24  H   UNL     1      45.569   4.658   9.182  0.00  0.00    +0.000 HD
ENDBRANCH  15  16
ENDBRANCH   5  15
TORSDOF 7
ENDMDL
MODEL 4
REMARK VINA RESULT:    -6.517      3.152      7.884
REMARK INTER + INTRA:          -9.675
REMARK INTER:                  -8.863
REMARK INTRA:                  -0.812
REMARK UNBOUND:                -0.491
REMARK  Name = 
REMARK  10 active torsions:
REMARK  status: ('A' for Active; 'I' for Inactive)
REMARK    1  A    between atoms: C_1  and  C_2
REMARK    2  A    between atoms: C_2  and  N_3
REMARK    3  A    between atoms: N_3  and  C_4
REMARK    4  A    between atoms: N_3  and  C_5
REMARK    5  A    between atoms: C_5  and  C_6
REMARK    6  A    between atoms: C_6  and  N_7
REMARK    7  A    between atoms: N_7  and  C_8
REMARK    8  A    between atoms: C_12  and  C_13
REMARK    9  A    between atoms: C_13  and  N_14
REMARK   10  A    between atoms: C_19  and  C_20
REMARK                            x       y       z     vdW  Elec       q    Type
REMARK                         _______ _______ _______ _____ _____    ______ ____
ROOT
ATOM      1  C   UNL     1      45.505   5.081  12.657  0.00  0.00    +0.000 A 
ATOM      2  C   UNL     1      44.305   5.513  13.233  0.00  0.00    +0.000 A 
ATOM      3  C   UNL     1      43.072   5.212  12.647  0.00  0.00    +0.000 A 
ATOM      4  C   UNL     1      43.021   4.500  11.451  0.00  0.00    +0.000 A 
ATOM      5  C   UNL     1      44.206   4.112  10.817  0.00  0.00    +0.000 A 
ATOM      6  C   UNL     1      45.436   4.409  11.430  0.00  0.00    +0.000 A 
ENDROOT
BRANCH   1   7
ATOM      7  N   UNL     1      46.773   5.378  13.171  0.00  0.00    +0.000 N 
ATOM      8  H   UNL     1      47.506   4.945  12.610  0.00  0.00    +0.000 HD
BRANCH   7   9
ATOM      9  C   UNL     1      47.103   6.777  13.446  0.00  0.00    +0.000 C 
BRANCH   9  10
ATOM     10  C   UNL     1      47.414   7.529  12.132  0.00  0.00    +0.000 C 
BRANCH  10  11
ATOM     11  N   UNL     1      46.861   8.907  12.031  0.00  0.00    +0.000 NA
ATOM     12  C   UNL     1      47.701   9.804  12.837  0.00  0.00    +0.000 C 
BRANCH  11  14
ATOM     13  C   UNL     1      44.491   9.445  11.383  0.00  0.00    +0.000 C 
ATOM     14  C   UNL     1      45.453   8.957  12.463  0.00  0.00    +0.000 C 
ENDBRANCH  11  14
ENDBRANCH  10  11
ENDBRANCH   9  10
ENDBRANCH   7   9
ENDBRANCH   1   7
BRANCH   5  15
ATOM     15  C   UNL     1      44.168   3.400   9.485  0.00  0.00    +0.000 C 
BRANCH  15  16
ATOM     16  N   UNL     1      44.964   4.120   8.500  0.00  0.00    +0.000 N 
ATOM     17  C   UNL     1      45.866   3.284   7.818  0.00  0.00    +0.000 A 
ATOM     18  C   UNL     1      46.691   3.840   6.845  0.00  0.00    +0.000 A 
ATOM     19  C   UNL     1      47.563   3.015   6.135  0.00  0.00    +0.000 A 
ATOM     20  C   UNL     1      47.591   1.655   6.413  0.00  0.00    +0.000 A 
ATOM     21  C   UNL     1      46.740   1.165   7.393  0.00  0.00    +0.000 A 
ATOM     22  C   UNL     1      46.708  -0.288   7.750  0.00  0.00    +0.000 C 
ATOM     23  N   UNL     1      45.888   1.962   8.079  0.00  0.00    +0.000 NA
ATOM     24  H   UNL     1      45.468   4.897   8.912  0.00  0.00    +0.000 HD
ENDBRANCH  15  16
ENDBRANCH   5  15
TORSDOF 7
ENDMDL
MODEL 5
REMARK VINA RESULT:    -6.474      3.413      4.617
REMARK INTER + INTRA:          -9.615
REMARK INTER:                  -8.979
REMARK INTRA:                  -0.636
REMARK UNBOUND:                -0.491
REMARK  Name = 
REMARK  10 active torsions:
REMARK  status: ('A' for Active; 'I' for Inactive)
REMARK    1  A    between atoms: C_1  and  C_2
REMARK    2  A    between atoms: C_2  and  N_3
REMARK    3  A    between atoms: N_3  and  C_4
REMARK    4  A    between atoms: N_3  and  C_5
REMARK    5  A    between atoms: C_5  and  C_6
REMARK    6  A    between atoms: C_6  and  N_7
REMARK    7  A    between atoms: N_7  and  C_8
REMARK    8  A    between atoms: C_12  and  C_13
REMARK    9  A    between atoms: C_13  and  N_14
REMARK   10  A    between atoms: C_19  and  C_20
REMARK                            x       y       z     vdW  Elec       q    Type
REMARK                         _______ _______ _______ _____ _____    ______ ____
ROOT
ATOM      1  C   UNL     1      44.262   4.253  10.173  0.00  0.00    +0.000 A 
ATOM      2  C   UNL     1      43.662   3.192  10.859  0.00  0.00    +0.000 A 
ATOM      3  C   UNL     1      43.689   3.126  12.256  0.00  0.00    +0.000 A 
ATOM      4  C   UNL     1      44.350   4.109  12.989  0.00  0.00    +0.000 A 
ATOM      5  C   UNL     1      45.015   5.146  12.328  0.00  0.00    +0.000 A 
ATOM      6  C   UNL     1      44.963   5.204  10.925  0.00  0.00    +0.000 A 
ENDROOT
BRANCH   1   7
ATOM      7  N   UNL     1      44.303   4.360   8.778  0.00  0.00    +0.000 N 
ATOM      8  H   UNL     1      43.749   5.154   8.455  0.00  0.00    +0.000 HD
BRANCH   7   9
ATOM      9  C   UNL     1      45.608   4.348   8.116  0.00  0.00    +0.000 C 
BRANCH   9  10
ATOM     10  C   UNL     1      45.803   3.034   7.327  0.00  0.00    +0.000 C 
BRANCH  10  11
ATOM     11  N   UNL     1      47.147   2.843   6.716  0.00  0.00    +0.000 NA
ATOM     12  C   UNL     1      47.005   2.900   5.255  0.00  0.00    +0.000 C 
BRANCH  11  14
ATOM     13  C   UNL     1      46.754   0.516   7.587  0.00  0.00    +0.000 C 
ATOM     14  C   UNL     1      47.761   1.575   7.148  0.00  0.00    +0.000 C 
ENDBRANCH  11  14
ENDBRANCH  10  11
ENDBRANCH   9  10
ENDBRANCH   7   9
ENDBRANCH   1   7
BRANCH   5  15
ATOM     15  C   UNL     1      45.795   6.179  13.108  0.00  0.00    +0.000 C 
BRANCH  15  16
ATOM     16  N   UNL     1      47.214   6.093  12.790  0.00  0.00    +0.000 N 
ATOM     17  C   UNL     1      47.748   7.319  12.357  0.00  0.00    +0.000 A 
ATOM     18  C   UNL     1      49.096   7.382  12.021  0.00  0.00    +0.000 A 
ATOM     19  C   UNL     1      49.646   8.602  11.625  0.00  0.00    +0.000 A 
ATOM     20  C   UNL     1      48.837   9.729  11.575  0.00  0.00    +0.000 A 
ATOM     21  C   UNL     1      47.501   9.597  11.926  0.00  0.00    +0.000 A 
ATOM     22  C   UNL     1      46.564  10.764  11.900  0.00  0.00    +0.000 C 
ATOM     23  N   UNL     1      46.966   8.416  12.316  0.00  0.00    +0.000 NA
ATOM     24  H   UNL     1      47.407   5.377  12.100  0.00  0.00    +0.000 HD
ENDBRANCH  15  16
ENDBRANCH   5  15
TORSDOF 7
ENDMDL
MODEL 6
REMARK VINA RESULT:    -6.465      1.180      1.539
REMARK INTER + INTRA:          -9.601
REMARK INTER:                  -9.070
REMARK INTRA:                  -0.531
REMARK UNBOUND:                -0.491
REMARK  Name = 
REMARK  10 active torsions:
REMARK  status: ('A' for Active; 'I' for Inactive)
REMARK    1  A    between atoms: C_1  and  C_2
REMARK    2  A    between atoms: C_2  and  N_3
REMARK    3  A    between atoms: N_3  and  C_4
REMARK    4  A    between atoms: N_3  and  C_5
REMARK    5  A    between atoms: C_5  and  C_6
REMARK    6  A    between atoms: C_6  and  N_7
REMARK    7  A    between atoms: N_7  and  C_8
REMARK    8  A    between atoms: C_12  and  C_13
REMARK    9  A    between atoms: C_13  and  N_14
REMARK   10  A    between atoms: C_19  and  C_20
REMARK                            x       y       z     vdW  Elec       q    Type
REMARK                         _______ _______ _______ _____ _____    ______ ____
ROOT
ATOM      1  C   UNL     1      45.023   5.472  10.897  0.00  0.00    +0.000 A 
ATOM      2  C   UNL     1      43.747   5.060  11.297  0.00  0.00    +0.000 A 
ATOM      3  C   UNL     1      43.491   4.682  12.619  0.00  0.00    +0.000 A 
ATOM      4  C   UNL     1      44.520   4.679  13.558  0.00  0.00    +0.000 A 
ATOM      5  C   UNL     1      45.819   5.023  13.172  0.00  0.00    +0.000 A 
ATOM      6  C   UNL     1      46.054   5.416  11.843  0.00  0.00    +0.000 A 
ENDROOT
BRANCH   1   7
ATOM      7  N   UNL     1      45.355   5.828   9.585  0.00  0.00    +0.000 N 
ATOM      8  H   UNL     1      45.857   6.716   9.562  0.00  0.00    +0.000 HD
BRANCH   7   9
ATOM      9  C   UNL     1      46.034   4.840   8.746  0.00  0.00    +0.000 C 
BRANCH   9  10
ATOM     10  C   UNL     1      45.003   3.939   8.027  0.00  0.00    +0.000 C 
BRANCH  10  11
ATOM     11  N   UNL     1      45.445   2.544   7.756  0.00  0.00    +0.000 NA
ATOM     12  C   UNL     1      45.321   1.768   8.997  0.00  0.00    +0.000 C 
BRANCH  11  14
ATOM     13  C   UNL     1      46.924   2.807   5.739  0.00  0.00    +0.000 C 
ATOM     14  C   UNL     1      46.822   2.506   7.231  0.00  0.00    +0.000 C 
ENDBRANCH  11  14
ENDBRANCH  10  11
ENDBRANCH   9  10
ENDBRANCH   7   9
ENDBRANCH   1   7
BRANCH   5  15
ATOM     15  C   UNL     1      46.958   4.957  14.163  0.00  0.00    +0.000 C 
BRANCH  15  16
ATOM     16  N   UNL     1      46.665   3.990  15.213  0.00  0.00    +0.000 N 
ATOM     17  C   UNL     1      47.618   4.007  16.246  0.00  0.00    +0.000 A 
ATOM     18  C   UNL     1      47.461   3.134  17.317  0.00  0.00    +0.000 A 
ATOM     19  C   UNL     1      48.379   3.167  18.367  0.00  0.00    +0.000 A 
ATOM     20  C   UNL     1      49.432   4.071  18.322  0.00  0.00    +0.000 A 
ATOM     21  C   UNL     1      49.529   4.916  17.225  0.00  0.00    +0.000 A 
ATOM     22  C   UNL     1      50.633   5.919  17.103  0.00  0.00    +0.000 C 
ATOM     23  N   UNL     1      48.635   4.890  16.209  0.00  0.00    +0.000 NA
ATOM     24  H   UNL     1      46.576   3.049  14.849  0.00  0.00    +0.000 HD
ENDBRANCH  15  16
ENDBRANCH   5  15
TORSDOF 7
ENDMDL
MODEL 7
REMARK VINA RESULT:    -6.456      1.847      2.907
REMARK INTER + INTRA:          -9.589
REMARK INTER:                  -8.927
REMARK INTRA:                  -0.661
REMARK UNBOUND:                -0.491
REMARK  Name = 
REMARK  10 active torsions:
REMARK  status: ('A' for Active; 'I' for Inactive)
REMARK    1  A    between atoms: C_1  and  C_2
REMARK    2  A    between atoms: C_2  and  N_3
REMARK    3  A    between atoms: N_3  and  C_4
REMARK    4  A    between atoms: N_3  and  C_5
REMARK    5  A    between atoms: C_5  and  C_6
REMARK    6  A    between atoms: C_6  and  N_7
REMARK    7  A    between atoms: N_7  and  C_8
REMARK    8  A    between atoms: C_12  and  C_13
REMARK    9  A    between atoms: C_13  and  N_14
REMARK   10  A    between atoms: C_19  and  C_20
REMARK                            x       y       z     vdW  Elec       q    Type
REMARK                         _______ _______ _______ _____ _____    ______ ____
ROOT
ATOM      1  C   UNL     1      45.191   6.491  12.459  0.00  0.00    +0.000 A 
ATOM      2  C   UNL     1      46.171   7.382  12.011  0.00  0.00    +0.000 A 
ATOM      3  C   UNL     1      47.519   7.195  12.331  0.00  0.00    +0.000 A 
ATOM      4  C   UNL     1      47.905   6.127  13.137  0.00  0.00    +0.000 A 
ATOM      5  C   UNL     1      46.940   5.257  13.654  0.00  0.00    +0.000 A 
ATOM      6  C   UNL     1      45.592   5.451  13.307  0.00  0.00    +0.000 A 
ENDROOT
BRANCH   1   7
ATOM      7  N   UNL     1      43.822   6.639  12.206  0.00  0.00    +0.000 N 
ATOM      8  H   UNL     1      43.658   7.318  11.462  0.00  0.00    +0.000 HD
BRANCH   7   9
ATOM      9  C   UNL     1      43.020   5.436  11.981  0.00  0.00    +0.000 C 
BRANCH   9  10
ATOM     10  C   UNL     1      43.350   4.814  10.605  0.00  0.00    +0.000 C 
BRANCH  10  11
ATOM     11  N   UNL     1      43.458   3.330  10.578  0.00  0.00    +0.000 NA
ATOM     12  C   UNL     1      43.440   2.838  11.963  0.00  0.00    +0.000 C 
BRANCH  11  14
ATOM     13  C   UNL     1      44.817   3.486   8.468  0.00  0.00    +0.000 C 
ATOM     14  C   UNL     1      44.669   2.889   9.864  0.00  0.00    +0.000 C 
ENDBRANCH  11  14
ENDBRANCH  10  11
ENDBRANCH   9  10
ENDBRANCH   7   9
ENDBRANCH   1   7
BRANCH   5  15
ATOM     15  C   UNL     1      47.336   4.136  14.586  0.00  0.00    +0.000 C 
BRANCH  15  16
ATOM     16  N   UNL     1      46.723   4.320  15.895  0.00  0.00    +0.000 N 
ATOM     17  C   UNL     1      47.653   4.693  16.881  0.00  0.00    +0.000 A 
ATOM     18  C   UNL     1      47.204   4.905  18.180  0.00  0.00    +0.000 A 
ATOM     19  C   UNL     1      48.111   5.312  19.159  0.00  0.00    +0.000 A 
ATOM     20  C   UNL     1      49.444   5.498  18.818  0.00  0.00    +0.000 A 
ATOM     21  C   UNL     1      49.824   5.272  17.502  0.00  0.00    +0.000 A 
ATOM     22  C   UNL     1      51.241   5.453  17.054  0.00  0.00    +0.000 C 
ATOM     23  N   UNL     1      48.945   4.884  16.549  0.00  0.00    +0.000 NA
ATOM     24  H   UNL     1      46.220   3.495  16.199  0.00  0.00    +0.000 HD
ENDBRANCH  15  16
ENDBRANCH   5  15
TORSDOF 7
ENDMDL
MODEL 8
REMARK VINA RESULT:    -6.272      1.839      7.943
REMARK INTER + INTRA:          -9.330
REMARK INTER:                  -8.745
REMARK INTRA:                  -0.586
REMARK UNBOUND:                -0.491
REMARK  Name = 
REMARK  10 active torsions:
REMARK  status: ('A' for Active; 'I' for Inactive)
REMARK    1  A    between atoms: C_1  and  C_2
REMARK    2  A    between atoms: C_2  and  N_3
REMARK    3  A    between atoms: N_3  and  C_4
REMARK    4  A    between atoms: N_3  and  C_5
REMARK    5  A    between atoms: C_5  and  C_6
REMARK    6  A    between atoms: C_6  and  N_7
REMARK    7  A    between atoms: N_7  and  C_8
REMARK    8  A    between atoms: C_12  and  C_13
REMARK    9  A    between atoms: C_13  and  N_14
REMARK   10  A    between atoms: C_19  and  C_20
REMARK                            x       y       z     vdW  Elec       q    Type
REMARK                         _______ _______ _______ _____ _____    ______ ____
ROOT
ATOM      1  C   UNL     1      47.812   6.314  13.910  0.00  0.00    +0.000 A 
ATOM      2  C   UNL     1      48.937   6.961  13.388  0.00  0.00    +0.000 A 
ATOM      3  C   UNL     1      48.918   7.524  12.109  0.00  0.00    +0.000 A 
ATOM      4  C   UNL     1      47.780   7.418  11.314  0.00  0.00    +0.000 A 
ATOM      5  C   UNL     1      46.662   6.720  11.783  0.00  0.00    +0.000 A 
ATOM      6  C   UNL     1      46.693   6.175  13.078  0.00  0.00    +0.000 A 
ENDROOT
BRANCH   1   7
ATOM      7  N   UNL     1      47.774   5.698  15.167  0.00  0.00    +0.000 N 
ATOM      8  H   UNL     1      47.825   4.683  15.079  0.00  0.00    +0.000 HD
BRANCH   7   9
ATOM      9  C   UNL     1      48.699   6.166  16.199  0.00  0.00    +0.000 C 
BRANCH   9  10
ATOM     10  C   UNL     1      48.748   5.164  17.376  0.00  0.00    +0.000 C 
BRANCH  10  11
ATOM     11  N   UNL     1      49.020   3.749  17.006  0.00  0.00    +0.000 NA
ATOM     12  C   UNL     1      47.906   2.920  17.490  0.00  0.00    +0.000 C 
BRANCH  11  14
ATOM     13  C   UNL     1      50.699   1.879  17.105  0.00  0.00    +0.000 C 
ATOM     14  C   UNL     1      50.310   3.286  17.548  0.00  0.00    +0.000 C 
ENDBRANCH  11  14
ENDBRANCH  10  11
ENDBRANCH   9  10
ENDBRANCH   7   9
ENDBRANCH   1   7
BRANCH   5  15
ATOM     15  C   UNL     1      45.446   6.536  10.905  0.00  0.00    +0.000 C 
BRANCH  15  16
ATOM     16  N   UNL     1      44.732   5.320  11.271  0.00  0.00    +0.000 N 
ATOM     17  C   UNL     1      44.842   4.313  10.295  0.00  0.00    +0.000 A 
ATOM     18  C   UNL     1      44.210   3.095  10.515  0.00  0.00    +0.000 A 
ATOM     19  C   UNL     1      44.342   2.075   9.572  0.00  0.00    +0.000 A 
ATOM     20  C   UNL     1      45.104   2.297   8.432  0.00  0.00    +0.000 A 
ATOM     21  C   UNL     1      45.711   3.535   8.276  0.00  0.00    +0.000 A 
ATOM     22  C   UNL     1      46.549   3.852   7.078  0.00  0.00    +0.000 C 
ATOM     23  N   UNL     1      45.589   4.523   9.193  0.00  0.00    +0.000 NA
ATOM     24  H   UNL     1      43.754   5.497  11.466  0.00  0.00    +0.000 HD
ENDBRANCH  15  16
ENDBRANCH   5  15
TORSDOF 7
ENDMDL
MODEL 9
REMARK VINA RESULT:    -6.200      2.537      3.637
REMARK INTER + INTRA:          -9.228
REMARK INTER:                  -8.726
REMARK INTRA:                  -0.502
REMARK UNBOUND:                -0.491
REMARK  Name = 
REMARK  10 active torsions:
REMARK  status: ('A' for Active; 'I' for Inactive)
REMARK    1  A    between atoms: C_1  and  C_2
REMARK    2  A    between atoms: C_2  and  N_3
REMARK    3  A    between atoms: N_3  and  C_4
REMARK    4  A    between atoms: N_3  and  C_5
REMARK    5  A    between atoms: C_5  and  C_6
REMARK    6  A    between atoms: C_6  and  N_7
REMARK    7  A    between atoms: N_7  and  C_8
REMARK    8  A    between atoms: C_12  and  C_13
REMARK    9  A    between atoms: C_13  and  N_14
REMARK   10  A    between atoms: C_19  and  C_20
REMARK                            x       y       z     vdW  Elec       q    Type
REMARK                         _______ _______ _______ _____ _____    ______ ____
ROOT
ATOM      1  C   UNL     1      44.093   4.687  10.542  0.00  0.00    +0.000 A 
ATOM      2  C   UNL     1      43.095   4.290  11.437  0.00  0.00    +0.000 A 
ATOM      3  C   UNL     1      43.285   4.381  12.819  0.00  0.00    +0.000 A 
ATOM      4  C   UNL     1      44.495   4.843  13.330  0.00  0.00    +0.000 A 
ATOM      5  C   UNL     1      45.535   5.186  12.460  0.00  0.00    +0.000 A 
ATOM      6  C   UNL     1      45.320   5.103  11.074  0.00  0.00    +0.000 A 
ENDROOT
BRANCH   1   7
ATOM      7  N   UNL     1      43.983   4.588   9.150  0.00  0.00    +0.000 N 
ATOM      8  H   UNL     1      44.318   5.437   8.694  0.00  0.00    +0.000 HD
BRANCH   7   9
ATOM      9  C   UNL     1      44.535   3.405   8.490  0.00  0.00    +0.000 C 
BRANCH   9  10
ATOM     10  C   UNL     1      45.832   3.765   7.729  0.00  0.00    +0.000 C 
BRANCH  10  11
ATOM     11  N   UNL     1      46.801   2.651   7.543  0.00  0.00    +0.000 NA
ATOM     12  C   UNL     1      47.199   2.612   6.130  0.00  0.00    +0.000 C 
BRANCH  11  14
ATOM     13  C   UNL     1      47.098   0.155   7.632  0.00  0.00    +0.000 C 
ATOM     14  C   UNL     1      46.232   1.363   7.978  0.00  0.00    +0.000 C 
ENDBRANCH  11  14
ENDBRANCH  10  11
ENDBRANCH   9  10
ENDBRANCH   7   9
ENDBRANCH   1   7
BRANCH   5  15
ATOM     15  C   UNL     1      46.877   5.622  13.001  0.00  0.00    +0.000 C 
BRANCH  15  16
ATOM     16  N   UNL     1      47.502   6.582  12.101  0.00  0.00    +0.000 N 
ATOM     17  C   UNL     1      48.625   7.208  12.670  0.00  0.00    +0.000 A 
ATOM     18  C   UNL     1      49.321   8.149  11.919  0.00  0.00    +0.000 A 
ATOM     19  C   UNL     1      50.459   8.749  12.459  0.00  0.00    +0.000 A 
ATOM     20  C   UNL     1      50.874   8.396  13.736  0.00  0.00    +0.000 A 
ATOM     21  C   UNL     1      50.135   7.448  14.430  0.00  0.00    +0.000 A 
ATOM     22  C   UNL     1      50.517   7.011  15.810  0.00  0.00    +0.000 C 
ATOM     23  N   UNL     1      49.035   6.859  13.906  0.00  0.00    +0.000 NA
ATOM     24  H   UNL     1      46.847   7.287  11.782  0.00  0.00    +0.000 HD
ENDBRANCH  15  16
ENDBRANCH   5  15
TORSDOF 7
ENDMDL
