MODEL 1
REMARK VINA RESULT:    -8.378      0.000      0.000
REMARK INTER + INTRA:         -11.549
REMARK INTER:                 -10.826
REMARK INTRA:                  -0.723
REMARK UNBOUND:                -0.723
REMARK  Name = 
REMARK  6 active torsions:
REMARK  status: ('A' for Active; 'I' for Inactive)
REMARK    1  A    between atoms: C_1  and  O_2
REMARK    2  A    between atoms: O_2  and  C_3
REMARK    3  A    between atoms: C_7  and  N_8
REMARK    4  A    between atoms: N_8  and  C_9
REMARK    5  A    between atoms: C_9  and  C_10
REMARK    6  A    between atoms: C_14  and  C_15
REMARK                            x       y       z     vdW  Elec       q    Type
REMARK                         _______ _______ _______ _____ _____    ______ ____
ROOT
ATOM      1  C   UNL     1      43.620   4.939  10.978  0.00  0.00    +0.000 A 
ATOM      2  C   UNL     1      42.962   3.958  11.715  0.00  0.00    +0.000 A 
ATOM      3  C   UNL     1      43.169   2.632  11.377  0.00  0.00    +0.000 A 
ATOM      4  N   UNL     1      43.977   2.226  10.373  0.00  0.00    +0.000 NA
ATOM      5  C   UNL     1      44.624   3.179   9.654  0.00  0.00    +0.000 A 
ATOM      6  C   UNL     1      44.472   4.535   9.943  0.00  0.00    +0.000 A 
ENDROOT
BRANCH   5   7
ATOM      7  C   UNL     1      45.502   2.695   8.570  0.00  0.00    +0.000 A 
ATOM      8  C   UNL     1      45.995   3.574   7.584  0.00  0.00    +0.000 A 
ATOM      9  C   UNL     1      46.803   3.121   6.533  0.00  0.00    +0.000 A 
ATOM     10  C   UNL     1      47.142   1.775   6.447  0.00  0.00    +0.000 A 
ATOM     11  C   UNL     1      46.682   0.901   7.420  0.00  0.00    +0.000 A 
ATOM     12  F   UNL     1      47.008  -0.397   7.352  0.00  0.00    +0.000 F 
ATOM     13  C   UNL     1      45.880   1.344   8.471  0.00  0.00    +0.000 A 
ENDBRANCH   5   7
BRANCH   1  14
ATOM     14  C   UNL     1      43.465   6.401  11.311  0.00  0.00    +0.000 C 
BRANCH  14  15
ATOM     15  N   UNL     1      43.918   6.618  12.678  0.00  0.00    +0.000 N 
ATOM     16  H   UNL     1      43.390   6.069  13.349  0.00  0.00    +0.000 HD
BRANCH  15  21
ATOM     17  C   UNL     1      47.067   5.207  13.703  0.00  0.00    +0.000 A 
ATOM     18  C   UNL     1      47.964   6.039  13.053  0.00  0.00    +0.000 A 
ATOM     19  N   UNL     1      47.563   7.084  12.294  0.00  0.00    +0.000 NA
ATOM     20  C   UNL     1      46.218   7.237  12.213  0.00  0.00    +0.000 A 
ATOM     21  C   UNL     1      45.294   6.411  12.865  0.00  0.00    +0.000 A 
ATOM     22  N   UNL     1      45.727   5.379  13.619  0.00  0.00    +0.000 NA
BRANCH  17  24
ATOM     23  C   UNL     1      47.441   4.370  15.849  0.00  0.00    +0.000 C 
ATOM     24  O   UNL     1      47.579   4.164  14.445  0.00  0.00    +0.000 OA
ENDBRANCH  17  24
ENDBRANCH  15  21
ENDBRANCH  14  15
ENDBRANCH   1  14
TORSDOF 5
ENDMDL
MODEL 2
REMARK VINA RESULT:    -8.302      1.501      2.054
REMARK INTER + INTRA:         -11.452
REMARK INTER:                 -10.654
REMARK INTRA:                  -0.798
REMARK UNBOUND:                -0.723
REMARK  Name = 
REMARK  6 active torsions:
REMARK  status: ('A' for Active; 'I' for Inactive)
REMARK    1  A    between atoms: C_1  and  O_2
REMARK    2  A    between atoms: O_2  and  C_3
REMARK    3  A    between atoms: C_7  and  N_8
REMARK    4  A    between atoms: N_8  and  C_9
REMARK    5  A    between atoms: C_9  and  C_10
REMARK    6  A    between atoms: C_14  and  C_15
REMARK                            x       y       z     vdW  Elec       q    Type
REMARK                         _______ _______ _______ _____ _____    ______ ____
ROOT
ATOM      1  C   UNL     1      43.944   5.201  11.036  0.00  0.00    +0.000 A 
ATOM      2  C   UNL     1      43.189   4.284  11.762  0.00  0.00    +0.000 A 
ATOM      3  C   UNL     1      43.254   2.949  11.404  0.00  0.00    +0.000 A 
ATOM      4  N   UNL     1      44.011   2.475  10.390  0.00  0.00    +0.000 NA
ATOM      5  C   UNL     1      44.752   3.365   9.682  0.00  0.00    +0.000 A 
ATOM      6  C   UNL     1      44.744   4.725   9.991  0.00  0.00    +0.000 A 
ENDROOT
BRANCH   5   7
ATOM      7  C   UNL     1      45.570   2.808   8.586  0.00  0.00    +0.000 A 
ATOM      8  C   UNL     1      46.043   3.627   7.540  0.00  0.00    +0.000 A 
ATOM      9  C   UNL     1      46.793   3.104   6.479  0.00  0.00    +0.000 A 
ATOM     10  C   UNL     1      47.093   1.747   6.442  0.00  0.00    +0.000 A 
ATOM     11  C   UNL     1      46.653   0.931   7.473  0.00  0.00    +0.000 A 
ATOM     12  F   UNL     1      46.942  -0.378   7.452  0.00  0.00    +0.000 F 
ATOM     13  C   UNL     1      45.908   1.444   8.535  0.00  0.00    +0.000 A 
ENDBRANCH   5   7
BRANCH   1  14
ATOM     14  C   UNL     1      43.944   6.666  11.391  0.00  0.00    +0.000 C 
BRANCH  14  15
ATOM     15  N   UNL     1      44.526   6.824  12.716  0.00  0.00    +0.000 N 
ATOM     16  H   UNL     1      44.137   6.169  13.388  0.00  0.00    +0.000 HD
BRANCH  15  21
ATOM     17  C   UNL     1      48.007   7.619  12.259  0.00  0.00    +0.000 A 
ATOM     18  C   UNL     1      48.617   6.586  12.952  0.00  0.00    +0.000 A 
ATOM     19  N   UNL     1      47.912   5.604  13.556  0.00  0.00    +0.000 NA
ATOM     20  C   UNL     1      46.566   5.724  13.438  0.00  0.00    +0.000 A 
ATOM     21  C   UNL     1      45.929   6.756  12.738  0.00  0.00    +0.000 A 
ATOM     22  N   UNL     1      46.662   7.719  12.142  0.00  0.00    +0.000 NA
BRANCH  17  24
ATOM     23  C   UNL     1      50.142   8.103  11.450  0.00  0.00    +0.000 C 
ATOM     24  O   UNL     1      48.818   8.576  11.686  0.00  0.00    +0.000 OA
ENDBRANCH  17  24
ENDBRANCH  15  21
ENDBRANCH  14  15
ENDBRANCH   1  14
TORSDOF 5
ENDMDL
MODEL 3
REMARK VINA RESULT:    -7.942      1.286      1.811
REMARK INTER + INTRA:         -10.986
REMARK INTER:                 -10.334
REMARK INTRA:                  -0.653
REMARK UNBOUND:                -0.723
REMARK  Name = 
REMARK  6 active torsions:
REMARK  status: ('A' for Active; 'I' for Inactive)
REMARK    1  A    between atoms: C_1  and  O_2
REMARK    2  A    between atoms: O_2  and  C_3
REMARK    3  A    between atoms: C_7  and  N_8
REMARK    4  A    between atoms: N_8  and  C_9
REMARK    5  A    between atoms: C_9  and  C_10
REMARK    6  A    between atoms: C_14  and  C_15
REMARK                            x       y       z     vdW  Elec       q    Type
REMARK                         _______ _______ _______ _____ _____    ______ ____
ROOT
ATOM      1  C   UNL     1      44.743   5.377  11.754  0.00  0.00    +0.000 A 
ATOM      2  C   UNL     1      43.525   4.804  12.108  0.00  0.00    +0.000 A 
ATOM      3  C   UNL     1      43.057   3.737  11.360  0.00  0.00    +0.000 A 
ATOM      4  N   UNL     1      43.715   3.212  10.302  0.00  0.00    +0.000 NA
ATOM      5  C   UNL     1      44.904   3.766   9.955  0.00  0.00    +0.000 A 
ATOM      6  C   UNL     1      45.443   4.836  10.669  0.00  0.00    +0.000 A 
ENDROOT
BRANCH   5   7
ATOM      7  C   UNL     1      45.593   3.160   8.798  0.00  0.00    +0.000 A 
ATOM      8  C   UNL     1      46.012   3.947   7.705  0.00  0.00    +0.000 A 
ATOM      9  C   UNL     1      46.638   3.379   6.588  0.00  0.00    +0.000 A 
ATOM     10  C   UNL     1      46.866   2.008   6.541  0.00  0.00    +0.000 A 
ATOM     11  C   UNL     1      46.479   1.223   7.616  0.00  0.00    +0.000 A 
ATOM     12  F   UNL     1      46.699  -0.099   7.585  0.00  0.00    +0.000 F 
ATOM     13  C   UNL     1      45.857   1.780   8.733  0.00  0.00    +0.000 A 
ENDBRANCH   5   7
BRANCH   1  14
ATOM     14  C   UNL     1      45.327   6.521  12.544  0.00  0.00    +0.000 C 
BRANCH  14  15
ATOM     15  N   UNL     1      46.775   6.373  12.578  0.00  0.00    +0.000 N 
ATOM     16  H   UNL     1      47.254   7.205  12.250  0.00  0.00    +0.000 HD
BRANCH  15  21
ATOM     17  C   UNL     1      47.356   4.568  15.638  0.00  0.00    +0.000 A 
ATOM     18  C   UNL     1      48.421   5.273  16.173  0.00  0.00    +0.000 A 
ATOM     19  N   UNL     1      48.951   6.358  15.564  0.00  0.00    +0.000 NA
ATOM     20  C   UNL     1      48.363   6.684  14.386  0.00  0.00    +0.000 A 
ATOM     21  C   UNL     1      47.282   5.989  13.830  0.00  0.00    +0.000 A 
ATOM     22  N   UNL     1      46.773   4.914  14.466  0.00  0.00    +0.000 NA
BRANCH  17  24
ATOM     23  C   UNL     1      47.877   2.930  17.216  0.00  0.00    +0.000 C 
ATOM     24  O   UNL     1      46.895   3.471  16.335  0.00  0.00    +0.000 OA
ENDBRANCH  17  24
ENDBRANCH  15  21
ENDBRANCH  14  15
ENDBRANCH   1  14
TORSDOF 5
ENDMDL
MODEL 4
REMARK VINA RESULT:    -7.532      1.660      1.954
REMARK INTER + INTRA:         -10.456
REMARK INTER:                  -9.790
REMARK INTRA:                  -0.666
REMARK UNBOUND:                -0.723
REMARK  Name = 
REMARK  6 active torsions:
REMARK  status: ('A' for Active; 'I' for Inactive)
REMARK    1  A    between atoms: C_1  and  O_2
REMARK    2  A    between atoms: O_2  and  C_3
REMARK    3  A    between atoms: C_7  and  N_8
REMARK    4  A    between atoms: N_8  and  C_9
REMARK    5  A    between atoms: C_9  and  C_10
REMARK    6  A    between atoms: C_14  and  C_15
REMARK                            x       y       z     vdW  Elec       q    Type
REMARK                         _______ _______ _______ _____ _____    ______ ____
ROOT
ATOM      1  C   UNL     1      44.567   5.717  11.397  0.00  0.00    +0.000 A 
ATOM      2  C   UNL     1      43.422   5.087  11.878  0.00  0.00    +0.000 A 
ATOM      3  C   UNL     1      43.044   3.884  11.310  0.00  0.00    +0.000 A 
ATOM      4  N   UNL     1      43.722   3.275  10.312  0.00  0.00    +0.000 NA
ATOM      5  C   UNL     1      44.841   3.882   9.842  0.00  0.00    +0.000 A 
ATOM      6  C   UNL     1      45.289   5.092  10.372  0.00  0.00    +0.000 A 
ENDROOT
BRANCH   5   7
ATOM      7  C   UNL     1      45.557   3.182   8.756  0.00  0.00    +0.000 A 
ATOM      8  C   UNL     1      46.048   3.884   7.636  0.00  0.00    +0.000 A 
ATOM      9  C   UNL     1      46.701   3.226   6.585  0.00  0.00    +0.000 A 
ATOM     10  C   UNL     1      46.882   1.848   6.633  0.00  0.00    +0.000 A 
ATOM     11  C   UNL     1      46.423   1.146   7.737  0.00  0.00    +0.000 A 
ATOM     12  F   UNL     1      46.598  -0.181   7.798  0.00  0.00    +0.000 F 
ATOM     13  C   UNL     1      45.775   1.793   8.788  0.00  0.00    +0.000 A 
ENDBRANCH   5   7
BRANCH   1  14
ATOM     14  C   UNL     1      45.053   7.013  11.991  0.00  0.00    +0.000 C 
BRANCH  14  15
ATOM     15  N   UNL     1      45.817   6.717  13.194  0.00  0.00    +0.000 N 
ATOM     16  H   UNL     1      45.700   5.755  13.497  0.00  0.00    +0.000 HD
BRANCH  15  21
ATOM     17  C   UNL     1      49.311   7.104  13.968  0.00  0.00    +0.000 A 
ATOM     18  C   UNL     1      49.815   7.537  12.753  0.00  0.00    +0.000 A 
ATOM     19  N   UNL     1      49.027   7.734  11.672  0.00  0.00    +0.000 NA
ATOM     20  C   UNL     1      47.714   7.459  11.875  0.00  0.00    +0.000 A 
ATOM     21  C   UNL     1      47.184   7.026  13.096  0.00  0.00    +0.000 A 
ATOM     22  N   UNL     1      47.996   6.844  14.157  0.00  0.00    +0.000 NA
BRANCH  17  24
ATOM     23  C   UNL     1      50.711   8.160  15.509  0.00  0.00    +0.000 C 
ATOM     24  O   UNL     1      50.202   6.927  15.006  0.00  0.00    +0.000 OA
ENDBRANCH  17  24
ENDBRANCH  15  21
ENDBRANCH  14  15
ENDBRANCH   1  14
TORSDOF 5
ENDMDL
MODEL 5
REMARK VINA RESULT:    -7.517      2.480      3.245
REMARK INTER + INTRA:         -10.437
REMARK INTER:                  -9.843
REMARK INTRA:                  -0.594
REMARK UNBOUND:                -0.723
REMARK  Name = 
REMARK  6 active torsions:
REMARK  status: ('A' for Active; 'I' for Inactive)
REMARK    1  A    between atoms: C_1  and  O_2
REMARK    2  A    between atoms: O_2  and  C_3
REMARK    3  A    between atoms: C_7  and  N_8
REMARK    4  A    between atoms: N_8  and  C_9
REMARK    5  A    between atoms: C_9  and  C_10
REMARK    6  A    between atoms: C_14  and  C_15
REMARK                            x       y       z     vdW  Elec       q    Type
REMARK                         _______ _______ _______ _____ _____    ______ ____
ROOT
ATOM      1  C   UNL     1      44.272   5.095  11.471  0.00  0.00    +0.000 A 
ATOM      2  C   UNL     1      43.336   4.210  12.001  0.00  0.00    +0.000 A 
ATOM      3  C   UNL     1      43.194   2.969  11.405  0.00  0.00    +0.000 A 
ATOM      4  N   UNL     1      43.912   2.558  10.336  0.00  0.00    +0.000 NA
ATOM      5  C   UNL     1      44.827   3.416   9.818  0.00  0.00    +0.000 A 
ATOM      6  C   UNL     1      45.033   4.680  10.372  0.00  0.00    +0.000 A 
ENDROOT
BRANCH   5   7
ATOM      7  C   UNL     1      45.595   2.928   8.655  0.00  0.00    +0.000 A 
ATOM      8  C   UNL     1      46.006   3.807   7.632  0.00  0.00    +0.000 A 
ATOM      9  C   UNL     1      46.708   3.350   6.508  0.00  0.00    +0.000 A 
ATOM     10  C   UNL     1      47.020   2.000   6.385  0.00  0.00    +0.000 A 
ATOM     11  C   UNL     1      46.641   1.126   7.393  0.00  0.00    +0.000 A 
ATOM     12  F   UNL     1      46.943  -0.176   7.289  0.00  0.00    +0.000 F 
ATOM     13  C   UNL     1      45.945   1.573   8.515  0.00  0.00    +0.000 A 
ENDBRANCH   5   7
BRANCH   1  14
ATOM     14  C   UNL     1      44.501   6.451  12.089  0.00  0.00    +0.000 C 
BRANCH  14  15
ATOM     15  N   UNL     1      43.826   7.453  11.276  0.00  0.00    +0.000 N 
ATOM     16  H   UNL     1      42.833   7.506  11.477  0.00  0.00    +0.000 HD
BRANCH  15  21
ATOM     17  C   UNL     1      46.122  10.152  11.912  0.00  0.00    +0.000 A 
ATOM     18  C   UNL     1      45.457  11.220  11.332  0.00  0.00    +0.000 A 
ATOM     19  N   UNL     1      44.244  11.086  10.749  0.00  0.00    +0.000 NA
ATOM     20  C   UNL     1      43.746   9.825  10.768  0.00  0.00    +0.000 A 
ATOM     21  C   UNL     1      44.399   8.733  11.353  0.00  0.00    +0.000 A 
ATOM     22  N   UNL     1      45.606   8.900  11.931  0.00  0.00    +0.000 NA
BRANCH  17  24
ATOM     23  C   UNL     1      48.345  10.728  11.500  0.00  0.00    +0.000 C 
ATOM     24  O   UNL     1      47.359  10.393  12.472  0.00  0.00    +0.000 OA
ENDBRANCH  17  24
ENDBRANCH  15  21
ENDBRANCH  14  15
ENDBRANCH   1  14
TORSDOF 5
ENDMDL
MODEL 6
REMARK VINA RESULT:    -7.479      2.244      3.227
REMARK INTER + INTRA:         -10.388
REMARK INTER:                  -9.830
REMARK INTRA:                  -0.558
REMARK UNBOUND:                -0.723
REMARK  Name = 
REMARK  6 active torsions:
REMARK  status: ('A' for Active; 'I' for Inactive)
REMARK    1  A    between atoms: C_1  and  O_2
REMARK    2  A    between atoms: O_2  and  C_3
REMARK    3  A    between atoms: C_7  and  N_8
REMARK    4  A    between atoms: N_8  and  C_9
REMARK    5  A    between atoms: C_9  and  C_10
REMARK    6  A    between atoms: C_14  and  C_15
REMARK                            x       y       z     vdW  Elec       q    Type
REMARK                         _______ _______ _______ _____ _____    ______ ____
ROOT
ATOM      1  C   UNL     1      45.069   4.846  12.684  0.00  0.00    +0.000 A 
ATOM      2  C   UNL     1      43.798   5.397  12.548  0.00  0.00    +0.000 A 
ATOM      3  C   UNL     1      43.166   5.300  11.321  0.00  0.00    +0.000 A 
ATOM      4  N   UNL     1      43.708   4.698  10.239  0.00  0.00    +0.000 NA
ATOM      5  C   UNL     1      44.945   4.155  10.367  0.00  0.00    +0.000 A 
ATOM      6  C   UNL     1      45.639   4.206  11.576  0.00  0.00    +0.000 A 
ENDROOT
BRANCH   5   7
ATOM      7  C   UNL     1      45.499   3.501   9.165  0.00  0.00    +0.000 A 
ATOM      8  C   UNL     1      45.890   4.255   8.039  0.00  0.00    +0.000 A 
ATOM      9  C   UNL     1      46.387   3.644   6.881  0.00  0.00    +0.000 A 
ATOM     10  C   UNL     1      46.510   2.259   6.824  0.00  0.00    +0.000 A 
ATOM     11  C   UNL     1      46.149   1.505   7.930  0.00  0.00    +0.000 A 
ATOM     12  F   UNL     1      46.270   0.170   7.889  0.00  0.00    +0.000 F 
ATOM     13  C   UNL     1      45.656   2.106   9.087  0.00  0.00    +0.000 A 
ENDBRANCH   5   7
BRANCH   1  14
ATOM     14  C   UNL     1      45.802   4.887  14.000  0.00  0.00    +0.000 C 
BRANCH  14  15
ATOM     15  N   UNL     1      46.681   3.730  14.081  0.00  0.00    +0.000 N 
ATOM     16  H   UNL     1      47.285   3.649  13.270  0.00  0.00    +0.000 HD
BRANCH  15  21
ATOM     17  C   UNL     1      49.036   2.684  16.594  0.00  0.00    +0.000 A 
ATOM     18  C   UNL     1      48.957   3.732  17.497  0.00  0.00    +0.000 A 
ATOM     19  N   UNL     1      48.122   4.780  17.318  0.00  0.00    +0.000 NA
ATOM     20  C   UNL     1      47.385   4.724  16.180  0.00  0.00    +0.000 A 
ATOM     21  C   UNL     1      47.446   3.672  15.257  0.00  0.00    +0.000 A 
ATOM     22  N   UNL     1      48.286   2.638  15.468  0.00  0.00    +0.000 NA
BRANCH  17  24
ATOM     23  C   UNL     1      51.159   2.146  17.401  0.00  0.00    +0.000 C 
ATOM     24  O   UNL     1      49.928   1.667  16.866  0.00  0.00    +0.000 OA
ENDBRANCH  17  24
ENDBRANCH  15  21
ENDBRANCH  14  15
ENDBRANCH   1  14
TORSDOF 5
ENDMDL
MODEL 7
REMARK VINA RESULT:    -7.423      3.236      7.418
REMARK INTER + INTRA:         -10.316
REMARK INTER:                  -9.683
REMARK INTRA:                  -0.633
REMARK UNBOUND:                -0.723
REMARK  Name = 
REMARK  6 active torsions:
REMARK  status: ('A' for Active; 'I' for Inactive)
REMARK    1  A    between atoms: C_1  and  O_2
REMARK    2  A    between atoms: O_2  and  C_3
REMARK    3  A    between atoms: C_7  and  N_8
REMARK    4  A    between atoms: N_8  and  C_9
REMARK    5  A    between atoms: C_9  and  C_10
REMARK    6  A    between atoms: C_14  and  C_15
REMARK                            x       y       z     vdW  Elec       q    Type
REMARK                         _______ _______ _______ _____ _____    ______ ____
ROOT
ATOM      1  C   UNL     1      46.175   5.957  12.357  0.00  0.00    +0.000 A 
ATOM      2  C   UNL     1      47.205   6.715  11.805  0.00  0.00    +0.000 A 
ATOM      3  C   UNL     1      48.361   6.890  12.545  0.00  0.00    +0.000 A 
ATOM      4  N   UNL     1      48.557   6.367  13.775  0.00  0.00    +0.000 NA
ATOM      5  C   UNL     1      47.558   5.625  14.316  0.00  0.00    +0.000 A 
ATOM      6  C   UNL     1      46.367   5.396  13.626  0.00  0.00    +0.000 A 
ENDROOT
BRANCH   5   7
ATOM      7  C   UNL     1      47.813   5.066  15.659  0.00  0.00    +0.000 A 
ATOM      8  C   UNL     1      48.755   5.655  16.526  0.00  0.00    +0.000 A 
ATOM      9  C   UNL     1      49.029   5.115  17.790  0.00  0.00    +0.000 A 
ATOM     10  C   UNL     1      48.360   3.974  18.218  0.00  0.00    +0.000 A 
ATOM     11  C   UNL     1      47.415   3.394  17.385  0.00  0.00    +0.000 A 
ATOM     12  F   UNL     1      46.759   2.297  17.790  0.00  0.00    +0.000 F 
ATOM     13  C   UNL     1      47.135   3.926  16.127  0.00  0.00    +0.000 A 
ENDBRANCH   5   7
BRANCH   1  14
ATOM     14  C   UNL     1      44.901   5.699  11.595  0.00  0.00    +0.000 C 
BRANCH  14  15
ATOM     15  N   UNL     1      45.159   5.894  10.175  0.00  0.00    +0.000 N 
ATOM     16  H   UNL     1      45.953   6.505  10.010  0.00  0.00    +0.000 HD
BRANCH  15  21
ATOM     17  C   UNL     1      46.124   3.508   7.659  0.00  0.00    +0.000 A 
ATOM     18  C   UNL     1      45.655   2.325   8.209  0.00  0.00    +0.000 A 
ATOM     19  N   UNL     1      44.997   2.287   9.389  0.00  0.00    +0.000 NA
ATOM     20  C   UNL     1      44.851   3.494   9.992  0.00  0.00    +0.000 A 
ATOM     21  C   UNL     1      45.313   4.701   9.451  0.00  0.00    +0.000 A 
ATOM     22  N   UNL     1      45.961   4.705   8.268  0.00  0.00    +0.000 NA
BRANCH  17  24
ATOM     23  C   UNL     1      47.510   2.216   6.297  0.00  0.00    +0.000 C 
ATOM     24  O   UNL     1      46.790   3.436   6.454  0.00  0.00    +0.000 OA
ENDBRANCH  17  24
ENDBRANCH  15  21
ENDBRANCH  14  15
ENDBRANCH   1  14
TORSDOF 5
ENDMDL
MODEL 8
REMARK VINA RESULT:    -7.391      3.481      6.776
REMARK INTER + INTRA:         -10.275
REMARK INTER:                  -9.678
REMARK INTRA:                  -0.597
REMARK UNBOUND:                -0.723
REMARK  Name = 
REMARK  6 active torsions:
REMARK  status: ('A' for Active; 'I' for Inactive)
REMARK    1  A    between atoms: C_1  and  O_2
REMARK    2  A    between atoms: O_2  and  C_3
REMARK    3  A    between atoms: C_7  and  N_8
REMARK    4  A    between atoms: N_8  and  C_9
REMARK    5  A    between atoms: C_9  and  C_10
REMARK    6  A    between atoms: C_14  and  C_15
REMARK                            x       y       z     vdW  Elec       q    Type
REMARK                         _______ _______ _______ _____ _____    ______ ____
ROOT
ATOM      1  C   UNL     1      44.932   4.799  11.684  0.00  0.00    +0.000 A 
ATOM      2  C   UNL     1      45.446   3.978  12.684  0.00  0.00    +0.000 A 
ATOM      3  C   UNL     1      46.539   4.426  13.406  0.00  0.00    +0.000 A 
ATOM      4  N   UNL     1      47.141   5.619  13.201  0.00  0.00    +0.000 NA
ATOM      5  C   UNL     1      46.642   6.424  12.229  0.00  0.00    +0.000 A 
ATOM      6  C   UNL     1      45.536   6.044  11.468  0.00  0.00    +0.000 A 
ENDROOT
BRANCH   5   7
ATOM      7  C   UNL     1      47.323   7.720  12.041  0.00  0.00    +0.000 A 
ATOM      8  C   UNL     1      46.632   8.938  12.208  0.00  0.00    +0.000 A 
ATOM      9  C   UNL     1      47.259  10.173  12.001  0.00  0.00    +0.000 A 
ATOM     10  C   UNL     1      48.598  10.219  11.627  0.00  0.00    +0.000 A 
ATOM     11  C   UNL     1      49.297   9.032  11.478  0.00  0.00    +0.000 A 
ATOM     12  F   UNL     1      50.590   9.063  11.125  0.00  0.00    +0.000 F 
ATOM     13  C   UNL     1      48.681   7.798  11.685  0.00  0.00    +0.000 A 
ENDBRANCH   5   7
BRANCH   1  14
ATOM     14  C   UNL     1      43.725   4.388  10.881  0.00  0.00    +0.000 C 
BRANCH  14  15
ATOM     15  N   UNL     1      43.977   4.681   9.477  0.00  0.00    +0.000 N 
ATOM     16  H   UNL     1      44.392   5.597   9.344  0.00  0.00    +0.000 HD
BRANCH  15  21
ATOM     17  C   UNL     1      46.240   3.064   7.191  0.00  0.00    +0.000 A 
ATOM     18  C   UNL     1      46.278   1.779   7.706  0.00  0.00    +0.000 A 
ATOM     19  N   UNL     1      45.552   1.410   8.786  0.00  0.00    +0.000 NA
ATOM     20  C   UNL     1      44.802   2.403   9.326  0.00  0.00    +0.000 A 
ATOM     21  C   UNL     1      44.745   3.707   8.818  0.00  0.00    +0.000 A 
ATOM     22  N   UNL     1      45.477   4.041   7.735  0.00  0.00    +0.000 NA
BRANCH  17  24
ATOM     23  C   UNL     1      47.948   2.293   5.801  0.00  0.00    +0.000 C 
ATOM     24  O   UNL     1      47.025   3.340   6.091  0.00  0.00    +0.000 OA
ENDBRANCH  17  24
ENDBRANCH  15  21
ENDBRANCH  14  15
ENDBRANCH   1  14
TORSDOF 5
ENDMDL
MODEL 9
REMARK VINA RESULT:    -7.102      3.467      6.772
REMARK INTER + INTRA:          -9.902
REMARK INTER:                  -9.278
REMARK INTRA:                  -0.624
REMARK UNBOUND:                -0.723
REMARK  Name = 
REMARK  6 active torsions:
REMARK  status: ('A' for Active; 'I' for Inactive)
REMARK    1  A    between atoms: C_1  and  O_2
REMARK    2  A    between atoms: O_2  and  C_3
REMARK    3  A    between atoms: C_7  and  N_8
REMARK    4  A    between atoms: N_8  and  C_9
REMARK    5  A    between atoms: C_9  and  C_10
REMARK    6  A    between atoms: C_14  and  C_15
REMARK                            x       y       z     vdW  Elec       q    Type
REMARK                         _______ _______ _______ _____ _____    ______ ____
ROOT
ATOM      1  C   UNL     1      45.043   4.378  12.470  0.00  0.00    +0.000 A 
ATOM      2  C   UNL     1      46.103   3.892  13.230  0.00  0.00    +0.000 A 
ATOM      3  C   UNL     1      47.086   4.779  13.632  0.00  0.00    +0.000 A 
ATOM      4  N   UNL     1      47.081   6.097  13.333  0.00  0.00    +0.000 NA
ATOM      5  C   UNL     1      46.048   6.577  12.594  0.00  0.00    +0.000 A 
ATOM      6  C   UNL     1      45.016   5.744  12.163  0.00  0.00    +0.000 A 
ENDROOT
BRANCH   5   7
ATOM      7  C   UNL     1      46.076   8.022  12.294  0.00  0.00    +0.000 A 
ATOM      8  C   UNL     1      47.273   8.762  12.380  0.00  0.00    +0.000 A 
ATOM      9  C   UNL     1      47.306  10.140  12.129  0.00  0.00    +0.000 A 
ATOM     10  C   UNL     1      46.139  10.810  11.778  0.00  0.00    +0.000 A 
ATOM     11  C   UNL     1      44.957  10.094  11.669  0.00  0.00    +0.000 A 
ATOM     12  F   UNL     1      43.828  10.728  11.324  0.00  0.00    +0.000 F 
ATOM     13  C   UNL     1      44.916   8.722  11.915  0.00  0.00    +0.000 A 
ENDBRANCH   5   7
BRANCH   1  14
ATOM     14  C   UNL     1      43.922   3.474  12.025  0.00  0.00    +0.000 C 
BRANCH  14  15
ATOM     15  N   UNL     1      43.525   3.853  10.677  0.00  0.00    +0.000 N 
ATOM     16  H   UNL     1      43.300   4.840  10.605  0.00  0.00    +0.000 HD
BRANCH  15  21
ATOM     17  C   UNL     1      45.683   1.940   8.523  0.00  0.00    +0.000 A 
ATOM     18  C   UNL     1      46.152   2.921   7.664  0.00  0.00    +0.000 A 
ATOM     19  N   UNL     1      45.796   4.220   7.786  0.00  0.00    +0.000 NA
ATOM     20  C   UNL     1      44.936   4.475   8.803  0.00  0.00    +0.000 A 
ATOM     21  C   UNL     1      44.454   3.499   9.685  0.00  0.00    +0.000 A 
ATOM     22  N   UNL     1      44.833   2.213   9.540  0.00  0.00    +0.000 NA
BRANCH  17  24
ATOM     23  C   UNL     1      47.086   0.549   7.281  0.00  0.00    +0.000 C 
ATOM     24  O   UNL     1      46.101   0.644   8.307  0.00  0.00    +0.000 OA
ENDBRANCH  17  24
ENDBRANCH  15  21
ENDBRANCH  14  15
ENDBRANCH   1  14
TORSDOF 5
ENDMDL
