MODEL 1
REMARK VINA RESULT:    -7.239      0.000      0.000
REMARK INTER + INTRA:         -11.477
REMARK INTER:                 -10.624
REMARK INTRA:                  -0.853
REMARK UNBOUND:                -0.853
REMARK  Name = 
REMARK  12 active torsions:
REMARK  status: ('A' for Active; 'I' for Inactive)
REMARK    1  A    between atoms: C_1  and  C_2
REMARK    2  A    between atoms: C_2  and  C_3
REMARK    3  A    between atoms: C_2  and  C_4
REMARK    4  A    between atoms: C_4  and  N_5
REMARK    5  A    between atoms: C_6  and  C_8
REMARK    6  A    between atoms: C_11  and  N_12
REMARK    7  A    between atoms: N_12  and  C_13
REMARK    8  A    between atoms: C_13  and  C_14
REMARK    9  A    between atoms: C_14  and  C_15
REMARK   10  A    between atoms: C_14  and  C_16
REMARK   11  A    between atoms: C_14  and  C_17
REMARK   12  A    between atoms: C_22  and  C_23
REMARK                            x       y       z     vdW  Elec       q    Type
REMARK                         _______ _______ _______ _____ _____    ______ ____
ROOT
ATOM      1  N   UNL     1      47.150   5.389  15.123  0.00  0.00    +0.000 N 
ATOM      2  H   UNL     1      46.602   6.140  15.538  0.00  0.00    +0.000 HD
ENDROOT
BRANCH   1   6
ATOM      3  C   UNL     1      45.103   4.173  11.766  0.00  0.00    +0.000 A 
ATOM      4  C   UNL     1      45.691   3.242  12.610  0.00  0.00    +0.000 A 
ATOM      5  N   UNL     1      46.382   3.597  13.730  0.00  0.00    +0.000 NA
ATOM      6  C   UNL     1      46.450   4.919  13.998  0.00  0.00    +0.000 A 
ATOM      7  C   UNL     1      45.794   5.839  13.168  0.00  0.00    +0.000 A 
ATOM      8  N   UNL     1      45.127   5.507  12.030  0.00  0.00    +0.000 NA
BRANCH   3  10
ATOM      9  N   UNL     1      45.192   4.042   9.350  0.00  0.00    +0.000 N 
ATOM     10  C   UNL     1      44.477   3.729  10.488  0.00  0.00    +0.000 C 
ATOM     11  O   UNL     1      43.419   3.110  10.486  0.00  0.00    +0.000 OA
ATOM     12  H   UNL     1      46.048   4.576   9.479  0.00  0.00    +0.000 HD
BRANCH   9  13
ATOM     13  C   UNL     1      44.754   3.682   8.017  0.00  0.00    +0.000 C 
BRANCH  13  15
ATOM     14  C   UNL     1      47.019   3.695   6.875  0.00  0.00    +0.000 C 
ATOM     15  C   UNL     1      45.796   2.854   7.251  0.00  0.00    +0.000 C 
ATOM     16  C   UNL     1      46.235   1.651   8.089  0.00  0.00    +0.000 C 
ENDBRANCH  13  15
ENDBRANCH   9  13
ENDBRANCH   3  10
ENDBRANCH   1   6
BRANCH   1  17
ATOM     17  C   UNL     1      47.524   4.340  16.080  0.00  0.00    +0.000 C 
BRANCH  17  18
ATOM     18  C   UNL     1      48.553   4.830  17.162  0.00  0.00    +0.000 C 
ATOM     19  C   UNL     1      49.158   6.180  16.709  0.00  0.00    +0.000 C 
ATOM     20  C   UNL     1      47.801   5.032  18.499  0.00  0.00    +0.000 C 
BRANCH  18  21
ATOM     21  C   UNL     1      49.705   3.815  17.398  0.00  0.00    +0.000 A 
ATOM     22  C   UNL     1      49.660   2.495  16.943  0.00  0.00    +0.000 A 
ATOM     23  C   UNL     1      50.713   1.611  17.200  0.00  0.00    +0.000 A 
ATOM     24  N   UNL     1      51.845   1.984  17.911  0.00  0.00    +0.000 N 
ATOM     25  O   UNL     1      52.750   1.101  18.105  0.00  0.00    +0.000 OA
ATOM     26  C   UNL     1      51.917   3.291  18.368  0.00  0.00    +0.000 A 
ATOM     27  C   UNL     1      50.862   4.196  18.109  0.00  0.00    +0.000 A 
BRANCH  26  28
ATOM     28  C   UNL     1      53.102   3.747  19.133  0.00  0.00    +0.000 C 
ATOM     29  N   UNL     1      53.548   2.972  20.161  0.00  0.00    +0.000 N 
ATOM     30  O   UNL     1      53.660   4.797  18.846  0.00  0.00    +0.000 OA
ATOM     31  H   UNL     1      53.060   2.097  20.382  0.00  0.00    +0.000 HD
ATOM     32  H   UNL     1      54.351   3.249  20.706  0.00  0.00    +0.000 HD
ENDBRANCH  26  28
ENDBRANCH  18  21
ENDBRANCH  17  18
ENDBRANCH   1  17
TORSDOF 8
ENDMDL
MODEL 2
REMARK VINA RESULT:    -7.210      2.520      3.447
REMARK INTER + INTRA:         -11.435
REMARK INTER:                 -10.302
REMARK INTRA:                  -1.133
REMARK UNBOUND:                -0.853
REMARK  Name = 
REMARK  12 active torsions:
REMARK  status: ('A' for Active; 'I' for Inactive)
REMARK    1  A    between atoms: C_1  and  C_2
REMARK    2  A    between atoms: C_2  and  C_3
REMARK    3  A    between atoms: C_2  and  C_4
REMARK    4  A    between atoms: C_4  and  N_5
REMARK    5  A    between atoms: C_6  and  C_8
REMARK    6  A    between atoms: C_11  and  N_12
REMARK    7  A    between atoms: N_12  and  C_13
REMARK    8  A    between atoms: C_13  and  C_14
REMARK    9  A    between atoms: C_14  and  C_15
REMARK   10  A    between atoms: C_14  and  C_16
REMARK   11  A    between atoms: C_14  and  C_17
REMARK   12  A    between atoms: C_22  and  C_23
REMARK                            x       y       z     vdW  Elec       q    Type
REMARK                         _______ _______ _______ _____ _____    ______ ____
ROOT
ATOM      1  N   UNL     1      47.157   7.756  13.999  0.00  0.00    +0.000 N 
ATOM      2  H   UNL     1      46.610   7.843  14.853  0.00  0.00    +0.000 HD
ENDROOT
BRANCH   1   6
ATOM      3  C   UNL     1      45.168   5.318  11.346  0.00  0.00    +0.000 A 
ATOM      4  C   UNL     1      45.633   4.816  12.554  0.00  0.00    +0.000 A 
ATOM      5  N   UNL     1      46.300   5.584  13.461  0.00  0.00    +0.000 NA
ATOM      6  C   UNL     1      46.471   6.884  13.136  0.00  0.00    +0.000 A 
ATOM      7  C   UNL     1      45.936   7.385  11.941  0.00  0.00    +0.000 A 
ATOM      8  N   UNL     1      45.296   6.630  11.009  0.00  0.00    +0.000 NA
BRANCH   3  10
ATOM      9  N   UNL     1      45.064   4.527   9.060  0.00  0.00    +0.000 N 
ATOM     10  C   UNL     1      44.565   4.398  10.341  0.00  0.00    +0.000 C 
ATOM     11  O   UNL     1      43.710   3.581  10.666  0.00  0.00    +0.000 OA
ATOM     12  H   UNL     1      45.757   5.255   8.911  0.00  0.00    +0.000 HD
BRANCH   9  13
ATOM     13  C   UNL     1      44.614   3.713   7.950  0.00  0.00    +0.000 C 
BRANCH  13  15
ATOM     14  C   UNL     1      46.997   3.688   7.083  0.00  0.00    +0.000 C 
ATOM     15  C   UNL     1      45.737   2.858   7.345  0.00  0.00    +0.000 C 
ATOM     16  C   UNL     1      46.072   1.690   8.275  0.00  0.00    +0.000 C 
ENDBRANCH  13  15
ENDBRANCH   9  13
ENDBRANCH   3  10
ENDBRANCH   1   6
BRANCH   1  17
ATOM     17  C   UNL     1      48.559   7.388  14.237  0.00  0.00    +0.000 C 
BRANCH  17  18
ATOM     18  C   UNL     1      49.103   7.893  15.622  0.00  0.00    +0.000 C 
ATOM     19  C   UNL     1      50.594   8.275  15.470  0.00  0.00    +0.000 C 
ATOM     20  C   UNL     1      48.297   9.146  16.039  0.00  0.00    +0.000 C 
BRANCH  18  21
ATOM     21  C   UNL     1      48.965   6.829  16.745  0.00  0.00    +0.000 A 
ATOM     22  C   UNL     1      49.262   7.094  18.084  0.00  0.00    +0.000 A 
ATOM     23  C   UNL     1      49.144   6.096  19.057  0.00  0.00    +0.000 A 
ATOM     24  N   UNL     1      48.732   4.805  18.757  0.00  0.00    +0.000 N 
ATOM     25  O   UNL     1      48.666   3.959  19.713  0.00  0.00    +0.000 OA
ATOM     26  C   UNL     1      48.424   4.518  17.436  0.00  0.00    +0.000 A 
ATOM     27  C   UNL     1      48.534   5.520  16.444  0.00  0.00    +0.000 A 
BRANCH  26  28
ATOM     28  C   UNL     1      47.979   3.156  17.055  0.00  0.00    +0.000 C 
ATOM     29  N   UNL     1      46.874   2.641  17.665  0.00  0.00    +0.000 N 
ATOM     30  O   UNL     1      48.594   2.513  16.216  0.00  0.00    +0.000 OA
ATOM     31  H   UNL     1      46.378   3.200  18.366  0.00  0.00    +0.000 HD
ATOM     32  H   UNL     1      46.541   1.717  17.432  0.00  0.00    +0.000 HD
ENDBRANCH  26  28
ENDBRANCH  18  21
ENDBRANCH  17  18
ENDBRANCH   1  17
TORSDOF 8
ENDMDL
MODEL 3
REMARK VINA RESULT:    -6.807      1.320      2.206
REMARK INTER + INTRA:         -10.843
REMARK INTER:                  -9.927
REMARK INTRA:                  -0.916
REMARK UNBOUND:                -0.853
REMARK  Name = 
REMARK  12 active torsions:
REMARK  status: ('A' for Active; 'I' for Inactive)
REMARK    1  A    between atoms: C_1  and  C_2
REMARK    2  A    between atoms: C_2  and  C_3
REMARK    3  A    between atoms: C_2  and  C_4
REMARK    4  A    between atoms: C_4  and  N_5
REMARK    5  A    between atoms: C_6  and  C_8
REMARK    6  A    between atoms: C_11  and  N_12
REMARK    7  A    between atoms: N_12  and  C_13
REMARK    8  A    between atoms: C_13  and  C_14
REMARK    9  A    between atoms: C_14  and  C_15
REMARK   10  A    between atoms: C_14  and  C_16
REMARK   11  A    between atoms: C_14  and  C_17
REMARK   12  A    between atoms: C_22  and  C_23
REMARK                            x       y       z     vdW  Elec       q    Type
REMARK                         _______ _______ _______ _____ _____    ______ ____
ROOT
ATOM      1  N   UNL     1      47.894   5.866  15.440  0.00  0.00    +0.000 N 
ATOM      2  H   UNL     1      47.596   6.826  15.602  0.00  0.00    +0.000 HD
ENDROOT
BRANCH   1   6
ATOM      3  C   UNL     1      45.584   4.176  12.483  0.00  0.00    +0.000 A 
ATOM      4  C   UNL     1      45.700   5.555  12.586  0.00  0.00    +0.000 A 
ATOM      5  N   UNL     1      46.449   6.160  13.550  0.00  0.00    +0.000 NA
ATOM      6  C   UNL     1      47.104   5.341  14.402  0.00  0.00    +0.000 A 
ATOM      7  C   UNL     1      47.025   3.951  14.240  0.00  0.00    +0.000 A 
ATOM      8  N   UNL     1      46.259   3.328  13.305  0.00  0.00    +0.000 NA
BRANCH   3  10
ATOM      9  N   UNL     1      45.238   2.785  10.532  0.00  0.00    +0.000 N 
ATOM     10  C   UNL     1      44.644   3.580  11.491  0.00  0.00    +0.000 C 
ATOM     11  O   UNL     1      43.437   3.780  11.565  0.00  0.00    +0.000 OA
ATOM     12  H   UNL     1      46.252   2.711  10.562  0.00  0.00    +0.000 HD
BRANCH   9  13
ATOM     13  C   UNL     1      44.491   2.108   9.492  0.00  0.00    +0.000 C 
BRANCH  13  15
ATOM     14  C   UNL     1      45.561   3.682   7.815  0.00  0.00    +0.000 C 
ATOM     15  C   UNL     1      45.145   2.238   8.108  0.00  0.00    +0.000 C 
ATOM     16  C   UNL     1      46.365   1.320   8.011  0.00  0.00    +0.000 C 
ENDBRANCH  13  15
ENDBRANCH   9  13
ENDBRANCH   3  10
ENDBRANCH   1   6
BRANCH   1  17
ATOM     17  C   UNL     1      47.913   5.044  16.657  0.00  0.00    +0.000 C 
BRANCH  17  18
ATOM     18  C   UNL     1      48.808   5.650  17.797  0.00  0.00    +0.000 C 
ATOM     19  C   UNL     1      48.907   7.182  17.602  0.00  0.00    +0.000 C 
ATOM     20  C   UNL     1      48.136   5.354  19.159  0.00  0.00    +0.000 C 
BRANCH  18  21
ATOM     21  C   UNL     1      50.240   5.050  17.819  0.00  0.00    +0.000 A 
ATOM     22  C   UNL     1      51.392   5.834  17.908  0.00  0.00    +0.000 A 
ATOM     23  C   UNL     1      52.662   5.249  17.902  0.00  0.00    +0.000 A 
ATOM     24  N   UNL     1      52.851   3.877  17.808  0.00  0.00    +0.000 N 
ATOM     25  O   UNL     1      54.052   3.437  17.799  0.00  0.00    +0.000 OA
ATOM     26  C   UNL     1      51.724   3.076  17.726  0.00  0.00    +0.000 A 
ATOM     27  C   UNL     1      50.434   3.655  17.737  0.00  0.00    +0.000 A 
BRANCH  26  28
ATOM     28  C   UNL     1      51.864   1.603  17.624  0.00  0.00    +0.000 C 
ATOM     29  N   UNL     1      52.754   0.978  18.446  0.00  0.00    +0.000 N 
ATOM     30  O   UNL     1      51.198   0.970  16.817  0.00  0.00    +0.000 OA
ATOM     31  H   UNL     1      53.302   1.532  19.112  0.00  0.00    +0.000 HD
ATOM     32  H   UNL     1      52.878  -0.023  18.405  0.00  0.00    +0.000 HD
ENDBRANCH  26  28
ENDBRANCH  18  21
ENDBRANCH  17  18
ENDBRANCH   1  17
TORSDOF 8
ENDMDL
MODEL 4
REMARK VINA RESULT:    -6.755      5.130      8.861
REMARK INTER + INTRA:         -10.767
REMARK INTER:                  -9.587
REMARK INTRA:                  -1.180
REMARK UNBOUND:                -0.853
REMARK  Name = 
REMARK  12 active torsions:
REMARK  status: ('A' for Active; 'I' for Inactive)
REMARK    1  A    between atoms: C_1  and  C_2
REMARK    2  A    between atoms: C_2  and  C_3
REMARK    3  A    between atoms: C_2  and  C_4
REMARK    4  A    between atoms: C_4  and  N_5
REMARK    5  A    between atoms: C_6  and  C_8
REMARK    6  A    between atoms: C_11  and  N_12
REMARK    7  A    between atoms: N_12  and  C_13
REMARK    8  A    between atoms: C_13  and  C_14
REMARK    9  A    between atoms: C_14  and  C_15
REMARK   10  A    between atoms: C_14  and  C_16
REMARK   11  A    between atoms: C_14  and  C_17
REMARK   12  A    between atoms: C_22  and  C_23
REMARK                            x       y       z     vdW  Elec       q    Type
REMARK                         _______ _______ _______ _____ _____    ______ ____
ROOT
ATOM      1  N   UNL     1      45.081   4.875  13.349  0.00  0.00    +0.000 N 
ATOM      2  H   UNL     1      44.239   5.407  13.139  0.00  0.00    +0.000 HD
ENDROOT
BRANCH   1   6
ATOM      3  C   UNL     1      48.213   7.313  12.258  0.00  0.00    +0.000 A 
ATOM      4  C   UNL     1      48.440   6.158  12.993  0.00  0.00    +0.000 A 
ATOM      5  N   UNL     1      47.435   5.323  13.380  0.00  0.00    +0.000 NA
ATOM      6  C   UNL     1      46.188   5.664  12.990  0.00  0.00    +0.000 A 
ATOM      7  C   UNL     1      45.988   6.800  12.192  0.00  0.00    +0.000 A 
ATOM      8  N   UNL     1      46.972   7.662  11.822  0.00  0.00    +0.000 NA
BRANCH   3  10
ATOM      9  N   UNL     1      50.597   7.726  12.181  0.00  0.00    +0.000 N 
ATOM     10  C   UNL     1      49.336   8.252  11.980  0.00  0.00    +0.000 C 
ATOM     11  O   UNL     1      49.123   9.391  11.579  0.00  0.00    +0.000 OA
ATOM     12  H   UNL     1      50.645   6.775  12.535  0.00  0.00    +0.000 HD
BRANCH   9  13
ATOM     13  C   UNL     1      51.813   8.478  11.951  0.00  0.00    +0.000 C 
BRANCH  13  15
ATOM     14  C   UNL     1      52.136   7.197   9.787  0.00  0.00    +0.000 C 
ATOM     15  C   UNL     1      52.812   7.736  11.050  0.00  0.00    +0.000 C 
ATOM     16  C   UNL     1      53.965   8.664  10.663  0.00  0.00    +0.000 C 
ENDBRANCH  13  15
ENDBRANCH   9  13
ENDBRANCH   3  10
ENDBRANCH   1   6
BRANCH   1  17
ATOM     17  C   UNL     1      45.086   3.530  12.759  0.00  0.00    +0.000 C 
BRANCH  17  18
ATOM     18  C   UNL     1      44.103   3.386  11.542  0.00  0.00    +0.000 C 
ATOM     19  C   UNL     1      43.389   2.017  11.628  0.00  0.00    +0.000 C 
ATOM     20  C   UNL     1      43.050   4.516  11.625  0.00  0.00    +0.000 C 
BRANCH  18  21
ATOM     21  C   UNL     1      44.826   3.494  10.171  0.00  0.00    +0.000 A 
ATOM     22  C   UNL     1      44.876   4.676   9.428  0.00  0.00    +0.000 A 
ATOM     23  C   UNL     1      45.520   4.718   8.188  0.00  0.00    +0.000 A 
ATOM     24  N   UNL     1      46.138   3.608   7.629  0.00  0.00    +0.000 N 
ATOM     25  O   UNL     1      46.691   3.742   6.484  0.00  0.00    +0.000 OA
ATOM     26  C   UNL     1      46.109   2.424   8.350  0.00  0.00    +0.000 A 
ATOM     27  C   UNL     1      45.466   2.370   9.607  0.00  0.00    +0.000 A 
BRANCH  26  28
ATOM     28  C   UNL     1      46.753   1.205   7.803  0.00  0.00    +0.000 C 
ATOM     29  N   UNL     1      47.902   1.345   7.085  0.00  0.00    +0.000 N 
ATOM     30  O   UNL     1      46.257   0.103   7.992  0.00  0.00    +0.000 OA
ATOM     31  H   UNL     1      48.296   2.280   6.939  0.00  0.00    +0.000 HD
ATOM     32  H   UNL     1      48.369   0.539   6.697  0.00  0.00    +0.000 HD
ENDBRANCH  26  28
ENDBRANCH  18  21
ENDBRANCH  17  18
ENDBRANCH   1  17
TORSDOF 8
ENDMDL
MODEL 5
REMARK VINA RESULT:    -6.517      3.112      9.934
REMARK INTER + INTRA:         -10.417
REMARK INTER:                  -9.974
REMARK INTRA:                  -0.443
REMARK UNBOUND:                -0.853
REMARK  Name = 
REMARK  12 active torsions:
REMARK  status: ('A' for Active; 'I' for Inactive)
REMARK    1  A    between atoms: C_1  and  C_2
REMARK    2  A    between atoms: C_2  and  C_3
REMARK    3  A    between atoms: C_2  and  C_4
REMARK    4  A    between atoms: C_4  and  N_5
REMARK    5  A    between atoms: C_6  and  C_8
REMARK    6  A    between atoms: C_11  and  N_12
REMARK    7  A    between atoms: N_12  and  C_13
REMARK    8  A    between atoms: C_13  and  C_14
REMARK    9  A    between atoms: C_14  and  C_15
REMARK   10  A    between atoms: C_14  and  C_16
REMARK   11  A    between atoms: C_14  and  C_17
REMARK   12  A    between atoms: C_22  and  C_23
REMARK                            x       y       z     vdW  Elec       q    Type
REMARK                         _______ _______ _______ _____ _____    ______ ____
ROOT
ATOM      1  N   UNL     1      46.086   4.454  12.384  0.00  0.00    +0.000 N 
ATOM      2  H   UNL     1      46.785   4.471  11.645  0.00  0.00    +0.000 HD
ENDROOT
BRANCH   1   6
ATOM      3  C   UNL     1      48.030   5.248  15.924  0.00  0.00    +0.000 A 
ATOM      4  C   UNL     1      47.396   4.030  15.725  0.00  0.00    +0.000 A 
ATOM      5  N   UNL     1      46.736   3.723  14.572  0.00  0.00    +0.000 NA
ATOM      6  C   UNL     1      46.747   4.668  13.606  0.00  0.00    +0.000 A 
ATOM      7  C   UNL     1      47.450   5.865  13.803  0.00  0.00    +0.000 A 
ATOM      8  N   UNL     1      48.087   6.202  14.956  0.00  0.00    +0.000 NA
BRANCH   3  10
ATOM      9  N   UNL     1      48.282   6.815  17.752  0.00  0.00    +0.000 N 
ATOM     10  C   UNL     1      48.619   5.572  17.254  0.00  0.00    +0.000 C 
ATOM     11  O   UNL     1      49.323   4.763  17.847  0.00  0.00    +0.000 OA
ATOM     12  H   UNL     1      47.706   7.406  17.159  0.00  0.00    +0.000 HD
BRANCH   9  13
ATOM     13  C   UNL     1      48.744   7.305  19.035  0.00  0.00    +0.000 C 
BRANCH  13  15
ATOM     14  C   UNL     1      47.478   6.026  20.822  0.00  0.00    +0.000 C 
ATOM     15  C   UNL     1      47.627   7.361  20.088  0.00  0.00    +0.000 C 
ATOM     16  C   UNL     1      47.909   8.477  21.097  0.00  0.00    +0.000 C 
ENDBRANCH  13  15
ENDBRANCH   9  13
ENDBRANCH   3  10
ENDBRANCH   1   6
BRANCH   1  17
ATOM     17  C   UNL     1      45.239   3.254  12.361  0.00  0.00    +0.000 C 
BRANCH  17  18
ATOM     18  C   UNL     1      44.245   3.224  11.145  0.00  0.00    +0.000 C 
ATOM     19  C   UNL     1      43.414   1.920  11.204  0.00  0.00    +0.000 C 
ATOM     20  C   UNL     1      43.294   4.439  11.258  0.00  0.00    +0.000 C 
BRANCH  18  21
ATOM     21  C   UNL     1      44.971   3.298   9.774  0.00  0.00    +0.000 A 
ATOM     22  C   UNL     1      44.979   4.447   8.980  0.00  0.00    +0.000 A 
ATOM     23  C   UNL     1      45.628   4.460   7.741  0.00  0.00    +0.000 A 
ATOM     24  N   UNL     1      46.293   3.351   7.235  0.00  0.00    +0.000 N 
ATOM     25  O   UNL     1      46.847   3.456   6.088  0.00  0.00    +0.000 OA
ATOM     26  C   UNL     1      46.306   2.200   8.007  0.00  0.00    +0.000 A 
ATOM     27  C   UNL     1      45.658   2.177   9.264  0.00  0.00    +0.000 A 
BRANCH  26  28
ATOM     28  C   UNL     1      47.000   0.984   7.519  0.00  0.00    +0.000 C 
ATOM     29  N   UNL     1      46.469  -0.232   7.824  0.00  0.00    +0.000 N 
ATOM     30  O   UNL     1      48.028   1.078   6.861  0.00  0.00    +0.000 OA
ATOM     31  H   UNL     1      45.608  -0.283   8.379  0.00  0.00    +0.000 HD
ATOM     32  H   UNL     1      46.913  -1.082   7.510  0.00  0.00    +0.000 HD
ENDBRANCH  26  28
ENDBRANCH  18  21
ENDBRANCH  17  18
ENDBRANCH   1  17
TORSDOF 8
ENDMDL
MODEL 6
REMARK VINA RESULT:    -6.487      2.093      9.516
REMARK INTER + INTRA:         -10.374
REMARK INTER:                  -9.498
REMARK INTRA:                  -0.876
REMARK UNBOUND:                -0.853
REMARK  Name = 
REMARK  12 active torsions:
REMARK  status: ('A' for Active; 'I' for Inactive)
REMARK    1  A    between atoms: C_1  and  C_2
REMARK    2  A    between atoms: C_2  and  C_3
REMARK    3  A    between atoms: C_2  and  C_4
REMARK    4  A    between atoms: C_4  and  N_5
REMARK    5  A    between atoms: C_6  and  C_8
REMARK    6  A    between atoms: C_11  and  N_12
REMARK    7  A    between atoms: N_12  and  C_13
REMARK    8  A    between atoms: C_13  and  C_14
REMARK    9  A    between atoms: C_14  and  C_15
REMARK   10  A    between atoms: C_14  and  C_16
REMARK   11  A    between atoms: C_14  and  C_17
REMARK   12  A    between atoms: C_22  and  C_23
REMARK                            x       y       z     vdW  Elec       q    Type
REMARK                         _______ _______ _______ _____ _____    ______ ____
ROOT
ATOM      1  N   UNL     1      47.680   6.763  14.752  0.00  0.00    +0.000 N 
ATOM      2  H   UNL     1      47.729   7.779  14.780  0.00  0.00    +0.000 HD
ENDROOT
BRANCH   1   6
ATOM      3  C   UNL     1      50.319   5.176  17.483  0.00  0.00    +0.000 A 
ATOM      4  C   UNL     1      50.756   6.075  16.520  0.00  0.00    +0.000 A 
ATOM      5  N   UNL     1      49.920   6.623  15.593  0.00  0.00    +0.000 NA
ATOM      6  C   UNL     1      48.621   6.262  15.670  0.00  0.00    +0.000 A 
ATOM      7  C   UNL     1      48.189   5.404  16.691  0.00  0.00    +0.000 A 
ATOM      8  N   UNL     1      49.011   4.823  17.605  0.00  0.00    +0.000 NA
BRANCH   3  10
ATOM      9  N   UNL     1      52.268   3.761  17.737  0.00  0.00    +0.000 N 
ATOM     10  C   UNL     1      51.305   4.512  18.382  0.00  0.00    +0.000 C 
ATOM     11  O   UNL     1      51.253   4.663  19.597  0.00  0.00    +0.000 OA
ATOM     12  H   UNL     1      52.195   3.695  16.725  0.00  0.00    +0.000 HD
BRANCH   9  13
ATOM     13  C   UNL     1      53.319   3.053  18.437  0.00  0.00    +0.000 C 
BRANCH  13  15
ATOM     14  C   UNL     1      51.977   1.124  17.484  0.00  0.00    +0.000 C 
ATOM     15  C   UNL     1      53.237   1.530  18.253  0.00  0.00    +0.000 C 
ATOM     16  C   UNL     1      54.478   1.019  17.518  0.00  0.00    +0.000 C 
ENDBRANCH  13  15
ENDBRANCH   9  13
ENDBRANCH   3  10
ENDBRANCH   1   6
BRANCH   1  17
ATOM     17  C   UNL     1      47.807   6.208  13.398  0.00  0.00    +0.000 C 
BRANCH  17  18
ATOM     18  C   UNL     1      46.627   6.623  12.448  0.00  0.00    +0.000 C 
ATOM     19  C   UNL     1      45.893   7.841  13.058  0.00  0.00    +0.000 C 
ATOM     20  C   UNL     1      47.219   7.021  11.075  0.00  0.00    +0.000 C 
BRANCH  18  21
ATOM     21  C   UNL     1      45.603   5.476  12.225  0.00  0.00    +0.000 A 
ATOM     22  C   UNL     1      44.753   5.010  13.229  0.00  0.00    +0.000 A 
ATOM     23  C   UNL     1      43.862   3.959  12.986  0.00  0.00    +0.000 A 
ATOM     24  N   UNL     1      43.773   3.327  11.754  0.00  0.00    +0.000 N 
ATOM     25  O   UNL     1      42.936   2.367  11.632  0.00  0.00    +0.000 OA
ATOM     26  C   UNL     1      44.601   3.775  10.738  0.00  0.00    +0.000 A 
ATOM     27  C   UNL     1      45.501   4.841  10.970  0.00  0.00    +0.000 A 
BRANCH  26  28
ATOM     28  C   UNL     1      44.550   3.138   9.400  0.00  0.00    +0.000 C 
ATOM     29  N   UNL     1      44.691   1.785   9.321  0.00  0.00    +0.000 N 
ATOM     30  O   UNL     1      44.389   3.816   8.394  0.00  0.00    +0.000 OA
ATOM     31  H   UNL     1      44.827   1.240  10.178  0.00  0.00    +0.000 HD
ATOM     32  H   UNL     1      44.662   1.315   8.428  0.00  0.00    +0.000 HD
ENDBRANCH  26  28
ENDBRANCH  18  21
ENDBRANCH  17  18
ENDBRANCH   1  17
TORSDOF 8
ENDMDL
MODEL 7
REMARK VINA RESULT:    -6.473      2.662      9.735
REMARK INTER + INTRA:         -10.352
REMARK INTER:                  -9.636
REMARK INTRA:                  -0.716
REMARK UNBOUND:                -0.853
REMARK  Name = 
REMARK  12 active torsions:
REMARK  status: ('A' for Active; 'I' for Inactive)
REMARK    1  A    between atoms: C_1  and  C_2
REMARK    2  A    between atoms: C_2  and  C_3
REMARK    3  A    between atoms: C_2  and  C_4
REMARK    4  A    between atoms: C_4  and  N_5
REMARK    5  A    between atoms: C_6  and  C_8
REMARK    6  A    between atoms: C_11  and  N_12
REMARK    7  A    between atoms: N_12  and  C_13
REMARK    8  A    between atoms: C_13  and  C_14
REMARK    9  A    between atoms: C_14  and  C_15
REMARK   10  A    between atoms: C_14  and  C_16
REMARK   11  A    between atoms: C_14  and  C_17
REMARK   12  A    between atoms: C_22  and  C_23
REMARK                            x       y       z     vdW  Elec       q    Type
REMARK                         _______ _______ _______ _____ _____    ______ ____
ROOT
ATOM      1  N   UNL     1      46.009   4.654  12.556  0.00  0.00    +0.000 N 
ATOM      2  H   UNL     1      46.668   4.560  11.786  0.00  0.00    +0.000 HD
ENDROOT
BRANCH   1   6
ATOM      3  C   UNL     1      48.217   5.369  15.954  0.00  0.00    +0.000 A 
ATOM      4  C   UNL     1      47.345   4.291  15.894  0.00  0.00    +0.000 A 
ATOM      5  N   UNL     1      46.590   4.017  14.792  0.00  0.00    +0.000 NA
ATOM      6  C   UNL     1      46.750   4.844  13.736  0.00  0.00    +0.000 A 
ATOM      7  C   UNL     1      47.684   5.887  13.795  0.00  0.00    +0.000 A 
ATOM      8  N   UNL     1      48.423   6.196  14.894  0.00  0.00    +0.000 NA
BRANCH   3  10
ATOM      9  N   UNL     1      49.878   4.781  17.615  0.00  0.00    +0.000 N 
ATOM     10  C   UNL     1      48.913   5.691  17.232  0.00  0.00    +0.000 C 
ATOM     11  O   UNL     1      48.645   6.711  17.857  0.00  0.00    +0.000 OA
ATOM     12  H   UNL     1      49.996   3.963  17.024  0.00  0.00    +0.000 HD
BRANCH   9  13
ATOM     13  C   UNL     1      50.671   4.928  18.818  0.00  0.00    +0.000 C 
BRANCH  13  15
ATOM     14  C   UNL     1      52.423   6.465  17.819  0.00  0.00    +0.000 C 
ATOM     15  C   UNL     1      52.165   5.132  18.526  0.00  0.00    +0.000 C 
ATOM     16  C   UNL     1      52.971   5.072  19.825  0.00  0.00    +0.000 C 
ENDBRANCH  13  15
ENDBRANCH   9  13
ENDBRANCH   3  10
ENDBRANCH   1   6
BRANCH   1  17
ATOM     17  C   UNL     1      45.034   3.557  12.628  0.00  0.00    +0.000 C 
BRANCH  17  18
ATOM     18  C   UNL     1      44.090   3.488  11.374  0.00  0.00    +0.000 C 
ATOM     19  C   UNL     1      43.275   2.174  11.428  0.00  0.00    +0.000 C 
ATOM     20  C   UNL     1      43.118   4.691  11.423  0.00  0.00    +0.000 C 
BRANCH  18  21
ATOM     21  C   UNL     1      44.869   3.544  10.032  0.00  0.00    +0.000 A 
ATOM     22  C   UNL     1      45.003   4.713   9.280  0.00  0.00    +0.000 A 
ATOM     23  C   UNL     1      45.696   4.710   8.065  0.00  0.00    +0.000 A 
ATOM     24  N   UNL     1      46.282   3.565   7.542  0.00  0.00    +0.000 N 
ATOM     25  O   UNL     1      46.885   3.660   6.418  0.00  0.00    +0.000 OA
ATOM     26  C   UNL     1      46.170   2.393   8.273  0.00  0.00    +0.000 A 
ATOM     27  C   UNL     1      45.477   2.385   9.506  0.00  0.00    +0.000 A 
BRANCH  26  28
ATOM     28  C   UNL     1      46.776   1.139   7.765  0.00  0.00    +0.000 C 
ATOM     29  N   UNL     1      47.874   1.228   6.964  0.00  0.00    +0.000 N 
ATOM     30  O   UNL     1      46.295   0.053   8.059  0.00  0.00    +0.000 OA
ATOM     31  H   UNL     1      48.256   2.150   6.731  0.00  0.00    +0.000 HD
ATOM     32  H   UNL     1      48.314   0.397   6.598  0.00  0.00    +0.000 HD
ENDBRANCH  26  28
ENDBRANCH  18  21
ENDBRANCH  17  18
ENDBRANCH   1  17
TORSDOF 8
ENDMDL
MODEL 8
REMARK VINA RESULT:    -6.364      2.594      3.925
REMARK INTER + INTRA:         -10.193
REMARK INTER:                  -8.946
REMARK INTRA:                  -1.247
REMARK UNBOUND:                -0.853
REMARK  Name = 
REMARK  12 active torsions:
REMARK  status: ('A' for Active; 'I' for Inactive)
REMARK    1  A    between atoms: C_1  and  C_2
REMARK    2  A    between atoms: C_2  and  C_3
REMARK    3  A    between atoms: C_2  and  C_4
REMARK    4  A    between atoms: C_4  and  N_5
REMARK    5  A    between atoms: C_6  and  C_8
REMARK    6  A    between atoms: C_11  and  N_12
REMARK    7  A    between atoms: N_12  and  C_13
REMARK    8  A    between atoms: C_13  and  C_14
REMARK    9  A    between atoms: C_14  and  C_15
REMARK   10  A    between atoms: C_14  and  C_16
REMARK   11  A    between atoms: C_14  and  C_17
REMARK   12  A    between atoms: C_22  and  C_23
REMARK                            x       y       z     vdW  Elec       q    Type
REMARK                         _______ _______ _______ _____ _____    ______ ____
ROOT
ATOM      1  N   UNL     1      48.832   8.510  14.921  0.00  0.00    +0.000 N 
ATOM      2  H   UNL     1      49.258   9.295  14.434  0.00  0.00    +0.000 HD
ENDROOT
BRANCH   1   6
ATOM      3  C   UNL     1      46.113   6.672  12.438  0.00  0.00    +0.000 A 
ATOM      4  C   UNL     1      45.939   7.995  12.818  0.00  0.00    +0.000 A 
ATOM      5  N   UNL     1      46.810   8.644  13.642  0.00  0.00    +0.000 NA
ATOM      6  C   UNL     1      47.881   7.935  14.060  0.00  0.00    +0.000 A 
ATOM      7  C   UNL     1      48.072   6.621  13.610  0.00  0.00    +0.000 A 
ATOM      8  N   UNL     1      47.200   5.946  12.815  0.00  0.00    +0.000 NA
BRANCH   3  10
ATOM      9  N   UNL     1      45.341   4.669  11.317  0.00  0.00    +0.000 N 
ATOM     10  C   UNL     1      45.058   5.981  11.644  0.00  0.00    +0.000 C 
ATOM     11  O   UNL     1      44.017   6.554  11.344  0.00  0.00    +0.000 OA
ATOM     12  H   UNL     1      46.247   4.311  11.605  0.00  0.00    +0.000 HD
BRANCH   9  13
ATOM     13  C   UNL     1      44.433   3.829  10.563  0.00  0.00    +0.000 C 
BRANCH  13  15
ATOM     14  C   UNL     1      44.562   1.720   9.160  0.00  0.00    +0.000 C 
ATOM     15  C   UNL     1      45.115   3.131   9.376  0.00  0.00    +0.000 C 
ATOM     16  C   UNL     1      44.933   3.958   8.102  0.00  0.00    +0.000 C 
ENDBRANCH  13  15
ENDBRANCH   9  13
ENDBRANCH   3  10
ENDBRANCH   1   6
BRANCH   1  17
ATOM     17  C   UNL     1      48.307   8.859  16.248  0.00  0.00    +0.000 C 
BRANCH  17  18
ATOM     18  C   UNL     1      49.205   8.332  17.425  0.00  0.00    +0.000 C 
ATOM     19  C   UNL     1      50.571   9.057  17.381  0.00  0.00    +0.000 C 
ATOM     20  C   UNL     1      48.501   8.656  18.764  0.00  0.00    +0.000 C 
BRANCH  18  21
ATOM     21  C   UNL     1      49.445   6.799  17.358  0.00  0.00    +0.000 A 
ATOM     22  C   UNL     1      50.705   6.219  17.518  0.00  0.00    +0.000 A 
ATOM     23  C   UNL     1      50.875   4.834  17.428  0.00  0.00    +0.000 A 
ATOM     24  N   UNL     1      49.820   3.967  17.177  0.00  0.00    +0.000 N 
ATOM     25  O   UNL     1      50.076   2.716  17.101  0.00  0.00    +0.000 OA
ATOM     26  C   UNL     1      48.557   4.517  17.022  0.00  0.00    +0.000 A 
ATOM     27  C   UNL     1      48.372   5.916  17.117  0.00  0.00    +0.000 A 
BRANCH  26  28
ATOM     28  C   UNL     1      47.392   3.641  16.753  0.00  0.00    +0.000 C 
ATOM     29  N   UNL     1      46.975   2.796  17.737  0.00  0.00    +0.000 N 
ATOM     30  O   UNL     1      46.825   3.676  15.669  0.00  0.00    +0.000 OA
ATOM     31  H   UNL     1      47.469   2.784  18.635  0.00  0.00    +0.000 HD
ATOM     32  H   UNL     1      46.186   2.184  17.591  0.00  0.00    +0.000 HD
ENDBRANCH  26  28
ENDBRANCH  18  21
ENDBRANCH  17  18
ENDBRANCH   1  17
TORSDOF 8
ENDMDL
MODEL 9
REMARK VINA RESULT:    -6.182      2.523      9.635
REMARK INTER + INTRA:          -9.926
REMARK INTER:                  -8.923
REMARK INTRA:                  -1.004
REMARK UNBOUND:                -0.853
REMARK  Name = 
REMARK  12 active torsions:
REMARK  status: ('A' for Active; 'I' for Inactive)
REMARK    1  A    between atoms: C_1  and  C_2
REMARK    2  A    between atoms: C_2  and  C_3
REMARK    3  A    between atoms: C_2  and  C_4
REMARK    4  A    between atoms: C_4  and  N_5
REMARK    5  A    between atoms: C_6  and  C_8
REMARK    6  A    between atoms: C_11  and  N_12
REMARK    7  A    between atoms: N_12  and  C_13
REMARK    8  A    between atoms: C_13  and  C_14
REMARK    9  A    between atoms: C_14  and  C_15
REMARK   10  A    between atoms: C_14  and  C_16
REMARK   11  A    between atoms: C_14  and  C_17
REMARK   12  A    between atoms: C_22  and  C_23
REMARK                            x       y       z     vdW  Elec       q    Type
REMARK                         _______ _______ _______ _____ _____    ______ ____
ROOT
ATOM      1  N   UNL     1      46.243   4.699  13.193  0.00  0.00    +0.000 N 
ATOM      2  H   UNL     1      46.123   3.696  13.318  0.00  0.00    +0.000 HD
ENDROOT
BRANCH   1   6
ATOM      3  C   UNL     1      48.791   5.877  16.203  0.00  0.00    +0.000 A 
ATOM      4  C   UNL     1      48.612   6.670  15.079  0.00  0.00    +0.000 A 
ATOM      5  N   UNL     1      47.783   6.320  14.056  0.00  0.00    +0.000 NA
ATOM      6  C   UNL     1      47.114   5.156  14.198  0.00  0.00    +0.000 A 
ATOM      7  C   UNL     1      47.259   4.402  15.371  0.00  0.00    +0.000 A 
ATOM      8  N   UNL     1      48.104   4.717  16.389  0.00  0.00    +0.000 NA
BRANCH   3  10
ATOM      9  N   UNL     1      51.048   5.664  17.052  0.00  0.00    +0.000 N 
ATOM     10  C   UNL     1      49.810   6.251  17.224  0.00  0.00    +0.000 C 
ATOM     11  O   UNL     1      49.545   7.044  18.120  0.00  0.00    +0.000 OA
ATOM     12  H   UNL     1      51.141   5.007  16.282  0.00  0.00    +0.000 HD
BRANCH   9  13
ATOM     13  C   UNL     1      52.171   5.914  17.932  0.00  0.00    +0.000 C 
BRANCH  13  15
ATOM     14  C   UNL     1      51.726   4.792  20.162  0.00  0.00    +0.000 C 
ATOM     15  C   UNL     1      52.494   4.718  18.840  0.00  0.00    +0.000 C 
ATOM     16  C   UNL     1      52.165   3.407  18.124  0.00  0.00    +0.000 C 
ENDBRANCH  13  15
ENDBRANCH   9  13
ENDBRANCH   3  10
ENDBRANCH   1   6
BRANCH   1  17
ATOM     17  C   UNL     1      44.974   5.435  13.117  0.00  0.00    +0.000 C 
BRANCH  17  18
ATOM     18  C   UNL     1      44.492   5.682  11.642  0.00  0.00    +0.000 C 
ATOM     19  C   UNL     1      43.013   6.135  11.664  0.00  0.00    +0.000 C 
ATOM     20  C   UNL     1      45.358   6.805  11.024  0.00  0.00    +0.000 C 
BRANCH  18  21
ATOM     21  C   UNL     1      44.620   4.418  10.749  0.00  0.00    +0.000 A 
ATOM     22  C   UNL     1      43.975   3.214  11.038  0.00  0.00    +0.000 A 
ATOM     23  C   UNL     1      44.138   2.095  10.215  0.00  0.00    +0.000 A 
ATOM     24  N   UNL     1      44.939   2.113   9.081  0.00  0.00    +0.000 N 
ATOM     25  O   UNL     1      45.035   1.037   8.398  0.00  0.00    +0.000 OA
ATOM     26  C   UNL     1      45.586   3.299   8.768  0.00  0.00    +0.000 A 
ATOM     27  C   UNL     1      45.423   4.438   9.589  0.00  0.00    +0.000 A 
BRANCH  26  28
ATOM     28  C   UNL     1      46.454   3.378   7.569  0.00  0.00    +0.000 C 
ATOM     29  N   UNL     1      47.268   2.323   7.287  0.00  0.00    +0.000 N 
ATOM     30  O   UNL     1      46.439   4.372   6.855  0.00  0.00    +0.000 OA
ATOM     31  H   UNL     1      47.264   1.503   7.903  0.00  0.00    +0.000 HD
ATOM     32  H   UNL     1      47.874   2.340   6.480  0.00  0.00    +0.000 HD
ENDBRANCH  26  28
ENDBRANCH  18  21
ENDBRANCH  17  18
ENDBRANCH   1  17
TORSDOF 8
ENDMDL
