MODEL 1
REMARK VINA RESULT:    -8.189      0.000      0.000
REMARK INTER + INTRA:         -12.852
REMARK INTER:                 -11.541
REMARK INTRA:                  -1.311
REMARK UNBOUND:                -1.311
REMARK  Name = 
REMARK  8 active torsions:
REMARK  status: ('A' for Active; 'I' for Inactive)
REMARK    1  A    between atoms: C_1  and  O_2
REMARK    2  A    between atoms: O_2  and  C_3
REMARK    3  A    between atoms: C_5  and  C_6
REMARK    4  A    between atoms: C_6  and  N_7
REMARK    5  A    between atoms: C_8  and  C_10
REMARK    6  A    between atoms: C_22  and  C_23
REMARK    7  A    between atoms: C_23  and  N_24
REMARK    8  A    between atoms: C_25  and  C_27
REMARK                            x       y       z     vdW  Elec       q    Type
REMARK                         _______ _______ _______ _____ _____    ______ ____
ROOT
ATOM      1  C   UNL     1      44.288   5.807  11.919  0.00  0.00    +0.000 A 
ATOM      2  C   UNL     1      45.003   6.651  12.779  0.00  0.00    +0.000 A 
ATOM      3  C   UNL     1      46.271   7.140  12.428  0.00  0.00    +0.000 A 
ATOM      4  C   UNL     1      46.814   6.788  11.188  0.00  0.00    +0.000 A 
ATOM      5  C   UNL     1      46.106   5.954  10.323  0.00  0.00    +0.000 A 
ATOM      6  C   UNL     1      44.843   5.447  10.678  0.00  0.00    +0.000 A 
ENDROOT
BRANCH   1   8
ATOM      7  C   UNL     1      43.035   4.284  13.252  0.00  0.00    +0.000 C 
ATOM      8  O   UNL     1      43.065   5.266  12.220  0.00  0.00    +0.000 OA
ENDBRANCH   1   8
BRANCH   3   9
ATOM      9  C   UNL     1      47.007   8.057  13.367  0.00  0.00    +0.000 C 
BRANCH   9  10
ATOM     10  N   UNL     1      47.468   7.353  14.537  0.00  0.00    +0.000 N 
ATOM     11  C   UNL     1      48.731   6.832  14.646  0.00  0.00    +0.000 C 
ATOM     12  O   UNL     1      49.560   6.924  13.743  0.00  0.00    +0.000 OA
ATOM     13  H   UNL     1      46.758   7.081  15.207  0.00  0.00    +0.000 HD
BRANCH  11  14
ATOM     14  C   UNL     1      49.074   6.217  15.936  0.00  0.00    +0.000 A 
ATOM     15  C   UNL     1      50.106   6.751  16.698  0.00  0.00    +0.000 A 
ATOM     16  S   UNL     1      50.344   5.955  18.186  0.00  0.00    +0.000 S 
ATOM     17  C   UNL     1      49.107   4.836  17.848  0.00  0.00    +0.000 A 
ATOM     18  N   UNL     1      48.807   3.842  18.726  0.00  0.00    +0.000 NA
ATOM     19  C   UNL     1      47.874   3.043  18.328  0.00  0.00    +0.000 A 
ATOM     20  N   UNL     1      47.206   3.155  17.137  0.00  0.00    +0.000 N 
ATOM     21  C   UNL     1      47.433   4.179  16.249  0.00  0.00    +0.000 A 
ATOM     22  O   UNL     1      46.742   4.311  15.242  0.00  0.00    +0.000 OA
ATOM     23  C   UNL     1      48.502   5.083  16.628  0.00  0.00    +0.000 A 
ATOM     24  H   UNL     1      46.468   2.511  16.896  0.00  0.00    +0.000 HD
ENDBRANCH  11  14
ENDBRANCH   9  10
ENDBRANCH   3   9
BRANCH   6  25
ATOM     25  C   UNL     1      44.101   4.584   9.687  0.00  0.00    +0.000 C 
BRANCH  25  26
ATOM     26  N   UNL     1      44.985   4.123   8.639  0.00  0.00    +0.000 N 
ATOM     27  C   UNL     1      45.493   2.840   8.596  0.00  0.00    +0.000 C 
ATOM     28  O   UNL     1      45.267   2.011   9.473  0.00  0.00    +0.000 OA
ATOM     29  H   UNL     1      45.103   4.699   7.814  0.00  0.00    +0.000 HD
BRANCH  27  30
ATOM     30  C   UNL     1      46.319   2.568   7.430  0.00  0.00    +0.000 A 
ATOM     31  C   UNL     1      47.292   1.612   7.207  0.00  0.00    +0.000 A 
ATOM     32  C   UNL     1      47.791   1.833   5.901  0.00  0.00    +0.000 A 
ATOM     33  C   UNL     1      47.089   2.905   5.403  0.00  0.00    +0.000 A 
ATOM     34  O   UNL     1      46.190   3.354   6.313  0.00  0.00    +0.000 OA
ENDBRANCH  27  30
ENDBRANCH  25  26
ENDBRANCH   6  25
TORSDOF 7
ENDMDL
MODEL 2
REMARK VINA RESULT:    -8.067      2.055      2.673
REMARK INTER + INTRA:         -12.679
REMARK INTER:                 -11.236
REMARK INTRA:                  -1.443
REMARK UNBOUND:                -1.311
REMARK  Name = 
REMARK  8 active torsions:
REMARK  status: ('A' for Active; 'I' for Inactive)
REMARK    1  A    between atoms: C_1  and  O_2
REMARK    2  A    between atoms: O_2  and  C_3
REMARK    3  A    between atoms: C_5  and  C_6
REMARK    4  A    between atoms: C_6  and  N_7
REMARK    5  A    between atoms: C_8  and  C_10
REMARK    6  A    between atoms: C_22  and  C_23
REMARK    7  A    between atoms: C_23  and  N_24
REMARK    8  A    between atoms: C_25  and  C_27
REMARK                            x       y       z     vdW  Elec       q    Type
REMARK                         _______ _______ _______ _____ _____    ______ ____
ROOT
ATOM      1  C   UNL     1      45.847   4.853  12.721  0.00  0.00    +0.000 A 
ATOM      2  C   UNL     1      46.410   6.062  13.149  0.00  0.00    +0.000 A 
ATOM      3  C   UNL     1      45.989   7.289  12.614  0.00  0.00    +0.000 A 
ATOM      4  C   UNL     1      44.975   7.296  11.651  0.00  0.00    +0.000 A 
ATOM      5  C   UNL     1      44.404   6.096  11.224  0.00  0.00    +0.000 A 
ATOM      6  C   UNL     1      44.835   4.863  11.745  0.00  0.00    +0.000 A 
ENDROOT
BRANCH   1   8
ATOM      7  C   UNL     1      47.118   3.603  14.299  0.00  0.00    +0.000 C 
ATOM      8  O   UNL     1      46.243   3.621  13.176  0.00  0.00    +0.000 OA
ENDBRANCH   1   8
BRANCH   3   9
ATOM      9  C   UNL     1      46.603   8.573  13.105  0.00  0.00    +0.000 C 
BRANCH   9  10
ATOM     10  N   UNL     1      47.069   8.446  14.462  0.00  0.00    +0.000 N 
ATOM     11  C   UNL     1      48.095   9.197  14.972  0.00  0.00    +0.000 C 
ATOM     12  O   UNL     1      48.698  10.030  14.298  0.00  0.00    +0.000 OA
ATOM     13  H   UNL     1      46.740   7.637  14.978  0.00  0.00    +0.000 HD
BRANCH  11  14
ATOM     14  C   UNL     1      48.395   9.010  16.399  0.00  0.00    +0.000 A 
ATOM     15  C   UNL     1      48.199  10.062  17.286  0.00  0.00    +0.000 A 
ATOM     16  S   UNL     1      48.545   9.667  18.907  0.00  0.00    +0.000 S 
ATOM     17  C   UNL     1      49.015   8.088  18.480  0.00  0.00    +0.000 A 
ATOM     18  N   UNL     1      49.458   7.214  19.423  0.00  0.00    +0.000 NA
ATOM     19  C   UNL     1      49.816   6.065  18.957  0.00  0.00    +0.000 A 
ATOM     20  N   UNL     1      49.761   5.706  17.635  0.00  0.00    +0.000 N 
ATOM     21  C   UNL     1      49.263   6.535  16.659  0.00  0.00    +0.000 A 
ATOM     22  O   UNL     1      49.128   6.144  15.502  0.00  0.00    +0.000 OA
ATOM     23  C   UNL     1      48.884   7.857  17.122  0.00  0.00    +0.000 A 
ATOM     24  H   UNL     1      50.034   4.781  17.339  0.00  0.00    +0.000 HD
ENDBRANCH  11  14
ENDBRANCH   9  10
ENDBRANCH   3   9
BRANCH   6  25
ATOM     25  C   UNL     1      44.153   3.600  11.282  0.00  0.00    +0.000 C 
BRANCH  25  26
ATOM     26  N   UNL     1      44.981   2.882  10.336  0.00  0.00    +0.000 N 
ATOM     27  C   UNL     1      44.985   3.156   8.984  0.00  0.00    +0.000 C 
ATOM     28  O   UNL     1      44.249   3.999   8.478  0.00  0.00    +0.000 OA
ATOM     29  H   UNL     1      45.710   2.275  10.691  0.00  0.00    +0.000 HD
BRANCH  27  30
ATOM     30  C   UNL     1      45.928   2.355   8.218  0.00  0.00    +0.000 A 
ATOM     31  C   UNL     1      46.852   2.710   7.255  0.00  0.00    +0.000 A 
ATOM     32  C   UNL     1      47.475   1.513   6.825  0.00  0.00    +0.000 A 
ATOM     33  C   UNL     1      46.899   0.502   7.556  0.00  0.00    +0.000 A 
ATOM     34  O   UNL     1      45.967   0.997   8.408  0.00  0.00    +0.000 OA
ENDBRANCH  27  30
ENDBRANCH  25  26
ENDBRANCH   6  25
TORSDOF 7
ENDMDL
MODEL 3
REMARK VINA RESULT:    -7.256      1.762      2.209
REMARK INTER + INTRA:         -11.536
REMARK INTER:                 -10.460
REMARK INTRA:                  -1.076
REMARK UNBOUND:                -1.311
REMARK  Name = 
REMARK  8 active torsions:
REMARK  status: ('A' for Active; 'I' for Inactive)
REMARK    1  A    between atoms: C_1  and  O_2
REMARK    2  A    between atoms: O_2  and  C_3
REMARK    3  A    between atoms: C_5  and  C_6
REMARK    4  A    between atoms: C_6  and  N_7
REMARK    5  A    between atoms: C_8  and  C_10
REMARK    6  A    between atoms: C_22  and  C_23
REMARK    7  A    between atoms: C_23  and  N_24
REMARK    8  A    between atoms: C_25  and  C_27
REMARK                            x       y       z     vdW  Elec       q    Type
REMARK                         _______ _______ _______ _____ _____    ______ ____
ROOT
ATOM      1  C   UNL     1      44.826   7.738  11.702  0.00  0.00    +0.000 A 
ATOM      2  C   UNL     1      45.689   8.476  12.523  0.00  0.00    +0.000 A 
ATOM      3  C   UNL     1      46.811   7.881  13.119  0.00  0.00    +0.000 A 
ATOM      4  C   UNL     1      47.076   6.531  12.867  0.00  0.00    +0.000 A 
ATOM      5  C   UNL     1      46.227   5.790  12.045  0.00  0.00    +0.000 A 
ATOM      6  C   UNL     1      45.091   6.378  11.460  0.00  0.00    +0.000 A 
ENDROOT
BRANCH   1   8
ATOM      7  C   UNL     1      43.772   9.587  10.635  0.00  0.00    +0.000 C 
ATOM      8  O   UNL     1      43.694   8.251  11.124  0.00  0.00    +0.000 OA
ENDBRANCH   1   8
BRANCH   3   9
ATOM      9  C   UNL     1      47.727   8.704  13.983  0.00  0.00    +0.000 C 
BRANCH   9  10
ATOM     10  N   UNL     1      47.912   8.099  15.278  0.00  0.00    +0.000 N 
ATOM     11  C   UNL     1      48.951   8.421  16.112  0.00  0.00    +0.000 C 
ATOM     12  O   UNL     1      49.807   9.248  15.806  0.00  0.00    +0.000 OA
ATOM     13  H   UNL     1      47.354   7.275  15.474  0.00  0.00    +0.000 HD
BRANCH  11  14
ATOM     14  C   UNL     1      48.951   7.777  17.433  0.00  0.00    +0.000 A 
ATOM     15  C   UNL     1      49.086   8.556  18.576  0.00  0.00    +0.000 A 
ATOM     16  S   UNL     1      49.017   7.664  20.027  0.00  0.00    +0.000 S 
ATOM     17  C   UNL     1      48.850   6.196  19.181  0.00  0.00    +0.000 A 
ATOM     18  N   UNL     1      48.763   5.014  19.848  0.00  0.00    +0.000 NA
ATOM     19  C   UNL     1      48.678   3.977  19.083  0.00  0.00    +0.000 A 
ATOM     20  N   UNL     1      48.660   4.015  17.714  0.00  0.00    +0.000 N 
ATOM     21  C   UNL     1      48.683   5.191  17.001  0.00  0.00    +0.000 A 
ATOM     22  O   UNL     1      48.556   5.195  15.779  0.00  0.00    +0.000 OA
ATOM     23  C   UNL     1      48.821   6.387  17.810  0.00  0.00    +0.000 A 
ATOM     24  H   UNL     1      48.566   3.168  17.174  0.00  0.00    +0.000 HD
ENDBRANCH  11  14
ENDBRANCH   9  10
ENDBRANCH   3   9
BRANCH   6  25
ATOM     25  C   UNL     1      44.230   5.543  10.544  0.00  0.00    +0.000 C 
BRANCH  25  26
ATOM     26  N   UNL     1      45.044   4.777   9.626  0.00  0.00    +0.000 N 
ATOM     27  C   UNL     1      44.818   3.443   9.356  0.00  0.00    +0.000 C 
ATOM     28  O   UNL     1      43.936   2.796   9.914  0.00  0.00    +0.000 OA
ATOM     29  H   UNL     1      45.696   5.270   9.026  0.00  0.00    +0.000 HD
BRANCH  27  30
ATOM     30  C   UNL     1      45.719   2.876   8.364  0.00  0.00    +0.000 A 
ATOM     31  C   UNL     1      46.311   3.434   7.247  0.00  0.00    +0.000 A 
ATOM     32  C   UNL     1      47.067   2.409   6.629  0.00  0.00    +0.000 A 
ATOM     33  C   UNL     1      46.897   1.290   7.409  0.00  0.00    +0.000 A 
ATOM     34  O   UNL     1      46.091   1.559   8.466  0.00  0.00    +0.000 OA
ENDBRANCH  27  30
ENDBRANCH  25  26
ENDBRANCH   6  25
TORSDOF 7
ENDMDL
MODEL 4
REMARK VINA RESULT:    -7.074      1.713      2.226
REMARK INTER + INTRA:         -11.280
REMARK INTER:                 -10.323
REMARK INTRA:                  -0.957
REMARK UNBOUND:                -1.311
REMARK  Name = 
REMARK  8 active torsions:
REMARK  status: ('A' for Active; 'I' for Inactive)
REMARK    1  A    between atoms: C_1  and  O_2
REMARK    2  A    between atoms: O_2  and  C_3
REMARK    3  A    between atoms: C_5  and  C_6
REMARK    4  A    between atoms: C_6  and  N_7
REMARK    5  A    between atoms: C_8  and  C_10
REMARK    6  A    between atoms: C_22  and  C_23
REMARK    7  A    between atoms: C_23  and  N_24
REMARK    8  A    between atoms: C_25  and  C_27
REMARK                            x       y       z     vdW  Elec       q    Type
REMARK                         _______ _______ _______ _____ _____    ______ ____
ROOT
ATOM      1  C   UNL     1      44.988   5.086  12.156  0.00  0.00    +0.000 A 
ATOM      2  C   UNL     1      45.779   5.683  13.146  0.00  0.00    +0.000 A 
ATOM      3  C   UNL     1      46.812   6.572  12.812  0.00  0.00    +0.000 A 
ATOM      4  C   UNL     1      47.034   6.878  11.465  0.00  0.00    +0.000 A 
ATOM      5  C   UNL     1      46.246   6.293  10.473  0.00  0.00    +0.000 A 
ATOM      6  C   UNL     1      45.222   5.387  10.802  0.00  0.00    +0.000 A 
ENDROOT
BRANCH   1   8
ATOM      7  C   UNL     1      43.019   4.557  13.385  0.00  0.00    +0.000 C 
ATOM      8  O   UNL     1      43.992   4.180  12.415  0.00  0.00    +0.000 OA
ENDBRANCH   1   8
BRANCH   3   9
ATOM      9  C   UNL     1      47.635   7.209  13.899  0.00  0.00    +0.000 C 
BRANCH   9  10
ATOM     10  N   UNL     1      47.714   6.363  15.063  0.00  0.00    +0.000 N 
ATOM     11  C   UNL     1      48.880   6.138  15.746  0.00  0.00    +0.000 C 
ATOM     12  O   UNL     1      49.949   6.641  15.404  0.00  0.00    +0.000 OA
ATOM     13  H   UNL     1      46.908   5.775  15.247  0.00  0.00    +0.000 HD
BRANCH  11  14
ATOM     14  C   UNL     1      48.777   5.319  16.961  0.00  0.00    +0.000 A 
ATOM     15  C   UNL     1      48.541   3.953  16.851  0.00  0.00    +0.000 A 
ATOM     16  S   UNL     1      48.497   3.140  18.348  0.00  0.00    +0.000 S 
ATOM     17  C   UNL     1      48.745   4.590  19.205  0.00  0.00    +0.000 A 
ATOM     18  N   UNL     1      48.787   4.597  20.564  0.00  0.00    +0.000 NA
ATOM     19  C   UNL     1      48.944   5.768  21.086  0.00  0.00    +0.000 A 
ATOM     20  N   UNL     1      49.074   6.930  20.371  0.00  0.00    +0.000 N 
ATOM     21  C   UNL     1      49.101   6.961  18.997  0.00  0.00    +0.000 A 
ATOM     22  O   UNL     1      49.327   8.004  18.390  0.00  0.00    +0.000 OA
ATOM     23  C   UNL     1      48.886   5.676  18.358  0.00  0.00    +0.000 A 
ATOM     24  H   UNL     1      49.220   7.811  20.840  0.00  0.00    +0.000 HD
ENDBRANCH  11  14
ENDBRANCH   9  10
ENDBRANCH   3   9
BRANCH   6  25
ATOM     25  C   UNL     1      44.370   4.819   9.694  0.00  0.00    +0.000 C 
BRANCH  25  26
ATOM     26  N   UNL     1      45.193   4.337   8.605  0.00  0.00    +0.000 N 
ATOM     27  C   UNL     1      45.649   3.038   8.527  0.00  0.00    +0.000 C 
ATOM     28  O   UNL     1      45.430   2.207   9.404  0.00  0.00    +0.000 OA
ATOM     29  H   UNL     1      45.297   4.919   7.782  0.00  0.00    +0.000 HD
BRANCH  27  30
ATOM     30  C   UNL     1      46.416   2.749   7.325  0.00  0.00    +0.000 A 
ATOM     31  C   UNL     1      46.370   3.304   6.060  0.00  0.00    +0.000 A 
ATOM     32  C   UNL     1      47.322   2.611   5.275  0.00  0.00    +0.000 A 
ATOM     33  C   UNL     1      47.897   1.680   6.107  0.00  0.00    +0.000 A 
ATOM     34  O   UNL     1      47.364   1.758   7.352  0.00  0.00    +0.000 OA
ENDBRANCH  27  30
ENDBRANCH  25  26
ENDBRANCH   6  25
TORSDOF 7
ENDMDL
MODEL 5
REMARK VINA RESULT:    -6.990      3.907      5.990
REMARK INTER + INTRA:         -11.161
REMARK INTER:                 -10.056
REMARK INTRA:                  -1.105
REMARK UNBOUND:                -1.311
REMARK  Name = 
REMARK  8 active torsions:
REMARK  status: ('A' for Active; 'I' for Inactive)
REMARK    1  A    between atoms: C_1  and  O_2
REMARK    2  A    between atoms: O_2  and  C_3
REMARK    3  A    between atoms: C_5  and  C_6
REMARK    4  A    between atoms: C_6  and  N_7
REMARK    5  A    between atoms: C_8  and  C_10
REMARK    6  A    between atoms: C_22  and  C_23
REMARK    7  A    between atoms: C_23  and  N_24
REMARK    8  A    between atoms: C_25  and  C_27
REMARK                            x       y       z     vdW  Elec       q    Type
REMARK                         _______ _______ _______ _____ _____    ______ ____
ROOT
ATOM      1  C   UNL     1      44.403   6.541  11.982  0.00  0.00    +0.000 A 
ATOM      2  C   UNL     1      44.779   5.461  12.791  0.00  0.00    +0.000 A 
ATOM      3  C   UNL     1      45.984   5.478  13.511  0.00  0.00    +0.000 A 
ATOM      4  C   UNL     1      46.807   6.606  13.428  0.00  0.00    +0.000 A 
ATOM      5  C   UNL     1      46.436   7.688  12.630  0.00  0.00    +0.000 A 
ATOM      6  C   UNL     1      45.238   7.668  11.893  0.00  0.00    +0.000 A 
ENDROOT
BRANCH   1   8
ATOM      7  C   UNL     1      42.179   5.751  11.666  0.00  0.00    +0.000 C 
ATOM      8  O   UNL     1      43.260   6.568  11.226  0.00  0.00    +0.000 OA
ENDBRANCH   1   8
BRANCH   3   9
ATOM      9  C   UNL     1      46.354   4.309  14.384  0.00  0.00    +0.000 C 
BRANCH   9  10
ATOM     10  N   UNL     1      47.350   4.675  15.358  0.00  0.00    +0.000 N 
ATOM     11  C   UNL     1      47.410   4.121  16.610  0.00  0.00    +0.000 C 
ATOM     12  O   UNL     1      46.606   3.273  16.992  0.00  0.00    +0.000 OA
ATOM     13  H   UNL     1      47.893   5.508  15.156  0.00  0.00    +0.000 HD
BRANCH  11  14
ATOM     14  C   UNL     1      48.537   4.540  17.455  0.00  0.00    +0.000 A 
ATOM     15  C   UNL     1      48.463   5.740  18.152  0.00  0.00    +0.000 A 
ATOM     16  S   UNL     1      49.829   6.056  19.122  0.00  0.00    +0.000 S 
ATOM     17  C   UNL     1      50.591   4.622  18.612  0.00  0.00    +0.000 A 
ATOM     18  N   UNL     1      51.833   4.296  19.061  0.00  0.00    +0.000 NA
ATOM     19  C   UNL     1      52.308   3.202  18.565  0.00  0.00    +0.000 A 
ATOM     20  N   UNL     1      51.649   2.399  17.671  0.00  0.00    +0.000 N 
ATOM     21  C   UNL     1      50.370   2.658  17.239  0.00  0.00    +0.000 A 
ATOM     22  O   UNL     1      49.768   1.862  16.523  0.00  0.00    +0.000 OA
ATOM     23  C   UNL     1      49.803   3.899  17.733  0.00  0.00    +0.000 A 
ATOM     24  H   UNL     1      52.066   1.543  17.341  0.00  0.00    +0.000 HD
ENDBRANCH  11  14
ENDBRANCH   9  10
ENDBRANCH   3   9
BRANCH   6  25
ATOM     25  C   UNL     1      44.864   8.883  11.081  0.00  0.00    +0.000 C 
BRANCH  25  26
ATOM     26  N   UNL     1      43.588   9.417  11.507  0.00  0.00    +0.000 N 
ATOM     27  C   UNL     1      42.741  10.102  10.661  0.00  0.00    +0.000 C 
ATOM     28  O   UNL     1      43.032  10.351   9.495  0.00  0.00    +0.000 OA
ATOM     29  H   UNL     1      43.219   9.133  12.408  0.00  0.00    +0.000 HD
BRANCH  27  30
ATOM     30  C   UNL     1      41.486  10.507  11.277  0.00  0.00    +0.000 A 
ATOM     31  C   UNL     1      41.217  11.414  12.284  0.00  0.00    +0.000 A 
ATOM     32  C   UNL     1      39.819  11.380  12.502  0.00  0.00    +0.000 A 
ATOM     33  C   UNL     1      39.318  10.462  11.611  0.00  0.00    +0.000 A 
ATOM     34  O   UNL     1      40.313   9.932  10.858  0.00  0.00    +0.000 OA
ENDBRANCH  27  30
ENDBRANCH  25  26
ENDBRANCH   6  25
TORSDOF 7
ENDMDL
MODEL 6
REMARK VINA RESULT:    -6.975      3.544      8.254
REMARK INTER + INTRA:         -11.140
REMARK INTER:                  -9.751
REMARK INTRA:                  -1.389
REMARK UNBOUND:                -1.311
REMARK  Name = 
REMARK  8 active torsions:
REMARK  status: ('A' for Active; 'I' for Inactive)
REMARK    1  A    between atoms: C_1  and  O_2
REMARK    2  A    between atoms: O_2  and  C_3
REMARK    3  A    between atoms: C_5  and  C_6
REMARK    4  A    between atoms: C_6  and  N_7
REMARK    5  A    between atoms: C_8  and  C_10
REMARK    6  A    between atoms: C_22  and  C_23
REMARK    7  A    between atoms: C_23  and  N_24
REMARK    8  A    between atoms: C_25  and  C_27
REMARK                            x       y       z     vdW  Elec       q    Type
REMARK                         _______ _______ _______ _____ _____    ______ ____
ROOT
ATOM      1  C   UNL     1      48.682   6.292  15.698  0.00  0.00    +0.000 A 
ATOM      2  C   UNL     1      48.217   6.630  14.420  0.00  0.00    +0.000 A 
ATOM      3  C   UNL     1      48.963   7.463  13.573  0.00  0.00    +0.000 A 
ATOM      4  C   UNL     1      50.200   7.945  14.012  0.00  0.00    +0.000 A 
ATOM      5  C   UNL     1      50.673   7.608  15.281  0.00  0.00    +0.000 A 
ATOM      6  C   UNL     1      49.921   6.788  16.140  0.00  0.00    +0.000 A 
ENDROOT
BRANCH   1   8
ATOM      7  C   UNL     1      47.563   4.235  16.126  0.00  0.00    +0.000 C 
ATOM      8  O   UNL     1      47.983   5.516  16.586  0.00  0.00    +0.000 OA
ENDBRANCH   1   8
BRANCH   3   9
ATOM      9  C   UNL     1      48.444   7.795  12.199  0.00  0.00    +0.000 C 
BRANCH   9  10
ATOM     10  N   UNL     1      47.640   6.724  11.668  0.00  0.00    +0.000 N 
ATOM     11  C   UNL     1      46.293   6.839  11.447  0.00  0.00    +0.000 C 
ATOM     12  O   UNL     1      45.672   7.870  11.698  0.00  0.00    +0.000 OA
ATOM     13  H   UNL     1      48.072   5.806  11.645  0.00  0.00    +0.000 HD
BRANCH  11  14
ATOM     14  C   UNL     1      45.633   5.684  10.821  0.00  0.00    +0.000 A 
ATOM     15  C   UNL     1      45.729   5.501   9.447  0.00  0.00    +0.000 A 
ATOM     16  S   UNL     1      44.952   4.091   8.887  0.00  0.00    +0.000 S 
ATOM     17  C   UNL     1      44.417   3.697  10.453  0.00  0.00    +0.000 A 
ATOM     18  N   UNL     1      43.656   2.591  10.672  0.00  0.00    +0.000 NA
ATOM     19  C   UNL     1      43.289   2.432  11.899  0.00  0.00    +0.000 A 
ATOM     20  N   UNL     1      43.622   3.271  12.930  0.00  0.00    +0.000 N 
ATOM     21  C   UNL     1      44.440   4.364  12.765  0.00  0.00    +0.000 A 
ATOM     22  O   UNL     1      44.807   5.033  13.728  0.00  0.00    +0.000 OA
ATOM     23  C   UNL     1      44.848   4.614  11.396  0.00  0.00    +0.000 A 
ATOM     24  H   UNL     1      43.323   3.076  13.873  0.00  0.00    +0.000 HD
ENDBRANCH  11  14
ENDBRANCH   9  10
ENDBRANCH   3   9
BRANCH   6  25
ATOM     25  C   UNL     1      50.500   6.418  17.484  0.00  0.00    +0.000 C 
BRANCH  25  26
ATOM     26  N   UNL     1      51.207   5.158  17.413  0.00  0.00    +0.000 N 
ATOM     27  C   UNL     1      50.797   4.028  18.090  0.00  0.00    +0.000 C 
ATOM     28  O   UNL     1      49.825   4.024  18.841  0.00  0.00    +0.000 OA
ATOM     29  H   UNL     1      51.929   5.045  16.711  0.00  0.00    +0.000 HD
BRANCH  27  30
ATOM     30  C   UNL     1      51.619   2.854  17.840  0.00  0.00    +0.000 A 
ATOM     31  C   UNL     1      51.295   1.600  17.358  0.00  0.00    +0.000 A 
ATOM     32  C   UNL     1      52.491   0.842  17.352  0.00  0.00    +0.000 A 
ATOM     33  C   UNL     1      53.473   1.680  17.824  0.00  0.00    +0.000 A 
ATOM     34  O   UNL     1      52.963   2.902  18.116  0.00  0.00    +0.000 OA
ENDBRANCH  27  30
ENDBRANCH  25  26
ENDBRANCH   6  25
TORSDOF 7
ENDMDL
MODEL 7
REMARK VINA RESULT:    -6.860      3.171      8.622
REMARK INTER + INTRA:         -10.978
REMARK INTER:                  -9.596
REMARK INTRA:                  -1.382
REMARK UNBOUND:                -1.311
REMARK  Name = 
REMARK  8 active torsions:
REMARK  status: ('A' for Active; 'I' for Inactive)
REMARK    1  A    between atoms: C_1  and  O_2
REMARK    2  A    between atoms: O_2  and  C_3
REMARK    3  A    between atoms: C_5  and  C_6
REMARK    4  A    between atoms: C_6  and  N_7
REMARK    5  A    between atoms: C_8  and  C_10
REMARK    6  A    between atoms: C_22  and  C_23
REMARK    7  A    between atoms: C_23  and  N_24
REMARK    8  A    between atoms: C_25  and  C_27
REMARK                            x       y       z     vdW  Elec       q    Type
REMARK                         _______ _______ _______ _____ _____    ______ ____
ROOT
ATOM      1  C   UNL     1      48.728   6.419  15.744  0.00  0.00    +0.000 A 
ATOM      2  C   UNL     1      47.970   6.595  14.579  0.00  0.00    +0.000 A 
ATOM      3  C   UNL     1      48.477   7.309  13.484  0.00  0.00    +0.000 A 
ATOM      4  C   UNL     1      49.771   7.835  13.557  0.00  0.00    +0.000 A 
ATOM      5  C   UNL     1      50.535   7.659  14.711  0.00  0.00    +0.000 A 
ATOM      6  C   UNL     1      50.024   6.959  15.818  0.00  0.00    +0.000 A 
ENDROOT
BRANCH   1   8
ATOM      7  C   UNL     1      47.843   4.421  16.687  0.00  0.00    +0.000 C 
ATOM      8  O   UNL     1      48.275   5.767  16.861  0.00  0.00    +0.000 OA
ENDBRANCH   1   8
BRANCH   3   9
ATOM      9  C   UNL     1      47.644   7.468  12.240  0.00  0.00    +0.000 C 
BRANCH   9  10
ATOM     10  N   UNL     1      46.885   6.275  11.961  0.00  0.00    +0.000 N 
ATOM     11  C   UNL     1      45.520   6.270  11.840  0.00  0.00    +0.000 C 
ATOM     12  O   UNL     1      44.844   7.289  11.971  0.00  0.00    +0.000 OA
ATOM     13  H   UNL     1      47.380   5.395  12.051  0.00  0.00    +0.000 HD
BRANCH  11  14
ATOM     14  C   UNL     1      44.903   4.988  11.469  0.00  0.00    +0.000 A 
ATOM     15  C   UNL     1      44.126   4.306  12.399  0.00  0.00    +0.000 A 
ATOM     16  S   UNL     1      43.444   2.865  11.798  0.00  0.00    +0.000 S 
ATOM     17  C   UNL     1      44.198   3.073  10.287  0.00  0.00    +0.000 A 
ATOM     18  N   UNL     1      44.043   2.152   9.297  0.00  0.00    +0.000 NA
ATOM     19  C   UNL     1      44.699   2.415   8.218  0.00  0.00    +0.000 A 
ATOM     20  N   UNL     1      45.488   3.520   8.032  0.00  0.00    +0.000 N 
ATOM     21  C   UNL     1      45.624   4.506   8.981  0.00  0.00    +0.000 A 
ATOM     22  O   UNL     1      46.251   5.535   8.742  0.00  0.00    +0.000 OA
ATOM     23  C   UNL     1      44.940   4.240  10.233  0.00  0.00    +0.000 A 
ATOM     24  H   UNL     1      45.956   3.680   7.153  0.00  0.00    +0.000 HD
ENDBRANCH  11  14
ENDBRANCH   9  10
ENDBRANCH   3   9
BRANCH   6  25
ATOM     25  C   UNL     1      50.909   6.759  17.024  0.00  0.00    +0.000 C 
BRANCH  25  26
ATOM     26  N   UNL     1      51.424   5.408  17.069  0.00  0.00    +0.000 N 
ATOM     27  C   UNL     1      51.164   4.540  18.110  0.00  0.00    +0.000 C 
ATOM     28  O   UNL     1      50.515   4.870  19.098  0.00  0.00    +0.000 OA
ATOM     29  H   UNL     1      51.847   5.021  16.233  0.00  0.00    +0.000 HD
BRANCH  27  30
ATOM     30  C   UNL     1      51.734   3.213  17.933  0.00  0.00    +0.000 A 
ATOM     31  C   UNL     1      53.022   2.744  18.110  0.00  0.00    +0.000 A 
ATOM     32  C   UNL     1      53.009   1.372  17.760  0.00  0.00    +0.000 A 
ATOM     33  C   UNL     1      51.715   1.085  17.398  0.00  0.00    +0.000 A 
ATOM     34  O   UNL     1      50.931   2.186  17.506  0.00  0.00    +0.000 OA
ENDBRANCH  27  30
ENDBRANCH  25  26
ENDBRANCH   6  25
TORSDOF 7
ENDMDL
MODEL 8
REMARK VINA RESULT:    -6.740      3.920      8.349
REMARK INTER + INTRA:         -10.810
REMARK INTER:                  -9.632
REMARK INTRA:                  -1.178
REMARK UNBOUND:                -1.311
REMARK  Name = 
REMARK  8 active torsions:
REMARK  status: ('A' for Active; 'I' for Inactive)
REMARK    1  A    between atoms: C_1  and  O_2
REMARK    2  A    between atoms: O_2  and  C_3
REMARK    3  A    between atoms: C_5  and  C_6
REMARK    4  A    between atoms: C_6  and  N_7
REMARK    5  A    between atoms: C_8  and  C_10
REMARK    6  A    between atoms: C_22  and  C_23
REMARK    7  A    between atoms: C_23  and  N_24
REMARK    8  A    between atoms: C_25  and  C_27
REMARK                            x       y       z     vdW  Elec       q    Type
REMARK                         _______ _______ _______ _____ _____    ______ ____
ROOT
ATOM      1  C   UNL     1      48.915   4.901  17.549  0.00  0.00    +0.000 A 
ATOM      2  C   UNL     1      48.572   5.941  16.674  0.00  0.00    +0.000 A 
ATOM      3  C   UNL     1      49.557   6.742  16.077  0.00  0.00    +0.000 A 
ATOM      4  C   UNL     1      50.904   6.478  16.350  0.00  0.00    +0.000 A 
ATOM      5  C   UNL     1      51.254   5.440  17.215  0.00  0.00    +0.000 A 
ATOM      6  C   UNL     1      50.269   4.646  17.829  0.00  0.00    +0.000 A 
ENDROOT
BRANCH   1   8
ATOM      7  C   UNL     1      47.205   3.254  17.378  0.00  0.00    +0.000 C 
ATOM      8  O   UNL     1      47.999   4.110  18.193  0.00  0.00    +0.000 OA
ENDBRANCH   1   8
BRANCH   3   9
ATOM      9  C   UNL     1      49.159   7.841  15.129  0.00  0.00    +0.000 C 
BRANCH   9  10
ATOM     10  N   UNL     1      47.963   7.499  14.401  0.00  0.00    +0.000 N 
ATOM     11  C   UNL     1      47.975   6.736  13.262  0.00  0.00    +0.000 C 
ATOM     12  O   UNL     1      49.016   6.296  12.777  0.00  0.00    +0.000 OA
ATOM     13  H   UNL     1      47.123   8.009  14.649  0.00  0.00    +0.000 HD
BRANCH  11  14
ATOM     14  C   UNL     1      46.665   6.405  12.686  0.00  0.00    +0.000 A 
ATOM     15  C   UNL     1      45.896   7.408  12.108  0.00  0.00    +0.000 A 
ATOM     16  S   UNL     1      44.428   6.852  11.443  0.00  0.00    +0.000 S 
ATOM     17  C   UNL     1      44.743   5.256  11.943  0.00  0.00    +0.000 A 
ATOM     18  N   UNL     1      43.847   4.261  11.703  0.00  0.00    +0.000 NA
ATOM     19  C   UNL     1      44.194   3.108  12.169  0.00  0.00    +0.000 A 
ATOM     20  N   UNL     1      45.361   2.857  12.843  0.00  0.00    +0.000 N 
ATOM     21  C   UNL     1      46.321   3.818  13.053  0.00  0.00    +0.000 A 
ATOM     22  O   UNL     1      47.401   3.535  13.565  0.00  0.00    +0.000 OA
ATOM     23  C   UNL     1      45.964   5.144  12.586  0.00  0.00    +0.000 A 
ATOM     24  H   UNL     1      45.584   1.926  13.160  0.00  0.00    +0.000 HD
ENDBRANCH  11  14
ENDBRANCH   9  10
ENDBRANCH   3   9
BRANCH   6  25
ATOM     25  C   UNL     1      50.704   3.509  18.721  0.00  0.00    +0.000 C 
BRANCH  25  26
ATOM     26  N   UNL     1      51.987   2.986  18.304  0.00  0.00    +0.000 N 
ATOM     27  C   UNL     1      52.139   1.743  17.725  0.00  0.00    +0.000 C 
ATOM     28  O   UNL     1      51.199   0.969  17.567  0.00  0.00    +0.000 OA
ATOM     29  H   UNL     1      52.781   3.616  18.273  0.00  0.00    +0.000 HD
BRANCH  27  30
ATOM     30  C   UNL     1      53.505   1.433  17.333  0.00  0.00    +0.000 A 
ATOM     31  C   UNL     1      54.095   0.243  16.952  0.00  0.00    +0.000 A 
ATOM     32  C   UNL     1      55.463   0.523  16.713  0.00  0.00    +0.000 A 
ATOM     33  C   UNL     1      55.623   1.867  16.956  0.00  0.00    +0.000 A 
ATOM     34  O   UNL     1      54.446   2.431  17.324  0.00  0.00    +0.000 OA
ENDBRANCH  27  30
ENDBRANCH  25  26
ENDBRANCH   6  25
TORSDOF 7
ENDMDL
MODEL 9
REMARK VINA RESULT:    -6.559      2.847      4.342
REMARK INTER + INTRA:         -10.555
REMARK INTER:                  -9.183
REMARK INTRA:                  -1.372
REMARK UNBOUND:                -1.311
REMARK  Name = 
REMARK  8 active torsions:
REMARK  status: ('A' for Active; 'I' for Inactive)
REMARK    1  A    between atoms: C_1  and  O_2
REMARK    2  A    between atoms: O_2  and  C_3
REMARK    3  A    between atoms: C_5  and  C_6
REMARK    4  A    between atoms: C_6  and  N_7
REMARK    5  A    between atoms: C_8  and  C_10
REMARK    6  A    between atoms: C_22  and  C_23
REMARK    7  A    between atoms: C_23  and  N_24
REMARK    8  A    between atoms: C_25  and  C_27
REMARK                            x       y       z     vdW  Elec       q    Type
REMARK                         _______ _______ _______ _____ _____    ______ ____
ROOT
ATOM      1  C   UNL     1      45.515   5.631  12.127  0.00  0.00    +0.000 A 
ATOM      2  C   UNL     1      46.319   6.110  13.170  0.00  0.00    +0.000 A 
ATOM      3  C   UNL     1      46.934   5.232  14.074  0.00  0.00    +0.000 A 
ATOM      4  C   UNL     1      46.753   3.854  13.912  0.00  0.00    +0.000 A 
ATOM      5  C   UNL     1      45.960   3.369  12.872  0.00  0.00    +0.000 A 
ATOM      6  C   UNL     1      45.326   4.246  11.974  0.00  0.00    +0.000 A 
ENDROOT
BRANCH   1   8
ATOM      7  C   UNL     1      44.863   7.836  11.511  0.00  0.00    +0.000 C 
ATOM      8  O   UNL     1      44.856   6.439  11.236  0.00  0.00    +0.000 OA
ENDBRANCH   1   8
BRANCH   3   9
ATOM      9  C   UNL     1      47.805   5.776  15.175  0.00  0.00    +0.000 C 
BRANCH   9  10
ATOM     10  N   UNL     1      48.921   6.516  14.645  0.00  0.00    +0.000 N 
ATOM     11  C   UNL     1      49.135   7.843  14.916  0.00  0.00    +0.000 C 
ATOM     12  O   UNL     1      48.377   8.497  15.629  0.00  0.00    +0.000 OA
ATOM     13  H   UNL     1      49.443   6.071  13.898  0.00  0.00    +0.000 HD
BRANCH  11  14
ATOM     14  C   UNL     1      50.365   8.431  14.368  0.00  0.00    +0.000 A 
ATOM     15  C   UNL     1      51.237   9.107  15.213  0.00  0.00    +0.000 A 
ATOM     16  S   UNL     1      52.638   9.686  14.432  0.00  0.00    +0.000 S 
ATOM     17  C   UNL     1      52.110   9.095  12.926  0.00  0.00    +0.000 A 
ATOM     18  N   UNL     1      52.853   9.285  11.803  0.00  0.00    +0.000 NA
ATOM     19  C   UNL     1      52.318   8.820  10.725  0.00  0.00    +0.000 A 
ATOM     20  N   UNL     1      51.112   8.171  10.669  0.00  0.00    +0.000 N 
ATOM     21  C   UNL     1      50.357   7.903  11.786  0.00  0.00    +0.000 A 
ATOM     22  O   UNL     1      49.335   7.226  11.714  0.00  0.00    +0.000 OA
ATOM     23  C   UNL     1      50.893   8.442  13.022  0.00  0.00    +0.000 A 
ATOM     24  H   UNL     1      50.760   7.809   9.795  0.00  0.00    +0.000 HD
ENDBRANCH  11  14
ENDBRANCH   9  10
ENDBRANCH   3   9
BRANCH   6  25
ATOM     25  C   UNL     1      44.516   3.667  10.840  0.00  0.00    +0.000 C 
BRANCH  25  26
ATOM     26  N   UNL     1      45.335   3.478   9.663  0.00  0.00    +0.000 N 
ATOM     27  C   UNL     1      45.268   2.347   8.875  0.00  0.00    +0.000 C 
ATOM     28  O   UNL     1      44.539   1.396   9.146  0.00  0.00    +0.000 OA
ATOM     29  H   UNL     1      45.853   4.270   9.299  0.00  0.00    +0.000 HD
BRANCH  27  30
ATOM     30  C   UNL     1      46.138   2.382   7.710  0.00  0.00    +0.000 A 
ATOM     31  C   UNL     1      47.163   1.544   7.314  0.00  0.00    +0.000 A 
ATOM     32  C   UNL     1      47.686   2.078   6.111  0.00  0.00    +0.000 A 
ATOM     33  C   UNL     1      46.945   3.204   5.842  0.00  0.00    +0.000 A 
ATOM     34  O   UNL     1      46.000   3.395   6.795  0.00  0.00    +0.000 OA
ENDBRANCH  27  30
ENDBRANCH  25  26
ENDBRANCH   6  25
TORSDOF 7
ENDMDL
