MODEL 1
REMARK VINA RESULT:    -8.688      0.000      0.000
REMARK INTER + INTRA:         -12.501
REMARK INTER:                 -11.735
REMARK INTRA:                  -0.766
REMARK UNBOUND:                -0.766
REMARK  Name = 
REMARK  6 active torsions:
REMARK  status: ('A' for Active; 'I' for Inactive)
REMARK    1  A    between atoms: C_2  and  C_25
REMARK    2  A    between atoms: N_3  and  C_4
REMARK    3  A    between atoms: C_4  and  C_5
REMARK    4  A    between atoms: C_8  and  C_9
REMARK    5  A    between atoms: C_9  and  N_10
REMARK    6  A    between atoms: C_11  and  C_13
REMARK                            x       y       z     vdW  Elec       q    Type
REMARK                         _______ _______ _______ _____ _____    ______ ____
ROOT
ATOM      1  C   UNL     1      44.850   5.315  11.596  0.00  0.00    +0.000 A 
ATOM      2  C   UNL     1      45.672   4.514  12.398  0.00  0.00    +0.000 A 
ATOM      3  C   UNL     1      46.628   5.086  13.250  0.00  0.00    +0.000 A 
ATOM      4  C   UNL     1      46.777   6.479  13.337  0.00  0.00    +0.000 A 
ATOM      5  C   UNL     1      45.957   7.277  12.524  0.00  0.00    +0.000 A 
ATOM      6  C   UNL     1      44.994   6.705  11.678  0.00  0.00    +0.000 A 
ENDROOT
BRANCH   1   7
ATOM      7  C   UNL     1      43.867   4.679  10.646  0.00  0.00    +0.000 C 
BRANCH   7  10
ATOM      8  O   UNL     1      45.655   5.325   8.617  0.00  0.00    +0.000 OA
ATOM      9  C   UNL     1      45.365   4.147   8.794  0.00  0.00    +0.000 C 
ATOM     10  N   UNL     1      44.481   3.717   9.763  0.00  0.00    +0.000 N 
ATOM     11  H   UNL     1      44.451   2.737  10.015  0.00  0.00    +0.000 HD
BRANCH   9  12
ATOM     12  C   UNL     1      46.007   3.086   7.976  0.00  0.00    +0.000 A 
ATOM     13  C   UNL     1      46.545   3.434   6.730  0.00  0.00    +0.000 A 
ATOM     14  C   UNL     1      47.180   2.469   5.948  0.00  0.00    +0.000 A 
ATOM     15  C   UNL     1      47.270   1.153   6.402  0.00  0.00    +0.000 A 
ATOM     16  C   UNL     1      46.710   0.796   7.629  0.00  0.00    +0.000 A 
ATOM     17  C   UNL     1      46.070   1.758   8.414  0.00  0.00    +0.000 A 
ENDBRANCH   9  12
ENDBRANCH   7  10
ENDBRANCH   1   7
BRANCH   4  18
ATOM     18  C   UNL     1      47.756   7.134  14.293  0.00  0.00    +0.000 C 
BRANCH  18  19
ATOM     19  N   UNL     1      48.018   6.364  15.481  0.00  0.00    +0.000 N 
ATOM     20  C   UNL     1      49.305   6.204  15.988  0.00  0.00    +0.000 C 
ATOM     21  O   UNL     1      50.284   6.682  15.441  0.00  0.00    +0.000 OA
ATOM     22  H   UNL     1      47.305   5.767  15.882  0.00  0.00    +0.000 HD
BRANCH  20  23
ATOM     23  C   UNL     1      49.363   5.404  17.236  0.00  0.00    +0.000 A 
ATOM     24  N   UNL     1      49.996   4.205  17.282  0.00  0.00    +0.000 NA
ATOM     25  N   UNL     1      49.815   3.776  18.554  0.00  0.00    +0.000 N 
ATOM     26  C   UNL     1      49.101   4.641  19.318  0.00  0.00    +0.000 A 
ATOM     27  N   UNL     1      48.768   4.458  20.623  0.00  0.00    +0.000 NA
ATOM     28  C   UNL     1      48.052   5.433  21.096  0.00  0.00    +0.000 A 
ATOM     29  N   UNL     1      47.668   6.551  20.382  0.00  0.00    +0.000 N 
ATOM     30  C   UNL     1      48.038   6.787  19.066  0.00  0.00    +0.000 A 
ATOM     31  O   UNL     1      47.738   7.819  18.491  0.00  0.00    +0.000 OA
ATOM     32  C   UNL     1      48.799   5.705  18.502  0.00  0.00    +0.000 A 
ATOM     33  H   UNL     1      50.200   2.883  18.834  0.00  0.00    +0.000 HD
ATOM     34  H   UNL     1      47.127   7.282  20.818  0.00  0.00    +0.000 HD
ENDBRANCH  20  23
ENDBRANCH  18  19
ENDBRANCH   4  18
TORSDOF 6
ENDMDL
MODEL 2
REMARK VINA RESULT:    -8.674      2.055      2.895
REMARK INTER + INTRA:         -12.482
REMARK INTER:                 -11.622
REMARK INTRA:                  -0.859
REMARK UNBOUND:                -0.766
REMARK  Name = 
REMARK  6 active torsions:
REMARK  status: ('A' for Active; 'I' for Inactive)
REMARK    1  A    between atoms: C_2  and  C_25
REMARK    2  A    between atoms: N_3  and  C_4
REMARK    3  A    between atoms: C_4  and  C_5
REMARK    4  A    between atoms: C_8  and  C_9
REMARK    5  A    between atoms: C_9  and  N_10
REMARK    6  A    between atoms: C_11  and  C_13
REMARK                            x       y       z     vdW  Elec       q    Type
REMARK                         _______ _______ _______ _____ _____    ______ ____
ROOT
ATOM      1  C   UNL     1      45.616   4.505  12.626  0.00  0.00    +0.000 A 
ATOM      2  C   UNL     1      46.223   3.984  13.775  0.00  0.00    +0.000 A 
ATOM      3  C   UNL     1      47.140   4.745  14.515  0.00  0.00    +0.000 A 
ATOM      4  C   UNL     1      47.463   6.057  14.136  0.00  0.00    +0.000 A 
ATOM      5  C   UNL     1      46.859   6.571  12.978  0.00  0.00    +0.000 A 
ATOM      6  C   UNL     1      45.934   5.813  12.243  0.00  0.00    +0.000 A 
ENDROOT
BRANCH   1   7
ATOM      7  C   UNL     1      44.675   3.652  11.814  0.00  0.00    +0.000 C 
BRANCH   7  10
ATOM      8  O   UNL     1      44.141   4.301   9.163  0.00  0.00    +0.000 OA
ATOM      9  C   UNL     1      44.982   3.441   9.401  0.00  0.00    +0.000 C 
ATOM     10  N   UNL     1      45.315   3.034  10.678  0.00  0.00    +0.000 N 
ATOM     11  H   UNL     1      46.161   2.498  10.827  0.00  0.00    +0.000 HD
BRANCH   9  12
ATOM     12  C   UNL     1      45.740   2.807   8.292  0.00  0.00    +0.000 A 
ATOM     13  C   UNL     1      46.029   3.572   7.155  0.00  0.00    +0.000 A 
ATOM     14  C   UNL     1      46.763   3.016   6.106  0.00  0.00    +0.000 A 
ATOM     15  C   UNL     1      47.200   1.694   6.186  0.00  0.00    +0.000 A 
ATOM     16  C   UNL     1      46.890   0.919   7.304  0.00  0.00    +0.000 A 
ATOM     17  C   UNL     1      46.152   1.470   8.354  0.00  0.00    +0.000 A 
ENDBRANCH   9  12
ENDBRANCH   7  10
ENDBRANCH   1   7
BRANCH   4  18
ATOM     18  C   UNL     1      48.401   6.930  14.947  0.00  0.00    +0.000 C 
BRANCH  18  19
ATOM     19  N   UNL     1      49.451   6.202  15.611  0.00  0.00    +0.000 N 
ATOM     20  C   UNL     1      49.343   5.798  16.939  0.00  0.00    +0.000 C 
ATOM     21  O   UNL     1      48.366   6.061  17.622  0.00  0.00    +0.000 OA
ATOM     22  H   UNL     1      50.371   6.119  15.195  0.00  0.00    +0.000 HD
BRANCH  20  23
ATOM     23  C   UNL     1      50.514   5.032  17.431  0.00  0.00    +0.000 A 
ATOM     24  N   UNL     1      51.576   5.651  18.005  0.00  0.00    +0.000 NA
ATOM     25  N   UNL     1      52.437   4.646  18.293  0.00  0.00    +0.000 N 
ATOM     26  C   UNL     1      51.977   3.421  17.932  0.00  0.00    +0.000 A 
ATOM     27  N   UNL     1      52.638   2.246  18.095  0.00  0.00    +0.000 NA
ATOM     28  C   UNL     1      51.975   1.231  17.628  0.00  0.00    +0.000 A 
ATOM     29  N   UNL     1      50.728   1.306  17.038  0.00  0.00    +0.000 N 
ATOM     30  C   UNL     1      50.010   2.485  16.906  0.00  0.00    +0.000 A 
ATOM     31  O   UNL     1      48.883   2.501  16.442  0.00  0.00    +0.000 OA
ATOM     32  C   UNL     1      50.737   3.632  17.379  0.00  0.00    +0.000 A 
ATOM     33  H   UNL     1      53.324   4.864  18.731  0.00  0.00    +0.000 HD
ATOM     34  H   UNL     1      50.260   0.474  16.714  0.00  0.00    +0.000 HD
ENDBRANCH  20  23
ENDBRANCH  18  19
ENDBRANCH   4  18
TORSDOF 6
ENDMDL
MODEL 3
REMARK VINA RESULT:    -8.511      1.612      2.000
REMARK INTER + INTRA:         -12.263
REMARK INTER:                 -11.373
REMARK INTRA:                  -0.890
REMARK UNBOUND:                -0.766
REMARK  Name = 
REMARK  6 active torsions:
REMARK  status: ('A' for Active; 'I' for Inactive)
REMARK    1  A    between atoms: C_2  and  C_25
REMARK    2  A    between atoms: N_3  and  C_4
REMARK    3  A    between atoms: C_4  and  C_5
REMARK    4  A    between atoms: C_8  and  C_9
REMARK    5  A    between atoms: C_9  and  N_10
REMARK    6  A    between atoms: C_11  and  C_13
REMARK                            x       y       z     vdW  Elec       q    Type
REMARK                         _______ _______ _______ _____ _____    ______ ____
ROOT
ATOM      1  C   UNL     1      45.156   6.364  11.373  0.00  0.00    +0.000 A 
ATOM      2  C   UNL     1      46.365   5.849  11.858  0.00  0.00    +0.000 A 
ATOM      3  C   UNL     1      47.185   6.610  12.704  0.00  0.00    +0.000 A 
ATOM      4  C   UNL     1      46.809   7.900  13.106  0.00  0.00    +0.000 A 
ATOM      5  C   UNL     1      45.601   8.414  12.611  0.00  0.00    +0.000 A 
ATOM      6  C   UNL     1      44.775   7.651  11.771  0.00  0.00    +0.000 A 
ENDROOT
BRANCH   1   7
ATOM      7  C   UNL     1      44.316   5.552  10.420  0.00  0.00    +0.000 C 
BRANCH   7  10
ATOM      8  O   UNL     1      44.142   2.811   9.989  0.00  0.00    +0.000 OA
ATOM      9  C   UNL     1      44.930   3.464   9.314  0.00  0.00    +0.000 C 
ATOM     10  N   UNL     1      45.104   4.827   9.454  0.00  0.00    +0.000 N 
ATOM     11  H   UNL     1      45.588   5.346   8.732  0.00  0.00    +0.000 HD
BRANCH   9  12
ATOM     12  C   UNL     1      45.727   2.807   8.247  0.00  0.00    +0.000 A 
ATOM     13  C   UNL     1      46.076   3.554   7.115  0.00  0.00    +0.000 A 
ATOM     14  C   UNL     1      46.849   2.977   6.106  0.00  0.00    +0.000 A 
ATOM     15  C   UNL     1      47.264   1.650   6.221  0.00  0.00    +0.000 A 
ATOM     16  C   UNL     1      46.895   0.893   7.333  0.00  0.00    +0.000 A 
ATOM     17  C   UNL     1      46.119   1.466   8.343  0.00  0.00    +0.000 A 
ENDBRANCH   9  12
ENDBRANCH   7  10
ENDBRANCH   1   7
BRANCH   4  18
ATOM     18  C   UNL     1      47.639   8.726  14.071  0.00  0.00    +0.000 C 
BRANCH  18  19
ATOM     19  N   UNL     1      47.920   8.063  15.317  0.00  0.00    +0.000 N 
ATOM     20  C   UNL     1      49.121   7.397  15.545  0.00  0.00    +0.000 C 
ATOM     21  O   UNL     1      49.991   7.314  14.693  0.00  0.00    +0.000 OA
ATOM     22  H   UNL     1      47.188   7.904  15.999  0.00  0.00    +0.000 HD
BRANCH  20  23
ATOM     23  C   UNL     1      49.233   6.807  16.901  0.00  0.00    +0.000 A 
ATOM     24  N   UNL     1      49.792   7.493  17.930  0.00  0.00    +0.000 NA
ATOM     25  N   UNL     1      49.741   6.635  18.976  0.00  0.00    +0.000 N 
ATOM     26  C   UNL     1      49.178   5.440  18.666  0.00  0.00    +0.000 A 
ATOM     27  N   UNL     1      49.009   4.397  19.520  0.00  0.00    +0.000 NA
ATOM     28  C   UNL     1      48.472   3.363  18.945  0.00  0.00    +0.000 A 
ATOM     29  N   UNL     1      48.092   3.305  17.619  0.00  0.00    +0.000 N 
ATOM     30  C   UNL     1      48.205   4.372  16.739  0.00  0.00    +0.000 A 
ATOM     31  O   UNL     1      47.794   4.305  15.593  0.00  0.00    +0.000 OA
ATOM     32  C   UNL     1      48.833   5.518  17.338  0.00  0.00    +0.000 A 
ATOM     33  H   UNL     1      50.111   6.925  19.873  0.00  0.00    +0.000 HD
ATOM     34  H   UNL     1      47.661   2.475  17.241  0.00  0.00    +0.000 HD
ENDBRANCH  20  23
ENDBRANCH  18  19
ENDBRANCH   4  18
TORSDOF 6
ENDMDL
MODEL 4
REMARK VINA RESULT:    -8.055      2.043     10.016
REMARK INTER + INTRA:         -11.646
REMARK INTER:                 -10.788
REMARK INTRA:                  -0.857
REMARK UNBOUND:                -0.766
REMARK  Name = 
REMARK  6 active torsions:
REMARK  status: ('A' for Active; 'I' for Inactive)
REMARK    1  A    between atoms: C_2  and  C_25
REMARK    2  A    between atoms: N_3  and  C_4
REMARK    3  A    between atoms: C_4  and  C_5
REMARK    4  A    between atoms: C_8  and  C_9
REMARK    5  A    between atoms: C_9  and  N_10
REMARK    6  A    between atoms: C_11  and  C_13
REMARK                            x       y       z     vdW  Elec       q    Type
REMARK                         _______ _______ _______ _____ _____    ______ ____
ROOT
ATOM      1  C   UNL     1      47.902   7.897  14.130  0.00  0.00    +0.000 A 
ATOM      2  C   UNL     1      47.836   6.573  13.680  0.00  0.00    +0.000 A 
ATOM      3  C   UNL     1      46.908   6.189  12.701  0.00  0.00    +0.000 A 
ATOM      4  C   UNL     1      46.032   7.124  12.129  0.00  0.00    +0.000 A 
ATOM      5  C   UNL     1      46.096   8.448  12.591  0.00  0.00    +0.000 A 
ATOM      6  C   UNL     1      47.030   8.834  13.565  0.00  0.00    +0.000 A 
ENDROOT
BRANCH   1   7
ATOM      7  C   UNL     1      48.868   8.277  15.223  0.00  0.00    +0.000 C 
BRANCH   7  10
ATOM      8  O   UNL     1      50.064   6.029  16.340  0.00  0.00    +0.000 OA
ATOM      9  C   UNL     1      49.182   6.602  16.971  0.00  0.00    +0.000 C 
ATOM     10  N   UNL     1      48.515   7.718  16.505  0.00  0.00    +0.000 N 
ATOM     11  H   UNL     1      47.969   8.278  17.147  0.00  0.00    +0.000 HD
BRANCH   9  12
ATOM     12  C   UNL     1      48.808   6.134  18.331  0.00  0.00    +0.000 A 
ATOM     13  C   UNL     1      49.589   5.141  18.936  0.00  0.00    +0.000 A 
ATOM     14  C   UNL     1      49.283   4.698  20.223  0.00  0.00    +0.000 A 
ATOM     15  C   UNL     1      48.192   5.238  20.904  0.00  0.00    +0.000 A 
ATOM     16  C   UNL     1      47.394   6.206  20.294  0.00  0.00    +0.000 A 
ATOM     17  C   UNL     1      47.694   6.649  19.004  0.00  0.00    +0.000 A 
ENDBRANCH   9  12
ENDBRANCH   7  10
ENDBRANCH   1   7
BRANCH   4  18
ATOM     18  C   UNL     1      45.059   6.759  11.024  0.00  0.00    +0.000 C 
BRANCH  18  19
ATOM     19  N   UNL     1      45.284   5.456  10.454  0.00  0.00    +0.000 N 
ATOM     20  C   UNL     1      44.234   4.605  10.119  0.00  0.00    +0.000 C 
ATOM     21  O   UNL     1      43.067   4.904  10.314  0.00  0.00    +0.000 OA
ATOM     22  H   UNL     1      46.209   5.043  10.447  0.00  0.00    +0.000 HD
BRANCH  20  23
ATOM     23  C   UNL     1      44.669   3.322   9.515  0.00  0.00    +0.000 A 
ATOM     24  N   UNL     1      44.089   2.145   9.855  0.00  0.00    +0.000 NA
ATOM     25  N   UNL     1      44.758   1.216   9.132  0.00  0.00    +0.000 N 
ATOM     26  C   UNL     1      45.734   1.743   8.349  0.00  0.00    +0.000 A 
ATOM     27  N   UNL     1      46.561   1.041   7.532  0.00  0.00    +0.000 NA
ATOM     28  C   UNL     1      47.424   1.799   6.924  0.00  0.00    +0.000 A 
ATOM     29  N   UNL     1      47.506   3.170   7.063  0.00  0.00    +0.000 N 
ATOM     30  C   UNL     1      46.642   3.917   7.850  0.00  0.00    +0.000 A 
ATOM     31  O   UNL     1      46.702   5.134   7.893  0.00  0.00    +0.000 OA
ATOM     32  C   UNL     1      45.700   3.100   8.567  0.00  0.00    +0.000 A 
ATOM     33  H   UNL     1      44.504   0.240   9.222  0.00  0.00    +0.000 HD
ATOM     34  H   UNL     1      48.189   3.702   6.545  0.00  0.00    +0.000 HD
ENDBRANCH  20  23
ENDBRANCH  18  19
ENDBRANCH   4  18
TORSDOF 6
ENDMDL
MODEL 5
REMARK VINA RESULT:    -7.844      1.881      2.770
REMARK INTER + INTRA:         -11.360
REMARK INTER:                 -10.438
REMARK INTRA:                  -0.922
REMARK UNBOUND:                -0.766
REMARK  Name = 
REMARK  6 active torsions:
REMARK  status: ('A' for Active; 'I' for Inactive)
REMARK    1  A    between atoms: C_2  and  C_25
REMARK    2  A    between atoms: N_3  and  C_4
REMARK    3  A    between atoms: C_4  and  C_5
REMARK    4  A    between atoms: C_8  and  C_9
REMARK    5  A    between atoms: C_9  and  N_10
REMARK    6  A    between atoms: C_11  and  C_13
REMARK                            x       y       z     vdW  Elec       q    Type
REMARK                         _______ _______ _______ _____ _____    ______ ____
ROOT
ATOM      1  C   UNL     1      45.910   6.167  11.808  0.00  0.00    +0.000 A 
ATOM      2  C   UNL     1      46.064   5.369  12.949  0.00  0.00    +0.000 A 
ATOM      3  C   UNL     1      46.965   5.727  13.962  0.00  0.00    +0.000 A 
ATOM      4  C   UNL     1      47.724   6.904  13.872  0.00  0.00    +0.000 A 
ATOM      5  C   UNL     1      47.571   7.695  12.723  0.00  0.00    +0.000 A 
ATOM      6  C   UNL     1      46.664   7.342  11.712  0.00  0.00    +0.000 A 
ENDROOT
BRANCH   1   7
ATOM      7  C   UNL     1      44.977   5.736  10.705  0.00  0.00    +0.000 C 
BRANCH   7  10
ATOM      8  O   UNL     1      44.173   3.180   9.961  0.00  0.00    +0.000 OA
ATOM      9  C   UNL     1      45.140   3.681   9.397  0.00  0.00    +0.000 C 
ATOM     10  N   UNL     1      45.630   4.936   9.697  0.00  0.00    +0.000 N 
ATOM     11  H   UNL     1      46.273   5.388   9.059  0.00  0.00    +0.000 HD
BRANCH   9  12
ATOM     12  C   UNL     1      45.825   2.954   8.297  0.00  0.00    +0.000 A 
ATOM     13  C   UNL     1      46.155   3.659   7.133  0.00  0.00    +0.000 A 
ATOM     14  C   UNL     1      46.824   3.015   6.091  0.00  0.00    +0.000 A 
ATOM     15  C   UNL     1      47.155   1.665   6.206  0.00  0.00    +0.000 A 
ATOM     16  C   UNL     1      46.803   0.952   7.352  0.00  0.00    +0.000 A 
ATOM     17  C   UNL     1      46.130   1.591   8.395  0.00  0.00    +0.000 A 
ENDBRANCH   9  12
ENDBRANCH   7  10
ENDBRANCH   1   7
BRANCH   4  18
ATOM     18  C   UNL     1      48.661   7.355  14.977  0.00  0.00    +0.000 C 
BRANCH  18  19
ATOM     19  N   UNL     1      49.375   6.279  15.613  0.00  0.00    +0.000 N 
ATOM     20  C   UNL     1      49.044   5.824  16.887  0.00  0.00    +0.000 C 
ATOM     21  O   UNL     1      48.149   6.327  17.545  0.00  0.00    +0.000 OA
ATOM     22  H   UNL     1      50.253   5.942  15.235  0.00  0.00    +0.000 HD
BRANCH  20  23
ATOM     23  C   UNL     1      49.876   4.688  17.354  0.00  0.00    +0.000 A 
ATOM     24  N   UNL     1      49.316   3.540  17.811  0.00  0.00    +0.000 NA
ATOM     25  N   UNL     1      50.370   2.767  18.163  0.00  0.00    +0.000 N 
ATOM     26  C   UNL     1      51.571   3.364  17.953  0.00  0.00    +0.000 A 
ATOM     27  N   UNL     1      52.786   2.821  18.225  0.00  0.00    +0.000 NA
ATOM     28  C   UNL     1      53.766   3.629  17.955  0.00  0.00    +0.000 A 
ATOM     29  N   UNL     1      53.621   4.901  17.436  0.00  0.00    +0.000 N 
ATOM     30  C   UNL     1      52.397   5.459  17.101  0.00  0.00    +0.000 A 
ATOM     31  O   UNL     1      52.314   6.558  16.579  0.00  0.00    +0.000 OA
ATOM     32  C   UNL     1      51.289   4.602  17.426  0.00  0.00    +0.000 A 
ATOM     33  H   UNL     1      50.202   1.844  18.545  0.00  0.00    +0.000 HD
ATOM     34  H   UNL     1      54.428   5.470  17.230  0.00  0.00    +0.000 HD
ENDBRANCH  20  23
ENDBRANCH  18  19
ENDBRANCH   4  18
TORSDOF 6
ENDMDL
MODEL 6
REMARK VINA RESULT:    -7.672      2.297      9.469
REMARK INTER + INTRA:         -11.129
REMARK INTER:                 -10.191
REMARK INTRA:                  -0.939
REMARK UNBOUND:                -0.766
REMARK  Name = 
REMARK  6 active torsions:
REMARK  status: ('A' for Active; 'I' for Inactive)
REMARK    1  A    between atoms: C_2  and  C_25
REMARK    2  A    between atoms: N_3  and  C_4
REMARK    3  A    between atoms: C_4  and  C_5
REMARK    4  A    between atoms: C_8  and  C_9
REMARK    5  A    between atoms: C_9  and  N_10
REMARK    6  A    between atoms: C_11  and  C_13
REMARK                            x       y       z     vdW  Elec       q    Type
REMARK                         _______ _______ _______ _____ _____    ______ ____
ROOT
ATOM      1  C   UNL     1      48.659   7.637  15.081  0.00  0.00    +0.000 A 
ATOM      2  C   UNL     1      48.049   8.796  14.585  0.00  0.00    +0.000 A 
ATOM      3  C   UNL     1      47.086   8.726  13.568  0.00  0.00    +0.000 A 
ATOM      4  C   UNL     1      46.691   7.491  13.031  0.00  0.00    +0.000 A 
ATOM      5  C   UNL     1      47.312   6.334  13.525  0.00  0.00    +0.000 A 
ATOM      6  C   UNL     1      48.270   6.403  14.548  0.00  0.00    +0.000 A 
ENDROOT
BRANCH   1   7
ATOM      7  C   UNL     1      49.733   7.738  16.135  0.00  0.00    +0.000 C 
BRANCH   7  10
ATOM      8  O   UNL     1      49.398   6.126  18.376  0.00  0.00    +0.000 OA
ATOM      9  C   UNL     1      50.175   5.763  17.500  0.00  0.00    +0.000 C 
ATOM     10  N   UNL     1      50.425   6.491  16.354  0.00  0.00    +0.000 N 
ATOM     11  H   UNL     1      50.890   6.049  15.571  0.00  0.00    +0.000 HD
BRANCH   9  12
ATOM     12  C   UNL     1      50.874   4.457  17.612  0.00  0.00    +0.000 A 
ATOM     13  C   UNL     1      50.155   3.287  17.336  0.00  0.00    +0.000 A 
ATOM     14  C   UNL     1      50.788   2.044  17.405  0.00  0.00    +0.000 A 
ATOM     15  C   UNL     1      52.135   1.968  17.759  0.00  0.00    +0.000 A 
ATOM     16  C   UNL     1      52.847   3.129  18.063  0.00  0.00    +0.000 A 
ATOM     17  C   UNL     1      52.217   4.373  17.999  0.00  0.00    +0.000 A 
ENDBRANCH   9  12
ENDBRANCH   7  10
ENDBRANCH   1   7
BRANCH   4  18
ATOM     18  C   UNL     1      45.608   7.373  11.975  0.00  0.00    +0.000 C 
BRANCH  18  19
ATOM     19  N   UNL     1      45.430   6.037  11.467  0.00  0.00    +0.000 N 
ATOM     20  C   UNL     1      44.167   5.498  11.236  0.00  0.00    +0.000 C 
ATOM     21  O   UNL     1      43.142   6.115  11.475  0.00  0.00    +0.000 OA
ATOM     22  H   UNL     1      46.204   5.385  11.434  0.00  0.00    +0.000 HD
BRANCH  20  23
ATOM     23  C   UNL     1      44.194   4.122  10.681  0.00  0.00    +0.000 A 
ATOM     24  N   UNL     1      43.468   3.120  11.236  0.00  0.00    +0.000 NA
ATOM     25  N   UNL     1      43.767   2.032  10.486  0.00  0.00    +0.000 N 
ATOM     26  C   UNL     1      44.645   2.292   9.484  0.00  0.00    +0.000 A 
ATOM     27  N   UNL     1      45.121   1.385   8.591  0.00  0.00    +0.000 NA
ATOM     28  C   UNL     1      45.975   1.904   7.761  0.00  0.00    +0.000 A 
ATOM     29  N   UNL     1      46.363   3.229   7.753  0.00  0.00    +0.000 N 
ATOM     30  C   UNL     1      45.854   4.186   8.619  0.00  0.00    +0.000 A 
ATOM     31  O   UNL     1      46.171   5.360   8.535  0.00  0.00    +0.000 OA
ATOM     32  C   UNL     1      44.936   3.632   9.577  0.00  0.00    +0.000 A 
ATOM     33  H   UNL     1      43.342   1.141  10.715  0.00  0.00    +0.000 HD
ATOM     34  H   UNL     1      47.017   3.571   7.065  0.00  0.00    +0.000 HD
ENDBRANCH  20  23
ENDBRANCH  18  19
ENDBRANCH   4  18
TORSDOF 6
ENDMDL
MODEL 7
REMARK VINA RESULT:    -7.263      3.566      9.094
REMARK INTER + INTRA:         -10.576
REMARK INTER:                  -9.891
REMARK INTRA:                  -0.685
REMARK UNBOUND:                -0.766
REMARK  Name = 
REMARK  6 active torsions:
REMARK  status: ('A' for Active; 'I' for Inactive)
REMARK    1  A    between atoms: C_2  and  C_25
REMARK    2  A    between atoms: N_3  and  C_4
REMARK    3  A    between atoms: C_4  and  C_5
REMARK    4  A    between atoms: C_8  and  C_9
REMARK    5  A    between atoms: C_9  and  N_10
REMARK    6  A    between atoms: C_11  and  C_13
REMARK                            x       y       z     vdW  Elec       q    Type
REMARK                         _______ _______ _______ _____ _____    ______ ____
ROOT
ATOM      1  C   UNL     1      49.533   5.123  17.386  0.00  0.00    +0.000 A 
ATOM      2  C   UNL     1      48.299   4.831  16.792  0.00  0.00    +0.000 A 
ATOM      3  C   UNL     1      47.875   5.507  15.640  0.00  0.00    +0.000 A 
ATOM      4  C   UNL     1      48.682   6.483  15.036  0.00  0.00    +0.000 A 
ATOM      5  C   UNL     1      49.914   6.779  15.640  0.00  0.00    +0.000 A 
ATOM      6  C   UNL     1      50.343   6.096  16.789  0.00  0.00    +0.000 A 
ENDROOT
BRANCH   1   7
ATOM      7  C   UNL     1      49.947   4.424  18.656  0.00  0.00    +0.000 C 
BRANCH   7  10
ATOM      8  O   UNL     1      50.397   2.039  17.299  0.00  0.00    +0.000 OA
ATOM      9  C   UNL     1      51.346   2.598  17.840  0.00  0.00    +0.000 C 
ATOM     10  N   UNL     1      51.232   3.777  18.549  0.00  0.00    +0.000 N 
ATOM     11  H   UNL     1      52.064   4.307  18.776  0.00  0.00    +0.000 HD
BRANCH   9  12
ATOM     12  C   UNL     1      52.716   2.036  17.717  0.00  0.00    +0.000 A 
ATOM     13  C   UNL     1      53.809   2.904  17.840  0.00  0.00    +0.000 A 
ATOM     14  C   UNL     1      55.110   2.406  17.757  0.00  0.00    +0.000 A 
ATOM     15  C   UNL     1      55.322   1.045  17.540  0.00  0.00    +0.000 A 
ATOM     16  C   UNL     1      54.236   0.182  17.389  0.00  0.00    +0.000 A 
ATOM     17  C   UNL     1      52.933   0.676  17.467  0.00  0.00    +0.000 A 
ENDBRANCH   9  12
ENDBRANCH   7  10
ENDBRANCH   1   7
BRANCH   4  18
ATOM     18  C   UNL     1      48.283   7.190  13.754  0.00  0.00    +0.000 C 
BRANCH  18  19
ATOM     19  N   UNL     1      47.160   6.591  13.081  0.00  0.00    +0.000 N 
ATOM     20  C   UNL     1      45.961   7.274  12.896  0.00  0.00    +0.000 C 
ATOM     21  O   UNL     1      45.784   8.405  13.317  0.00  0.00    +0.000 OA
ATOM     22  H   UNL     1      47.141   5.598  12.882  0.00  0.00    +0.000 HD
BRANCH  20  23
ATOM     23  C   UNL     1      44.937   6.499  12.152  0.00  0.00    +0.000 A 
ATOM     24  N   UNL     1      44.062   7.105  11.312  0.00  0.00    +0.000 NA
ATOM     25  N   UNL     1      43.284   6.097  10.850  0.00  0.00    +0.000 N 
ATOM     26  C   UNL     1      43.621   4.883  11.353  0.00  0.00    +0.000 A 
ATOM     27  N   UNL     1      43.003   3.707  11.068  0.00  0.00    +0.000 NA
ATOM     28  C   UNL     1      43.514   2.704  11.718  0.00  0.00    +0.000 A 
ATOM     29  N   UNL     1      44.575   2.791  12.597  0.00  0.00    +0.000 N 
ATOM     30  C   UNL     1      45.255   3.969  12.867  0.00  0.00    +0.000 A 
ATOM     31  O   UNL     1      46.232   3.993  13.597  0.00  0.00    +0.000 OA
ATOM     32  C   UNL     1      44.687   5.104  12.192  0.00  0.00    +0.000 A 
ATOM     33  H   UNL     1      42.538   6.306  10.198  0.00  0.00    +0.000 HD
ATOM     34  H   UNL     1      44.935   1.968  13.055  0.00  0.00    +0.000 HD
ENDBRANCH  20  23
ENDBRANCH  18  19
ENDBRANCH   4  18
TORSDOF 6
ENDMDL
MODEL 8
REMARK VINA RESULT:    -7.203      5.192      8.798
REMARK INTER + INTRA:         -10.495
REMARK INTER:                  -9.576
REMARK INTRA:                  -0.919
REMARK UNBOUND:                -0.766
REMARK  Name = 
REMARK  6 active torsions:
REMARK  status: ('A' for Active; 'I' for Inactive)
REMARK    1  A    between atoms: C_2  and  C_25
REMARK    2  A    between atoms: N_3  and  C_4
REMARK    3  A    between atoms: C_4  and  C_5
REMARK    4  A    between atoms: C_8  and  C_9
REMARK    5  A    between atoms: C_9  and  N_10
REMARK    6  A    between atoms: C_11  and  C_13
REMARK                            x       y       z     vdW  Elec       q    Type
REMARK                         _______ _______ _______ _____ _____    ______ ____
ROOT
ATOM      1  C   UNL     1      49.258   9.174  11.751  0.00  0.00    +0.000 A 
ATOM      2  C   UNL     1      49.102   7.782  11.770  0.00  0.00    +0.000 A 
ATOM      3  C   UNL     1      47.837   7.200  11.940  0.00  0.00    +0.000 A 
ATOM      4  C   UNL     1      46.689   7.995  12.077  0.00  0.00    +0.000 A 
ATOM      5  C   UNL     1      46.852   9.389  12.066  0.00  0.00    +0.000 A 
ATOM      6  C   UNL     1      48.117   9.972  11.887  0.00  0.00    +0.000 A 
ENDROOT
BRANCH   1   7
ATOM      7  C   UNL     1      50.633   9.779  11.623  0.00  0.00    +0.000 C 
BRANCH   7  10
ATOM      8  O   UNL     1      52.182  10.398   9.398  0.00  0.00    +0.000 OA
ATOM      9  C   UNL     1      52.314   9.296   9.920  0.00  0.00    +0.000 C 
ATOM     10  N   UNL     1      51.588   8.882  11.019  0.00  0.00    +0.000 N 
ATOM     11  H   UNL     1      51.891   8.070  11.541  0.00  0.00    +0.000 HD
BRANCH   9  12
ATOM     12  C   UNL     1      53.328   8.340   9.405  0.00  0.00    +0.000 A 
ATOM     13  C   UNL     1      54.680   8.586   9.675  0.00  0.00    +0.000 A 
ATOM     14  C   UNL     1      55.656   7.694   9.230  0.00  0.00    +0.000 A 
ATOM     15  C   UNL     1      55.285   6.561   8.506  0.00  0.00    +0.000 A 
ATOM     16  C   UNL     1      53.942   6.326   8.210  0.00  0.00    +0.000 A 
ATOM     17  C   UNL     1      52.962   7.219   8.650  0.00  0.00    +0.000 A 
ENDBRANCH   9  12
ENDBRANCH   7  10
ENDBRANCH   1   7
BRANCH   4  18
ATOM     18  C   UNL     1      45.298   7.401  12.199  0.00  0.00    +0.000 C 
BRANCH  18  19
ATOM     19  N   UNL     1      45.193   6.053  11.704  0.00  0.00    +0.000 N 
ATOM     20  C   UNL     1      43.996   5.538  11.213  0.00  0.00    +0.000 C 
ATOM     21  O   UNL     1      42.964   6.190  11.200  0.00  0.00    +0.000 OA
ATOM     22  H   UNL     1      45.933   5.380  11.864  0.00  0.00    +0.000 HD
BRANCH  20  23
ATOM     23  C   UNL     1      44.099   4.143  10.720  0.00  0.00    +0.000 A 
ATOM     24  N   UNL     1      43.414   3.130  11.309  0.00  0.00    +0.000 NA
ATOM     25  N   UNL     1      43.778   2.028  10.612  0.00  0.00    +0.000 N 
ATOM     26  C   UNL     1      44.658   2.287   9.612  0.00  0.00    +0.000 A 
ATOM     27  N   UNL     1      45.192   1.367   8.766  0.00  0.00    +0.000 NA
ATOM     28  C   UNL     1      46.032   1.892   7.925  0.00  0.00    +0.000 A 
ATOM     29  N   UNL     1      46.356   3.233   7.864  0.00  0.00    +0.000 N 
ATOM     30  C   UNL     1      45.787   4.199   8.680  0.00  0.00    +0.000 A 
ATOM     31  O   UNL     1      46.047   5.383   8.549  0.00  0.00    +0.000 OA
ATOM     32  C   UNL     1      44.882   3.643   9.649  0.00  0.00    +0.000 A 
ATOM     33  H   UNL     1      43.394   1.127  10.873  0.00  0.00    +0.000 HD
ATOM     34  H   UNL     1      47.003   3.577   7.171  0.00  0.00    +0.000 HD
ENDBRANCH  20  23
ENDBRANCH  18  19
ENDBRANCH   4  18
TORSDOF 6
ENDMDL
MODEL 9
REMARK VINA RESULT:    -7.064      3.634      4.992
REMARK INTER + INTRA:         -10.307
REMARK INTER:                  -9.433
REMARK INTRA:                  -0.875
REMARK UNBOUND:                -0.766
REMARK  Name = 
REMARK  6 active torsions:
REMARK  status: ('A' for Active; 'I' for Inactive)
REMARK    1  A    between atoms: C_2  and  C_25
REMARK    2  A    between atoms: N_3  and  C_4
REMARK    3  A    between atoms: C_4  and  C_5
REMARK    4  A    between atoms: C_8  and  C_9
REMARK    5  A    between atoms: C_9  and  N_10
REMARK    6  A    between atoms: C_11  and  C_13
REMARK                            x       y       z     vdW  Elec       q    Type
REMARK                         _______ _______ _______ _____ _____    ______ ____
ROOT
ATOM      1  C   UNL     1      45.382   4.695  12.150  0.00  0.00    +0.000 A 
ATOM      2  C   UNL     1      46.055   4.398  13.341  0.00  0.00    +0.000 A 
ATOM      3  C   UNL     1      46.887   5.345  13.956  0.00  0.00    +0.000 A 
ATOM      4  C   UNL     1      47.054   6.625  13.406  0.00  0.00    +0.000 A 
ATOM      5  C   UNL     1      46.384   6.915  12.208  0.00  0.00    +0.000 A 
ATOM      6  C   UNL     1      45.545   5.970  11.597  0.00  0.00    +0.000 A 
ENDROOT
BRANCH   1   7
ATOM      7  C   UNL     1      44.537   3.645  11.475  0.00  0.00    +0.000 C 
BRANCH   7  10
ATOM      8  O   UNL     1      44.262   4.321   8.792  0.00  0.00    +0.000 OA
ATOM      9  C   UNL     1      45.021   3.406   9.095  0.00  0.00    +0.000 C 
ATOM     10  N   UNL     1      45.223   2.982  10.393  0.00  0.00    +0.000 N 
ATOM     11  H   UNL     1      46.015   2.390  10.609  0.00  0.00    +0.000 HD
BRANCH   9  12
ATOM     12  C   UNL     1      45.820   2.719   8.048  0.00  0.00    +0.000 A 
ATOM     13  C   UNL     1      46.252   1.408   8.288  0.00  0.00    +0.000 A 
ATOM     14  C   UNL     1      46.981   0.722   7.315  0.00  0.00    +0.000 A 
ATOM     15  C   UNL     1      47.290   1.348   6.107  0.00  0.00    +0.000 A 
ATOM     16  C   UNL     1      46.887   2.663   5.876  0.00  0.00    +0.000 A 
ATOM     17  C   UNL     1      46.160   3.354   6.848  0.00  0.00    +0.000 A 
ENDBRANCH   9  12
ENDBRANCH   7  10
ENDBRANCH   1   7
BRANCH   4  18
ATOM     18  C   UNL     1      47.894   7.695  14.077  0.00  0.00    +0.000 C 
BRANCH  18  19
ATOM     19  N   UNL     1      49.275   7.696  13.669  0.00  0.00    +0.000 N 
ATOM     20  C   UNL     1      49.761   8.579  12.708  0.00  0.00    +0.000 C 
ATOM     21  O   UNL     1      49.040   9.381  12.139  0.00  0.00    +0.000 OA
ATOM     22  H   UNL     1      49.896   6.939  13.932  0.00  0.00    +0.000 HD
BRANCH  20  23
ATOM     23  C   UNL     1      51.215   8.445  12.450  0.00  0.00    +0.000 A 
ATOM     24  N   UNL     1      51.685   7.823  11.340  0.00  0.00    +0.000 NA
ATOM     25  N   UNL     1      53.031   7.874  11.468  0.00  0.00    +0.000 N 
ATOM     26  C   UNL     1      53.442   8.497  12.602  0.00  0.00    +0.000 A 
ATOM     27  N   UNL     1      54.734   8.679  12.983  0.00  0.00    +0.000 NA
ATOM     28  C   UNL     1      54.835   9.278  14.132  0.00  0.00    +0.000 A 
ATOM     29  N   UNL     1      53.767   9.706  14.896  0.00  0.00    +0.000 N 
ATOM     30  C   UNL     1      52.442   9.579  14.506  0.00  0.00    +0.000 A 
ATOM     31  O   UNL     1      51.530  10.031  15.176  0.00  0.00    +0.000 OA
ATOM     32  C   UNL     1      52.297   8.883  13.256  0.00  0.00    +0.000 A 
ATOM     33  H   UNL     1      53.613   7.461  10.749  0.00  0.00    +0.000 HD
ATOM     34  H   UNL     1      53.917  10.184  15.771  0.00  0.00    +0.000 HD
ENDBRANCH  20  23
ENDBRANCH  18  19
ENDBRANCH   4  18
TORSDOF 6
ENDMDL
