MODEL 1
REMARK VINA RESULT:    -8.981      0.000      0.000
REMARK INTER + INTRA:         -12.290
REMARK INTER:                 -11.606
REMARK INTRA:                  -0.684
REMARK UNBOUND:                -0.684
REMARK  Name = 
REMARK  6 active torsions:
REMARK  status: ('A' for Active; 'I' for Inactive)
REMARK    1  A    between atoms: C_1  and  C_2
REMARK    2  A    between atoms: C_2  and  N_3
REMARK    3  A    between atoms: C_2  and  C_16
REMARK    4  A    between atoms: C_4  and  C_6
REMARK    5  A    between atoms: C_19  and  O_20
REMARK    6  A    between atoms: O_20  and  C_21
REMARK                            x       y       z     vdW  Elec       q    Type
REMARK                         _______ _______ _______ _____ _____    ______ ____
ROOT
ATOM      1  C   UNL     1      43.012   5.326  13.324  0.00  0.00    +0.000 C 
ATOM      2  C   UNL     1      44.284   4.493  13.130  0.00  0.00    +0.000 C 
ENDROOT
BRANCH   2   3
ATOM      3  C   UNL     1      44.565   4.214  11.672  0.00  0.00    +0.000 A 
ATOM      4  C   UNL     1      45.312   5.062  10.845  0.00  0.00    +0.000 A 
ATOM      5  C   UNL     1      45.378   4.815   9.476  0.00  0.00    +0.000 A 
ATOM      6  C   UNL     1      44.738   3.693   8.983  0.00  0.00    +0.000 A 
ATOM      7  N   UNL     1      44.068   2.814   9.761  0.00  0.00    +0.000 NA
ATOM      8  C   UNL     1      44.007   3.084  11.081  0.00  0.00    +0.000 A 
BRANCH   6   9
ATOM      9  O   UNL     1      44.785   3.500   7.611  0.00  0.00    +0.000 OA
BRANCH   9  10
ATOM     10  C   UNL     1      45.931   2.926   7.105  0.00  0.00    +0.000 A 
ATOM     11  C   UNL     1      46.518   3.380   5.927  0.00  0.00    +0.000 A 
ATOM     12  C   UNL     1      47.649   2.734   5.450  0.00  0.00    +0.000 A 
ATOM     13  C   UNL     1      48.140   1.635   6.142  0.00  0.00    +0.000 A 
ATOM     14  C   UNL     1      47.469   1.223   7.283  0.00  0.00    +0.000 A 
ATOM     15  N   UNL     1      46.366   1.832   7.771  0.00  0.00    +0.000 NA
ENDBRANCH   9  10
ENDBRANCH   6   9
ENDBRANCH   2   3
BRANCH   2  16
ATOM     16  N   UNL     1      45.417   5.134  13.759  0.00  0.00    +0.000 N 
ATOM     17  C   UNL     1      46.505   4.418  14.198  0.00  0.00    +0.000 C 
ATOM     18  O   UNL     1      46.692   3.246  13.885  0.00  0.00    +0.000 OA
ATOM     19  H   UNL     1      45.235   6.043  14.173  0.00  0.00    +0.000 HD
BRANCH  17  20
ATOM     20  C   UNL     1      47.448   5.140  15.054  0.00  0.00    +0.000 A 
ATOM     21  C   UNL     1      48.182   6.206  14.552  0.00  0.00    +0.000 A 
ATOM     22  S   UNL     1      49.275   6.871  15.681  0.00  0.00    +0.000 S 
ATOM     23  C   UNL     1      48.847   5.718  16.856  0.00  0.00    +0.000 A 
ATOM     24  N   UNL     1      49.484   5.669  18.055  0.00  0.00    +0.000 NA
ATOM     25  C   UNL     1      49.097   4.707  18.826  0.00  0.00    +0.000 A 
ATOM     26  N   UNL     1      48.102   3.813  18.523  0.00  0.00    +0.000 N 
ATOM     27  C   UNL     1      47.372   3.880  17.361  0.00  0.00    +0.000 A 
ATOM     28  O   UNL     1      46.394   3.162  17.180  0.00  0.00    +0.000 OA
ATOM     29  C   UNL     1      47.832   4.885  16.421  0.00  0.00    +0.000 A 
ATOM     30  H   UNL     1      47.811   3.114  19.192  0.00  0.00    +0.000 HD
ENDBRANCH  17  20
ENDBRANCH   2  16
TORSDOF 5
ENDMDL
MODEL 2
REMARK VINA RESULT:    -7.901      1.673      2.065
REMARK INTER + INTRA:         -10.894
REMARK INTER:                 -11.173
REMARK INTRA:                   0.279
REMARK UNBOUND:                -0.684
REMARK  Name = 
REMARK  6 active torsions:
REMARK  status: ('A' for Active; 'I' for Inactive)
REMARK    1  A    between atoms: C_1  and  C_2
REMARK    2  A    between atoms: C_2  and  N_3
REMARK    3  A    between atoms: C_2  and  C_16
REMARK    4  A    between atoms: C_4  and  C_6
REMARK    5  A    between atoms: C_19  and  O_20
REMARK    6  A    between atoms: O_20  and  C_21
REMARK                            x       y       z     vdW  Elec       q    Type
REMARK                         _______ _______ _______ _____ _____    ______ ____
ROOT
ATOM      1  C   UNL     1      45.233   8.510  11.491  0.00  0.00    +0.000 C 
ATOM      2  C   UNL     1      44.938   7.248  12.310  0.00  0.00    +0.000 C 
ENDROOT
BRANCH   2   3
ATOM      3  C   UNL     1      44.982   5.997  11.464  0.00  0.00    +0.000 A 
ATOM      4  C   UNL     1      45.672   5.900  10.250  0.00  0.00    +0.000 A 
ATOM      5  C   UNL     1      45.519   4.768   9.453  0.00  0.00    +0.000 A 
ATOM      6  C   UNL     1      44.721   3.741   9.923  0.00  0.00    +0.000 A 
ATOM      7  N   UNL     1      44.097   3.770  11.122  0.00  0.00    +0.000 NA
ATOM      8  C   UNL     1      44.250   4.884  11.867  0.00  0.00    +0.000 A 
BRANCH   6   9
ATOM      9  O   UNL     1      44.552   2.648   9.088  0.00  0.00    +0.000 OA
BRANCH   9  10
ATOM     10  C   UNL     1      45.560   2.401   8.181  0.00  0.00    +0.000 A 
ATOM     11  C   UNL     1      45.808   3.257   7.111  0.00  0.00    +0.000 A 
ATOM     12  C   UNL     1      46.812   2.930   6.211  0.00  0.00    +0.000 A 
ATOM     13  C   UNL     1      47.515   1.745   6.385  0.00  0.00    +0.000 A 
ATOM     14  C   UNL     1      47.174   0.930   7.453  0.00  0.00    +0.000 A 
ATOM     15  N   UNL     1      46.202   1.221   8.345  0.00  0.00    +0.000 NA
ENDBRANCH   9  10
ENDBRANCH   6   9
ENDBRANCH   2   3
BRANCH   2  16
ATOM     16  N   UNL     1      45.846   7.142  13.432  0.00  0.00    +0.000 N 
ATOM     17  C   UNL     1      47.203   7.005  13.258  0.00  0.00    +0.000 C 
ATOM     18  O   UNL     1      47.750   7.193  12.174  0.00  0.00    +0.000 OA
ATOM     19  H   UNL     1      45.435   6.825  14.303  0.00  0.00    +0.000 HD
BRANCH  17  20
ATOM     20  C   UNL     1      47.971   6.635  14.448  0.00  0.00    +0.000 A 
ATOM     21  C   UNL     1      48.959   7.478  14.937  0.00  0.00    +0.000 A 
ATOM     22  S   UNL     1      49.788   6.841  16.287  0.00  0.00    +0.000 S 
ATOM     23  C   UNL     1      48.894   5.395  16.222  0.00  0.00    +0.000 A 
ATOM     24  N   UNL     1      49.166   4.364  17.063  0.00  0.00    +0.000 NA
ATOM     25  C   UNL     1      48.450   3.308  16.862  0.00  0.00    +0.000 A 
ATOM     26  N   UNL     1      47.456   3.203  15.922  0.00  0.00    +0.000 N 
ATOM     27  C   UNL     1      47.088   4.249  15.111  0.00  0.00    +0.000 A 
ATOM     28  O   UNL     1      46.103   4.176  14.384  0.00  0.00    +0.000 OA
ATOM     29  C   UNL     1      47.926   5.427  15.234  0.00  0.00    +0.000 A 
ATOM     30  H   UNL     1      46.896   2.366  15.850  0.00  0.00    +0.000 HD
ENDBRANCH  17  20
ENDBRANCH   2  16
TORSDOF 5
ENDMDL
MODEL 3
REMARK VINA RESULT:    -7.817      2.346      3.370
REMARK INTER + INTRA:         -10.786
REMARK INTER:                  -9.718
REMARK INTRA:                  -1.068
REMARK UNBOUND:                -0.684
REMARK  Name = 
REMARK  6 active torsions:
REMARK  status: ('A' for Active; 'I' for Inactive)
REMARK    1  A    between atoms: C_1  and  C_2
REMARK    2  A    between atoms: C_2  and  N_3
REMARK    3  A    between atoms: C_2  and  C_16
REMARK    4  A    between atoms: C_4  and  C_6
REMARK    5  A    between atoms: C_19  and  O_20
REMARK    6  A    between atoms: O_20  and  C_21
REMARK                            x       y       z     vdW  Elec       q    Type
REMARK                         _______ _______ _______ _____ _____    ______ ____
ROOT
ATOM      1  C   UNL     1      48.329   8.491  12.802  0.00  0.00    +0.000 C 
ATOM      2  C   UNL     1      47.383   7.646  13.661  0.00  0.00    +0.000 C 
ENDROOT
BRANCH   2   3
ATOM      3  C   UNL     1      46.442   6.814  12.822  0.00  0.00    +0.000 A 
ATOM      4  C   UNL     1      46.343   5.420  12.909  0.00  0.00    +0.000 A 
ATOM      5  C   UNL     1      45.576   4.719  11.982  0.00  0.00    +0.000 A 
ATOM      6  C   UNL     1      44.885   5.441  11.026  0.00  0.00    +0.000 A 
ATOM      7  N   UNL     1      44.900   6.792  10.956  0.00  0.00    +0.000 NA
ATOM      8  C   UNL     1      45.662   7.444  11.857  0.00  0.00    +0.000 A 
BRANCH   6   9
ATOM      9  O   UNL     1      44.167   4.713  10.090  0.00  0.00    +0.000 OA
BRANCH   9  10
ATOM     10  C   UNL     1      44.896   3.906   9.243  0.00  0.00    +0.000 A 
ATOM     11  C   UNL     1      44.918   2.522   9.391  0.00  0.00    +0.000 A 
ATOM     12  C   UNL     1      45.704   1.769   8.529  0.00  0.00    +0.000 A 
ATOM     13  C   UNL     1      46.468   2.421   7.570  0.00  0.00    +0.000 A 
ATOM     14  C   UNL     1      46.418   3.806   7.520  0.00  0.00    +0.000 A 
ATOM     15  N   UNL     1      45.664   4.565   8.345  0.00  0.00    +0.000 NA
ENDBRANCH   9  10
ENDBRANCH   6   9
ENDBRANCH   2   3
BRANCH   2  16
ATOM     16  N   UNL     1      48.130   6.811  14.576  0.00  0.00    +0.000 N 
ATOM     17  C   UNL     1      48.649   7.304  15.750  0.00  0.00    +0.000 C 
ATOM     18  O   UNL     1      48.326   8.397  16.205  0.00  0.00    +0.000 OA
ATOM     19  H   UNL     1      48.549   5.979  14.173  0.00  0.00    +0.000 HD
BRANCH  17  20
ATOM     20  C   UNL     1      49.607   6.441  16.443  0.00  0.00    +0.000 A 
ATOM     21  C   UNL     1      50.887   6.897  16.730  0.00  0.00    +0.000 A 
ATOM     22  S   UNL     1      51.875   5.725  17.478  0.00  0.00    +0.000 S 
ATOM     23  C   UNL     1      50.646   4.552  17.387  0.00  0.00    +0.000 A 
ATOM     24  N   UNL     1      50.867   3.272  17.785  0.00  0.00    +0.000 NA
ATOM     25  C   UNL     1      49.864   2.477  17.605  0.00  0.00    +0.000 A 
ATOM     26  N   UNL     1      48.646   2.855  17.100  0.00  0.00    +0.000 N 
ATOM     27  C   UNL     1      48.351   4.155  16.768  0.00  0.00    +0.000 A 
ATOM     28  O   UNL     1      47.212   4.491  16.459  0.00  0.00    +0.000 OA
ATOM     29  C   UNL     1      49.474   5.068  16.864  0.00  0.00    +0.000 A 
ATOM     30  H   UNL     1      47.885   2.194  17.032  0.00  0.00    +0.000 HD
ENDBRANCH  17  20
ENDBRANCH   2  16
TORSDOF 5
ENDMDL
MODEL 4
REMARK VINA RESULT:    -7.660      1.976      2.650
REMARK INTER + INTRA:         -10.583
REMARK INTER:                  -9.659
REMARK INTRA:                  -0.924
REMARK UNBOUND:                -0.684
REMARK  Name = 
REMARK  6 active torsions:
REMARK  status: ('A' for Active; 'I' for Inactive)
REMARK    1  A    between atoms: C_1  and  C_2
REMARK    2  A    between atoms: C_2  and  N_3
REMARK    3  A    between atoms: C_2  and  C_16
REMARK    4  A    between atoms: C_4  and  C_6
REMARK    5  A    between atoms: C_19  and  O_20
REMARK    6  A    between atoms: O_20  and  C_21
REMARK                            x       y       z     vdW  Elec       q    Type
REMARK                         _______ _______ _______ _____ _____    ______ ____
ROOT
ATOM      1  C   UNL     1      46.823   7.145  13.382  0.00  0.00    +0.000 C 
ATOM      2  C   UNL     1      46.328   5.777  13.866  0.00  0.00    +0.000 C 
ENDROOT
BRANCH   2   3
ATOM      3  C   UNL     1      45.709   4.969  12.750  0.00  0.00    +0.000 A 
ATOM      4  C   UNL     1      45.627   3.571  12.752  0.00  0.00    +0.000 A 
ATOM      5  C   UNL     1      45.197   2.899  11.610  0.00  0.00    +0.000 A 
ATOM      6  C   UNL     1      44.808   3.652  10.517  0.00  0.00    +0.000 A 
ATOM      7  N   UNL     1      44.806   5.004  10.505  0.00  0.00    +0.000 NA
ATOM      8  C   UNL     1      45.241   5.628  11.618  0.00  0.00    +0.000 A 
BRANCH   6   9
ATOM      9  O   UNL     1      44.428   2.954   9.381  0.00  0.00    +0.000 OA
BRANCH   9  10
ATOM     10  C   UNL     1      45.430   2.616   8.498  0.00  0.00    +0.000 A 
ATOM     11  C   UNL     1      45.888   3.511   7.535  0.00  0.00    +0.000 A 
ATOM     12  C   UNL     1      46.873   3.095   6.649  0.00  0.00    +0.000 A 
ATOM     13  C   UNL     1      47.345   1.793   6.728  0.00  0.00    +0.000 A 
ATOM     14  C   UNL     1      46.803   0.955   7.691  0.00  0.00    +0.000 A 
ATOM     15  N   UNL     1      45.844   1.330   8.566  0.00  0.00    +0.000 NA
ENDBRANCH   9  10
ENDBRANCH   6   9
ENDBRANCH   2   3
BRANCH   2  16
ATOM     16  N   UNL     1      47.398   5.042  14.502  0.00  0.00    +0.000 N 
ATOM     17  C   UNL     1      47.210   4.359  15.680  0.00  0.00    +0.000 C 
ATOM     18  O   UNL     1      46.093   4.137  16.141  0.00  0.00    +0.000 OA
ATOM     19  H   UNL     1      48.339   5.329  14.254  0.00  0.00    +0.000 HD
BRANCH  17  20
ATOM     20  C   UNL     1      48.422   3.892  16.356  0.00  0.00    +0.000 A 
ATOM     21  C   UNL     1      48.705   2.536  16.436  0.00  0.00    +0.000 A 
ATOM     22  S   UNL     1      50.123   2.188  17.319  0.00  0.00    +0.000 S 
ATOM     23  C   UNL     1      50.369   3.833  17.675  0.00  0.00    +0.000 A 
ATOM     24  N   UNL     1      51.385   4.231  18.485  0.00  0.00    +0.000 NA
ATOM     25  C   UNL     1      51.416   5.502  18.716  0.00  0.00    +0.000 A 
ATOM     26  N   UNL     1      50.548   6.418  18.176  0.00  0.00    +0.000 N 
ATOM     27  C   UNL     1      49.564   6.071  17.283  0.00  0.00    +0.000 A 
ATOM     28  O   UNL     1      48.899   6.924  16.704  0.00  0.00    +0.000 OA
ATOM     29  C   UNL     1      49.428   4.643  17.066  0.00  0.00    +0.000 A 
ATOM     30  H   UNL     1      50.659   7.406  18.356  0.00  0.00    +0.000 HD
ENDBRANCH  17  20
ENDBRANCH   2  16
TORSDOF 5
ENDMDL
MODEL 5
REMARK VINA RESULT:    -7.254      1.913      2.807
REMARK INTER + INTRA:         -10.058
REMARK INTER:                  -9.024
REMARK INTRA:                  -1.033
REMARK UNBOUND:                -0.684
REMARK  Name = 
REMARK  6 active torsions:
REMARK  status: ('A' for Active; 'I' for Inactive)
REMARK    1  A    between atoms: C_1  and  C_2
REMARK    2  A    between atoms: C_2  and  N_3
REMARK    3  A    between atoms: C_2  and  C_16
REMARK    4  A    between atoms: C_4  and  C_6
REMARK    5  A    between atoms: C_19  and  O_20
REMARK    6  A    between atoms: O_20  and  C_21
REMARK                            x       y       z     vdW  Elec       q    Type
REMARK                         _______ _______ _______ _____ _____    ______ ____
ROOT
ATOM      1  C   UNL     1      43.911   6.475  13.177  0.00  0.00    +0.000 C 
ATOM      2  C   UNL     1      44.915   5.317  13.149  0.00  0.00    +0.000 C 
ENDROOT
BRANCH   2   3
ATOM      3  C   UNL     1      44.993   4.663  11.790  0.00  0.00    +0.000 A 
ATOM      4  C   UNL     1      45.371   5.335  10.621  0.00  0.00    +0.000 A 
ATOM      5  C   UNL     1      45.251   4.702   9.386  0.00  0.00    +0.000 A 
ATOM      6  C   UNL     1      44.808   3.393   9.364  0.00  0.00    +0.000 A 
ATOM      7  N   UNL     1      44.503   2.689  10.478  0.00  0.00    +0.000 NA
ATOM      8  C   UNL     1      44.613   3.331  11.659  0.00  0.00    +0.000 A 
BRANCH   6   9
ATOM      9  O   UNL     1      44.656   2.805   8.118  0.00  0.00    +0.000 OA
BRANCH   9  10
ATOM     10  C   UNL     1      45.813   2.494   7.436  0.00  0.00    +0.000 A 
ATOM     11  C   UNL     1      46.188   3.177   6.282  0.00  0.00    +0.000 A 
ATOM     12  C   UNL     1      47.343   2.787   5.619  0.00  0.00    +0.000 A 
ATOM     13  C   UNL     1      48.070   1.710   6.107  0.00  0.00    +0.000 A 
ATOM     14  C   UNL     1      47.601   1.059   7.238  0.00  0.00    +0.000 A 
ATOM     15  N   UNL     1      46.481   1.414   7.904  0.00  0.00    +0.000 NA
ENDBRANCH   9  10
ENDBRANCH   6   9
ENDBRANCH   2   3
BRANCH   2  16
ATOM     16  N   UNL     1      46.222   5.762  13.582  0.00  0.00    +0.000 N 
ATOM     17  C   UNL     1      46.997   5.016  14.438  0.00  0.00    +0.000 C 
ATOM     18  O   UNL     1      46.743   3.845  14.704  0.00  0.00    +0.000 OA
ATOM     19  H   UNL     1      46.389   6.761  13.523  0.00  0.00    +0.000 HD
BRANCH  17  20
ATOM     20  C   UNL     1      48.161   5.695  15.010  0.00  0.00    +0.000 A 
ATOM     21  C   UNL     1      48.518   5.483  16.335  0.00  0.00    +0.000 A 
ATOM     22  S   UNL     1      49.858   6.414  16.834  0.00  0.00    +0.000 S 
ATOM     23  C   UNL     1      49.966   7.174  15.316  0.00  0.00    +0.000 A 
ATOM     24  N   UNL     1      50.867   8.164  15.089  0.00  0.00    +0.000 NA
ATOM     25  C   UNL     1      50.797   8.690  13.911  0.00  0.00    +0.000 A 
ATOM     26  N   UNL     1      49.933   8.288  12.924  0.00  0.00    +0.000 N 
ATOM     27  C   UNL     1      49.066   7.233  13.080  0.00  0.00    +0.000 A 
ATOM     28  O   UNL     1      48.412   6.801  12.137  0.00  0.00    +0.000 OA
ATOM     29  C   UNL     1      49.042   6.671  14.417  0.00  0.00    +0.000 A 
ATOM     30  H   UNL     1      49.964   8.707  12.006  0.00  0.00    +0.000 HD
ENDBRANCH  17  20
ENDBRANCH   2  16
TORSDOF 5
ENDMDL
MODEL 6
REMARK VINA RESULT:    -7.189      2.816      3.919
REMARK INTER + INTRA:          -9.974
REMARK INTER:                  -9.064
REMARK INTRA:                  -0.910
REMARK UNBOUND:                -0.684
REMARK  Name = 
REMARK  6 active torsions:
REMARK  status: ('A' for Active; 'I' for Inactive)
REMARK    1  A    between atoms: C_1  and  C_2
REMARK    2  A    between atoms: C_2  and  N_3
REMARK    3  A    between atoms: C_2  and  C_16
REMARK    4  A    between atoms: C_4  and  C_6
REMARK    5  A    between atoms: C_19  and  O_20
REMARK    6  A    between atoms: O_20  and  C_21
REMARK                            x       y       z     vdW  Elec       q    Type
REMARK                         _______ _______ _______ _____ _____    ______ ____
ROOT
ATOM      1  C   UNL     1      48.998   8.019  12.764  0.00  0.00    +0.000 C 
ATOM      2  C   UNL     1      47.575   8.200  13.303  0.00  0.00    +0.000 C 
ENDROOT
BRANCH   2   3
ATOM      3  C   UNL     1      46.599   7.236  12.671  0.00  0.00    +0.000 A 
ATOM      4  C   UNL     1      46.645   5.848  12.853  0.00  0.00    +0.000 A 
ATOM      5  C   UNL     1      45.816   5.021  12.100  0.00  0.00    +0.000 A 
ATOM      6  C   UNL     1      44.923   5.614  11.225  0.00  0.00    +0.000 A 
ATOM      7  N   UNL     1      44.801   6.952  11.076  0.00  0.00    +0.000 NA
ATOM      8  C   UNL     1      45.627   7.728  11.807  0.00  0.00    +0.000 A 
BRANCH   6   9
ATOM      9  O   UNL     1      44.143   4.763  10.457  0.00  0.00    +0.000 OA
BRANCH   9  10
ATOM     10  C   UNL     1      44.802   3.991   9.525  0.00  0.00    +0.000 A 
ATOM     11  C   UNL     1      44.831   2.602   9.615  0.00  0.00    +0.000 A 
ATOM     12  C   UNL     1      45.547   1.884   8.666  0.00  0.00    +0.000 A 
ATOM     13  C   UNL     1      46.237   2.574   7.679  0.00  0.00    +0.000 A 
ATOM     14  C   UNL     1      46.189   3.960   7.690  0.00  0.00    +0.000 A 
ATOM     15  N   UNL     1      45.503   4.685   8.599  0.00  0.00    +0.000 NA
ENDBRANCH   9  10
ENDBRANCH   6   9
ENDBRANCH   2   3
BRANCH   2  16
ATOM     16  N   UNL     1      47.555   8.082  14.745  0.00  0.00    +0.000 N 
ATOM     17  C   UNL     1      48.260   8.942  15.553  0.00  0.00    +0.000 C 
ATOM     18  O   UNL     1      48.753   9.985  15.134  0.00  0.00    +0.000 OA
ATOM     19  H   UNL     1      47.307   7.168  15.109  0.00  0.00    +0.000 HD
BRANCH  17  20
ATOM     20  C   UNL     1      48.378   8.552  16.960  0.00  0.00    +0.000 A 
ATOM     21  C   UNL     1      47.989   9.425  17.967  0.00  0.00    +0.000 A 
ATOM     22  S   UNL     1      48.268   8.818  19.537  0.00  0.00    +0.000 S 
ATOM     23  C   UNL     1      48.973   7.397  18.921  0.00  0.00    +0.000 A 
ATOM     24  N   UNL     1      49.514   6.466  19.750  0.00  0.00    +0.000 NA
ATOM     25  C   UNL     1      50.066   5.469  19.143  0.00  0.00    +0.000 A 
ATOM     26  N   UNL     1      50.092   5.296  17.782  0.00  0.00    +0.000 N 
ATOM     27  C   UNL     1      49.481   6.166  16.912  0.00  0.00    +0.000 A 
ATOM     28  O   UNL     1      49.391   5.913  15.715  0.00  0.00    +0.000 OA
ATOM     29  C   UNL     1      48.928   7.352  17.540  0.00  0.00    +0.000 A 
ATOM     30  H   UNL     1      50.495   4.466  17.373  0.00  0.00    +0.000 HD
ENDBRANCH  17  20
ENDBRANCH   2  16
TORSDOF 5
ENDMDL
MODEL 7
REMARK VINA RESULT:    -6.601      2.575      4.102
REMARK INTER + INTRA:          -9.215
REMARK INTER:                  -8.501
REMARK INTRA:                  -0.714
REMARK UNBOUND:                -0.684
REMARK  Name = 
REMARK  6 active torsions:
REMARK  status: ('A' for Active; 'I' for Inactive)
REMARK    1  A    between atoms: C_1  and  C_2
REMARK    2  A    between atoms: C_2  and  N_3
REMARK    3  A    between atoms: C_2  and  C_16
REMARK    4  A    between atoms: C_4  and  C_6
REMARK    5  A    between atoms: C_19  and  O_20
REMARK    6  A    between atoms: O_20  and  C_21
REMARK                            x       y       z     vdW  Elec       q    Type
REMARK                         _______ _______ _______ _____ _____    ______ ____
ROOT
ATOM      1  C   UNL     1      50.000   7.769  13.429  0.00  0.00    +0.000 C 
ATOM      2  C   UNL     1      48.666   7.535  14.147  0.00  0.00    +0.000 C 
ENDROOT
BRANCH   2   3
ATOM      3  C   UNL     1      47.653   6.853  13.257  0.00  0.00    +0.000 A 
ATOM      4  C   UNL     1      47.051   7.462  12.150  0.00  0.00    +0.000 A 
ATOM      5  C   UNL     1      46.005   6.822  11.489  0.00  0.00    +0.000 A 
ATOM      6  C   UNL     1      45.631   5.564  11.924  0.00  0.00    +0.000 A 
ATOM      7  N   UNL     1      46.237   4.915  12.943  0.00  0.00    +0.000 NA
ATOM      8  C   UNL     1      47.237   5.564  13.575  0.00  0.00    +0.000 A 
BRANCH   6   9
ATOM      9  O   UNL     1      44.558   4.972  11.275  0.00  0.00    +0.000 OA
BRANCH   9  10
ATOM     10  C   UNL     1      44.854   4.173  10.191  0.00  0.00    +0.000 A 
ATOM     11  C   UNL     1      45.519   4.673   9.074  0.00  0.00    +0.000 A 
ATOM     12  C   UNL     1      45.751   3.826   7.999  0.00  0.00    +0.000 A 
ATOM     13  C   UNL     1      45.285   2.520   8.057  0.00  0.00    +0.000 A 
ATOM     14  C   UNL     1      44.596   2.117   9.191  0.00  0.00    +0.000 A 
ATOM     15  N   UNL     1      44.354   2.918  10.251  0.00  0.00    +0.000 NA
ENDBRANCH   9  10
ENDBRANCH   6   9
ENDBRANCH   2   3
BRANCH   2  16
ATOM     16  N   UNL     1      48.866   6.787  15.368  0.00  0.00    +0.000 N 
ATOM     17  C   UNL     1      49.223   7.400  16.546  0.00  0.00    +0.000 C 
ATOM     18  O   UNL     1      49.170   8.617  16.696  0.00  0.00    +0.000 OA
ATOM     19  H   UNL     1      49.078   5.801  15.251  0.00  0.00    +0.000 HD
BRANCH  17  20
ATOM     20  C   UNL     1      49.659   6.515  17.627  0.00  0.00    +0.000 A 
ATOM     21  C   UNL     1      50.847   5.805  17.519  0.00  0.00    +0.000 A 
ATOM     22  S   UNL     1      51.148   4.778  18.848  0.00  0.00    +0.000 S 
ATOM     23  C   UNL     1      49.672   5.201  19.579  0.00  0.00    +0.000 A 
ATOM     24  N   UNL     1      49.261   4.604  20.729  0.00  0.00    +0.000 NA
ATOM     25  C   UNL     1      48.096   4.980  21.138  0.00  0.00    +0.000 A 
ATOM     26  N   UNL     1      47.319   5.930  20.525  0.00  0.00    +0.000 N 
ATOM     27  C   UNL     1      47.732   6.622  19.412  0.00  0.00    +0.000 A 
ATOM     28  O   UNL     1      47.084   7.566  18.971  0.00  0.00    +0.000 OA
ATOM     29  C   UNL     1      48.994   6.169  18.859  0.00  0.00    +0.000 A 
ATOM     30  H   UNL     1      46.437   6.217  20.925  0.00  0.00    +0.000 HD
ENDBRANCH  17  20
ENDBRANCH   2  16
TORSDOF 5
ENDMDL
MODEL 8
REMARK VINA RESULT:    -6.601      3.253      3.859
REMARK INTER + INTRA:          -9.214
REMARK INTER:                  -9.979
REMARK INTRA:                   0.764
REMARK UNBOUND:                -0.684
REMARK  Name = 
REMARK  6 active torsions:
REMARK  status: ('A' for Active; 'I' for Inactive)
REMARK    1  A    between atoms: C_1  and  C_2
REMARK    2  A    between atoms: C_2  and  N_3
REMARK    3  A    between atoms: C_2  and  C_16
REMARK    4  A    between atoms: C_4  and  C_6
REMARK    5  A    between atoms: C_19  and  O_20
REMARK    6  A    between atoms: O_20  and  C_21
REMARK                            x       y       z     vdW  Elec       q    Type
REMARK                         _______ _______ _______ _____ _____    ______ ____
ROOT
ATOM      1  C   UNL     1      42.258   6.658  11.773  0.00  0.00    +0.000 C 
ATOM      2  C   UNL     1      43.472   5.943  12.376  0.00  0.00    +0.000 C 
ENDROOT
BRANCH   2   3
ATOM      3  C   UNL     1      43.977   4.831  11.487  0.00  0.00    +0.000 A 
ATOM      4  C   UNL     1      44.883   5.022  10.436  0.00  0.00    +0.000 A 
ATOM      5  C   UNL     1      45.163   3.975   9.562  0.00  0.00    +0.000 A 
ATOM      6  C   UNL     1      44.569   2.749   9.800  0.00  0.00    +0.000 A 
ATOM      7  N   UNL     1      43.747   2.508  10.846  0.00  0.00    +0.000 NA
ATOM      8  C   UNL     1      43.481   3.544  11.668  0.00  0.00    +0.000 A 
BRANCH   6   9
ATOM      9  O   UNL     1      44.833   1.739   8.887  0.00  0.00    +0.000 OA
BRANCH   9  10
ATOM     10  C   UNL     1      45.808   1.994   7.948  0.00  0.00    +0.000 A 
ATOM     11  C   UNL     1      45.668   3.007   7.003  0.00  0.00    +0.000 A 
ATOM     12  C   UNL     1      46.669   3.186   6.059  0.00  0.00    +0.000 A 
ATOM     13  C   UNL     1      47.761   2.329   6.064  0.00  0.00    +0.000 A 
ATOM     14  C   UNL     1      47.800   1.320   7.013  0.00  0.00    +0.000 A 
ATOM     15  N   UNL     1      46.842   1.121   7.944  0.00  0.00    +0.000 NA
ENDBRANCH   9  10
ENDBRANCH   6   9
ENDBRANCH   2   3
BRANCH   2  16
ATOM     16  N   UNL     1      44.528   6.887  12.670  0.00  0.00    +0.000 N 
ATOM     17  C   UNL     1      44.800   7.952  11.845  0.00  0.00    +0.000 C 
ATOM     18  O   UNL     1      44.037   8.303  10.949  0.00  0.00    +0.000 OA
ATOM     19  H   UNL     1      45.262   6.550  13.285  0.00  0.00    +0.000 HD
BRANCH  17  20
ATOM     20  C   UNL     1      46.053   8.664  12.104  0.00  0.00    +0.000 A 
ATOM     21  C   UNL     1      46.110  10.047  12.004  0.00  0.00    +0.000 A 
ATOM     22  S   UNL     1      47.670  10.685  12.274  0.00  0.00    +0.000 S 
ATOM     23  C   UNL     1      48.330   9.129  12.473  0.00  0.00    +0.000 A 
ATOM     24  N   UNL     1      49.665   8.951  12.652  0.00  0.00    +0.000 NA
ATOM     25  C   UNL     1      50.032   7.715  12.730  0.00  0.00    +0.000 A 
ATOM     26  N   UNL     1      49.180   6.641  12.686  0.00  0.00    +0.000 N 
ATOM     27  C   UNL     1      47.816   6.777  12.595  0.00  0.00    +0.000 A 
ATOM     28  O   UNL     1      47.070   5.810  12.705  0.00  0.00    +0.000 OA
ATOM     29  C   UNL     1      47.362   8.143  12.410  0.00  0.00    +0.000 A 
ATOM     30  H   UNL     1      49.527   5.699  12.804  0.00  0.00    +0.000 HD
ENDBRANCH  17  20
ENDBRANCH   2  16
TORSDOF 5
ENDMDL
MODEL 9
REMARK VINA RESULT:    -6.391      3.255      5.023
REMARK INTER + INTRA:          -8.943
REMARK INTER:                  -7.743
REMARK INTRA:                  -1.200
REMARK UNBOUND:                -0.684
REMARK  Name = 
REMARK  6 active torsions:
REMARK  status: ('A' for Active; 'I' for Inactive)
REMARK    1  A    between atoms: C_1  and  C_2
REMARK    2  A    between atoms: C_2  and  N_3
REMARK    3  A    between atoms: C_2  and  C_16
REMARK    4  A    between atoms: C_4  and  C_6
REMARK    5  A    between atoms: C_19  and  O_20
REMARK    6  A    between atoms: O_20  and  C_21
REMARK                            x       y       z     vdW  Elec       q    Type
REMARK                         _______ _______ _______ _____ _____    ______ ____
ROOT
ATOM      1  C   UNL     1      50.326   8.315  12.945  0.00  0.00    +0.000 C 
ATOM      2  C   UNL     1      49.056   8.488  13.785  0.00  0.00    +0.000 C 
ENDROOT
BRANCH   2   3
ATOM      3  C   UNL     1      47.805   8.168  13.000  0.00  0.00    +0.000 A 
ATOM      4  C   UNL     1      46.623   8.915  13.077  0.00  0.00    +0.000 A 
ATOM      5  C   UNL     1      45.468   8.452  12.452  0.00  0.00    +0.000 A 
ATOM      6  C   UNL     1      45.546   7.281  11.720  0.00  0.00    +0.000 A 
ATOM      7  N   UNL     1      46.687   6.573  11.564  0.00  0.00    +0.000 NA
ATOM      8  C   UNL     1      47.787   7.036  12.192  0.00  0.00    +0.000 A 
BRANCH   6   9
ATOM      9  O   UNL     1      44.370   6.823  11.147  0.00  0.00    +0.000 OA
BRANCH   9  10
ATOM     10  C   UNL     1      44.013   5.521  11.423  0.00  0.00    +0.000 A 
ATOM     11  C   UNL     1      43.711   5.104  12.717  0.00  0.00    +0.000 A 
ATOM     12  C   UNL     1      43.399   3.769  12.934  0.00  0.00    +0.000 A 
ATOM     13  C   UNL     1      43.429   2.886  11.864  0.00  0.00    +0.000 A 
ATOM     14  C   UNL     1      43.782   3.378  10.616  0.00  0.00    +0.000 A 
ATOM     15  N   UNL     1      44.092   4.670  10.374  0.00  0.00    +0.000 NA
ENDBRANCH   9  10
ENDBRANCH   6   9
ENDBRANCH   2   3
BRANCH   2  16
ATOM     16  N   UNL     1      49.126   7.690  14.990  0.00  0.00    +0.000 N 
ATOM     17  C   UNL     1      48.721   8.178  16.209  0.00  0.00    +0.000 C 
ATOM     18  O   UNL     1      48.071   9.213  16.321  0.00  0.00    +0.000 OA
ATOM     19  H   UNL     1      49.788   6.921  14.971  0.00  0.00    +0.000 HD
BRANCH  17  20
ATOM     20  C   UNL     1      49.095   7.381  17.379  0.00  0.00    +0.000 A 
ATOM     21  C   UNL     1      49.680   7.985  18.484  0.00  0.00    +0.000 A 
ATOM     22  S   UNL     1      50.107   6.883  19.714  0.00  0.00    +0.000 S 
ATOM     23  C   UNL     1      49.581   5.558  18.785  0.00  0.00    +0.000 A 
ATOM     24  N   UNL     1      49.743   4.284  19.227  0.00  0.00    +0.000 NA
ATOM     25  C   UNL     1      49.353   3.377  18.393  0.00  0.00    +0.000 A 
ATOM     26  N   UNL     1      48.776   3.630  17.174  0.00  0.00    +0.000 N 
ATOM     27  C   UNL     1      48.512   4.902  16.727  0.00  0.00    +0.000 A 
ATOM     28  O   UNL     1      47.865   5.097  15.704  0.00  0.00    +0.000 OA
ATOM     29  C   UNL     1      49.019   5.956  17.586  0.00  0.00    +0.000 A 
ATOM     30  H   UNL     1      48.444   2.875  16.591  0.00  0.00    +0.000 HD
ENDBRANCH  17  20
ENDBRANCH   2  16
TORSDOF 5
ENDMDL
