MODEL 1
REMARK VINA RESULT:    -8.347      0.000      0.000
REMARK INTER + INTRA:         -14.369
REMARK INTER:                 -13.227
REMARK INTRA:                  -1.142
REMARK UNBOUND:                -1.142
REMARK  Name = 
REMARK  11 active torsions:
REMARK  status: ('A' for Active; 'I' for Inactive)
REMARK    1  A    between atoms: N_1  and  C_2
REMARK    2  A    between atoms: C_2  and  C_3
REMARK    3  A    between atoms: C_3  and  C_4
REMARK    4  A    between atoms: C_4  and  N_5
REMARK    5  A    between atoms: C_4  and  C_23
REMARK    6  A    between atoms: N_5  and  C_6
REMARK    7  A    between atoms: C_6  and  C_7
REMARK    8  A    between atoms: C_10  and  C_11
REMARK    9  A    between atoms: C_11  and  O_12
REMARK   10  A    between atoms: C_11  and  C_13
REMARK   11  A    between atoms: C_13  and  N_14
REMARK                            x       y       z     vdW  Elec       q    Type
REMARK                         _______ _______ _______ _____ _____    ______ ____
ROOT
ATOM      1  N   UNL     1      48.543   5.381  15.789  0.00  0.00    +0.000 NA
ATOM      2  H   UNL     1      47.665   5.016  16.161  0.00  0.00    +0.000 HD
ENDROOT
BRANCH   1   3
ATOM      3  C   UNL     1      49.247   6.105  16.874  0.00  0.00    +0.000 C 
BRANCH   3   4
ATOM      4  C   UNL     1      50.445   5.287  17.362  0.00  0.00    +0.000 A 
ATOM      5  C   UNL     1      51.559   5.902  17.921  0.00  0.00    +0.000 A 
ATOM      6  S   UNL     1      52.774   4.819  18.425  0.00  0.00    +0.000 S 
ATOM      7  C   UNL     1      51.895   3.483  17.851  0.00  0.00    +0.000 A 
ATOM      8  N   UNL     1      52.430   2.235  17.895  0.00  0.00    +0.000 NA
ATOM      9  C   UNL     1      51.657   1.312  17.424  0.00  0.00    +0.000 A 
ATOM     10  N   UNL     1      50.384   1.522  16.957  0.00  0.00    +0.000 N 
ATOM     11  C   UNL     1      49.781   2.765  16.942  0.00  0.00    +0.000 A 
ATOM     12  O   UNL     1      48.605   2.906  16.610  0.00  0.00    +0.000 OA
ATOM     13  C   UNL     1      50.645   3.850  17.372  0.00  0.00    +0.000 A 
ATOM     14  H   UNL     1      49.821   0.744  16.652  0.00  0.00    +0.000 HD
ENDBRANCH   3   4
BRANCH   3  15
ATOM     15  C   UNL     1      48.333   6.574  18.032  0.00  0.00    +0.000 C 
BRANCH  15  16
ATOM     16  C   UNL     1      47.732   5.407  18.823  0.00  0.00    +0.000 C 
BRANCH  16  17
ATOM     17  N   UNL     1      46.654   4.780  18.062  0.00  0.00    +0.000 NA
ATOM     18  H   UNL     1      46.315   3.961  18.567  0.00  0.00    +0.000 HD
ATOM     19  H   UNL     1      47.017   4.435  17.173  0.00  0.00    +0.000 HD
ENDBRANCH  16  17
ENDBRANCH  15  16
ENDBRANCH   3  15
ENDBRANCH   1   3
BRANCH   1  20
ATOM     20  C   UNL     1      48.259   6.284  14.645  0.00  0.00    +0.000 C 
BRANCH  20  21
ATOM     21  C   UNL     1      47.100   5.902  13.731  0.00  0.00    +0.000 A 
ATOM     22  C   UNL     1      46.948   6.503  12.487  0.00  0.00    +0.000 A 
ATOM     23  C   UNL     1      45.944   6.051  11.623  0.00  0.00    +0.000 A 
ATOM     24  C   UNL     1      45.096   5.003  11.998  0.00  0.00    +0.000 A 
ATOM     25  C   UNL     1      45.349   4.438  13.245  0.00  0.00    +0.000 A 
ATOM     26  N   UNL     1      46.316   4.856  14.105  0.00  0.00    +0.000 NA
BRANCH  24  27
ATOM     27  C   UNL     1      43.952   4.474  11.146  0.00  0.00    +0.000 C 
BRANCH  27  28
ATOM     28  O   UNL     1      43.454   5.551  10.334  0.00  0.00    +0.000 OA
ATOM     29  H   UNL     1      43.100   6.228  10.936  0.00  0.00    +0.000 HD
ENDBRANCH  27  28
BRANCH  27  30
ATOM     30  C   UNL     1      44.332   3.293  10.218  0.00  0.00    +0.000 C 
BRANCH  30  31
ATOM     31  N   UNL     1      44.309   3.656   8.801  0.00  0.00    +0.000 N 
ATOM     32  C   UNL     1      45.325   3.039   8.083  0.00  0.00    +0.000 A 
ATOM     33  N   UNL     1      45.725   1.801   8.427  0.00  0.00    +0.000 NA
ATOM     34  C   UNL     1      46.725   1.248   7.717  0.00  0.00    +0.000 A 
ATOM     35  C   UNL     1      47.350   1.885   6.680  0.00  0.00    +0.000 A 
ATOM     36  C   UNL     1      46.879   3.146   6.399  0.00  0.00    +0.000 A 
ATOM     37  N   UNL     1      45.882   3.748   7.087  0.00  0.00    +0.000 NA
ATOM     38  H   UNL     1      44.366   4.656   8.619  0.00  0.00    +0.000 HD
ENDBRANCH  30  31
ENDBRANCH  27  30
ENDBRANCH  24  27
ENDBRANCH  20  21
ENDBRANCH   1  20
TORSDOF 11
ENDMDL
MODEL 2
REMARK VINA RESULT:    -8.042      1.908      2.912
REMARK INTER + INTRA:         -13.885
REMARK INTER:                 -12.684
REMARK INTRA:                  -1.201
REMARK UNBOUND:                -1.142
REMARK  Name = 
REMARK  11 active torsions:
REMARK  status: ('A' for Active; 'I' for Inactive)
REMARK    1  A    between atoms: N_1  and  C_2
REMARK    2  A    between atoms: C_2  and  C_3
REMARK    3  A    between atoms: C_3  and  C_4
REMARK    4  A    between atoms: C_4  and  N_5
REMARK    5  A    between atoms: C_4  and  C_23
REMARK    6  A    between atoms: N_5  and  C_6
REMARK    7  A    between atoms: C_6  and  C_7
REMARK    8  A    between atoms: C_10  and  C_11
REMARK    9  A    between atoms: C_11  and  O_12
REMARK   10  A    between atoms: C_11  and  C_13
REMARK   11  A    between atoms: C_13  and  N_14
REMARK                            x       y       z     vdW  Elec       q    Type
REMARK                         _______ _______ _______ _____ _____    ______ ____
ROOT
ATOM      1  N   UNL     1      48.388   4.922  15.658  0.00  0.00    +0.000 NA
ATOM      2  H   UNL     1      48.503   4.043  15.149  0.00  0.00    +0.000 HD
ENDROOT
BRANCH   1   3
ATOM      3  C   UNL     1      47.582   4.657  16.873  0.00  0.00    +0.000 C 
BRANCH   3   4
ATOM      4  C   UNL     1      48.084   5.519  18.035  0.00  0.00    +0.000 A 
ATOM      5  C   UNL     1      47.205   6.048  18.972  0.00  0.00    +0.000 A 
ATOM      6  S   UNL     1      47.960   6.955  20.201  0.00  0.00    +0.000 S 
ATOM      7  C   UNL     1      49.489   6.740  19.493  0.00  0.00    +0.000 A 
ATOM      8  N   UNL     1      50.583   7.354  20.014  0.00  0.00    +0.000 NA
ATOM      9  C   UNL     1      51.681   7.108  19.378  0.00  0.00    +0.000 A 
ATOM     10  N   UNL     1      51.786   6.269  18.297  0.00  0.00    +0.000 N 
ATOM     11  C   UNL     1      50.710   5.582  17.766  0.00  0.00    +0.000 A 
ATOM     12  O   UNL     1      50.853   4.762  16.862  0.00  0.00    +0.000 OA
ATOM     13  C   UNL     1      49.437   5.902  18.388  0.00  0.00    +0.000 A 
ATOM     14  H   UNL     1      52.686   6.085  17.883  0.00  0.00    +0.000 HD
ENDBRANCH   3   4
BRANCH   3  15
ATOM     15  C   UNL     1      47.456   3.161  17.248  0.00  0.00    +0.000 C 
BRANCH  15  16
ATOM     16  C   UNL     1      48.811   2.447  17.297  0.00  0.00    +0.000 C 
BRANCH  16  17
ATOM     17  N   UNL     1      49.220   2.043  15.954  0.00  0.00    +0.000 NA
ATOM     18  H   UNL     1      50.234   1.927  15.928  0.00  0.00    +0.000 HD
ATOM     19  H   UNL     1      49.004   2.787  15.291  0.00  0.00    +0.000 HD
ENDBRANCH  16  17
ENDBRANCH  15  16
ENDBRANCH   3  15
ENDBRANCH   1   3
BRANCH   1  20
ATOM     20  C   UNL     1      47.718   5.916  14.782  0.00  0.00    +0.000 C 
BRANCH  20  21
ATOM     21  C   UNL     1      46.764   5.376  13.722  0.00  0.00    +0.000 A 
ATOM     22  C   UNL     1      46.600   4.007  13.546  0.00  0.00    +0.000 A 
ATOM     23  C   UNL     1      45.633   3.540  12.647  0.00  0.00    +0.000 A 
ATOM     24  C   UNL     1      44.833   4.436  11.928  0.00  0.00    +0.000 A 
ATOM     25  C   UNL     1      45.044   5.785  12.200  0.00  0.00    +0.000 A 
ATOM     26  N   UNL     1      45.974   6.266  13.067  0.00  0.00    +0.000 NA
BRANCH  24  27
ATOM     27  C   UNL     1      43.790   4.024  10.901  0.00  0.00    +0.000 C 
BRANCH  27  28
ATOM     28  O   UNL     1      43.435   5.180  10.124  0.00  0.00    +0.000 OA
ATOM     29  H   UNL     1      42.476   5.142   9.968  0.00  0.00    +0.000 HD
ENDBRANCH  27  28
BRANCH  27  30
ATOM     30  C   UNL     1      44.245   2.902   9.934  0.00  0.00    +0.000 C 
BRANCH  30  31
ATOM     31  N   UNL     1      44.355   3.359   8.548  0.00  0.00    +0.000 N 
ATOM     32  C   UNL     1      45.469   2.834   7.908  0.00  0.00    +0.000 A 
ATOM     33  N   UNL     1      45.890   1.593   8.216  0.00  0.00    +0.000 NA
ATOM     34  C   UNL     1      46.985   1.131   7.585  0.00  0.00    +0.000 A 
ATOM     35  C   UNL     1      47.684   1.861   6.664  0.00  0.00    +0.000 A 
ATOM     36  C   UNL     1      47.186   3.118   6.413  0.00  0.00    +0.000 A 
ATOM     37  N   UNL     1      46.094   3.631   7.024  0.00  0.00    +0.000 NA
ATOM     38  H   UNL     1      44.382   4.370   8.436  0.00  0.00    +0.000 HD
ENDBRANCH  30  31
ENDBRANCH  27  30
ENDBRANCH  24  27
ENDBRANCH  20  21
ENDBRANCH   1  20
TORSDOF 11
ENDMDL
MODEL 3
REMARK VINA RESULT:    -7.679      1.974      2.900
REMARK INTER + INTRA:         -13.310
REMARK INTER:                 -12.098
REMARK INTRA:                  -1.212
REMARK UNBOUND:                -1.142
REMARK  Name = 
REMARK  11 active torsions:
REMARK  status: ('A' for Active; 'I' for Inactive)
REMARK    1  A    between atoms: N_1  and  C_2
REMARK    2  A    between atoms: C_2  and  C_3
REMARK    3  A    between atoms: C_3  and  C_4
REMARK    4  A    between atoms: C_4  and  N_5
REMARK    5  A    between atoms: C_4  and  C_23
REMARK    6  A    between atoms: N_5  and  C_6
REMARK    7  A    between atoms: C_6  and  C_7
REMARK    8  A    between atoms: C_10  and  C_11
REMARK    9  A    between atoms: C_11  and  O_12
REMARK   10  A    between atoms: C_11  and  C_13
REMARK   11  A    between atoms: C_13  and  N_14
REMARK                            x       y       z     vdW  Elec       q    Type
REMARK                         _______ _______ _______ _____ _____    ______ ____
ROOT
ATOM      1  N   UNL     1      48.556   6.113  15.120  0.00  0.00    +0.000 NA
ATOM      2  H   UNL     1      47.674   6.089  15.633  0.00  0.00    +0.000 HD
ENDROOT
BRANCH   1   3
ATOM      3  C   UNL     1      49.524   6.932  15.888  0.00  0.00    +0.000 C 
BRANCH   3   4
ATOM      4  C   UNL     1      49.099   7.008  17.357  0.00  0.00    +0.000 A 
ATOM      5  C   UNL     1      48.712   8.211  17.934  0.00  0.00    +0.000 A 
ATOM      6  S   UNL     1      48.251   8.083  19.569  0.00  0.00    +0.000 S 
ATOM      7  C   UNL     1      48.618   6.424  19.598  0.00  0.00    +0.000 A 
ATOM      8  N   UNL     1      48.528   5.718  20.754  0.00  0.00    +0.000 NA
ATOM      9  C   UNL     1      48.839   4.468  20.636  0.00  0.00    +0.000 A 
ATOM     10  N   UNL     1      49.186   3.858  19.457  0.00  0.00    +0.000 N 
ATOM     11  C   UNL     1      49.239   4.526  18.248  0.00  0.00    +0.000 A 
ATOM     12  O   UNL     1      49.457   3.932  17.194  0.00  0.00    +0.000 OA
ATOM     13  C   UNL     1      48.993   5.953  18.347  0.00  0.00    +0.000 A 
ATOM     14  H   UNL     1      49.366   2.867  19.432  0.00  0.00    +0.000 HD
ENDBRANCH   3   4
BRANCH   3  15
ATOM     15  C   UNL     1      49.815   8.324  15.277  0.00  0.00    +0.000 C 
BRANCH  15  16
ATOM     16  C   UNL     1      51.306   8.679  15.297  0.00  0.00    +0.000 C 
BRANCH  16  17
ATOM     17  N   UNL     1      52.101   7.559  14.800  0.00  0.00    +0.000 NA
ATOM     18  H   UNL     1      51.920   7.428  13.804  0.00  0.00    +0.000 HD
ATOM     19  H   UNL     1      51.804   6.697  15.257  0.00  0.00    +0.000 HD
ENDBRANCH  16  17
ENDBRANCH  15  16
ENDBRANCH   3  15
ENDBRANCH   1   3
BRANCH   1  20
ATOM     20  C   UNL     1      48.327   6.688  13.770  0.00  0.00    +0.000 C 
BRANCH  20  21
ATOM     21  C   UNL     1      47.111   6.185  12.999  0.00  0.00    +0.000 A 
ATOM     22  C   UNL     1      46.863   6.620  11.703  0.00  0.00    +0.000 A 
ATOM     23  C   UNL     1      45.806   6.055  10.978  0.00  0.00    +0.000 A 
ATOM     24  C   UNL     1      45.003   5.059  11.545  0.00  0.00    +0.000 A 
ATOM     25  C   UNL     1      45.353   4.661  12.832  0.00  0.00    +0.000 A 
ATOM     26  N   UNL     1      46.372   5.192  13.559  0.00  0.00    +0.000 NA
BRANCH  24  27
ATOM     27  C   UNL     1      43.809   4.419  10.853  0.00  0.00    +0.000 C 
BRANCH  27  28
ATOM     28  O   UNL     1      43.148   5.423  10.064  0.00  0.00    +0.000 OA
ATOM     29  H   UNL     1      43.665   6.243  10.145  0.00  0.00    +0.000 HD
ENDBRANCH  27  28
BRANCH  27  30
ATOM     30  C   UNL     1      44.162   3.224   9.933  0.00  0.00    +0.000 C 
BRANCH  30  31
ATOM     31  N   UNL     1      44.360   3.620   8.538  0.00  0.00    +0.000 N 
ATOM     32  C   UNL     1      45.444   2.977   7.956  0.00  0.00    +0.000 A 
ATOM     33  N   UNL     1      45.742   1.716   8.318  0.00  0.00    +0.000 NA
ATOM     34  C   UNL     1      46.812   1.137   7.744  0.00  0.00    +0.000 A 
ATOM     35  C   UNL     1      47.604   1.771   6.827  0.00  0.00    +0.000 A 
ATOM     36  C   UNL     1      47.229   3.058   6.518  0.00  0.00    +0.000 A 
ATOM     37  N   UNL     1      46.167   3.685   7.072  0.00  0.00    +0.000 NA
ATOM     38  H   UNL     1      44.481   4.621   8.396  0.00  0.00    +0.000 HD
ENDBRANCH  30  31
ENDBRANCH  27  30
ENDBRANCH  24  27
ENDBRANCH  20  21
ENDBRANCH   1  20
TORSDOF 11
ENDMDL
MODEL 4
REMARK VINA RESULT:    -7.570      2.231      3.334
REMARK INTER + INTRA:         -13.137
REMARK INTER:                 -12.175
REMARK INTRA:                  -0.961
REMARK UNBOUND:                -1.142
REMARK  Name = 
REMARK  11 active torsions:
REMARK  status: ('A' for Active; 'I' for Inactive)
REMARK    1  A    between atoms: N_1  and  C_2
REMARK    2  A    between atoms: C_2  and  C_3
REMARK    3  A    between atoms: C_3  and  C_4
REMARK    4  A    between atoms: C_4  and  N_5
REMARK    5  A    between atoms: C_4  and  C_23
REMARK    6  A    between atoms: N_5  and  C_6
REMARK    7  A    between atoms: C_6  and  C_7
REMARK    8  A    between atoms: C_10  and  C_11
REMARK    9  A    between atoms: C_11  and  O_12
REMARK   10  A    between atoms: C_11  and  C_13
REMARK   11  A    between atoms: C_13  and  N_14
REMARK                            x       y       z     vdW  Elec       q    Type
REMARK                         _______ _______ _______ _____ _____    ______ ____
ROOT
ATOM      1  N   UNL     1      48.920   6.160  14.852  0.00  0.00    +0.000 NA
ATOM      2  H   UNL     1      49.072   5.276  14.364  0.00  0.00    +0.000 HD
ENDROOT
BRANCH   1   3
ATOM      3  C   UNL     1      48.465   5.861  16.231  0.00  0.00    +0.000 C 
BRANCH   3   4
ATOM      4  C   UNL     1      49.003   6.916  17.202  0.00  0.00    +0.000 A 
ATOM      5  C   UNL     1      50.040   7.767  16.840  0.00  0.00    +0.000 A 
ATOM      6  S   UNL     1      50.477   8.886  18.048  0.00  0.00    +0.000 S 
ATOM      7  C   UNL     1      49.346   8.234  19.136  0.00  0.00    +0.000 A 
ATOM      8  N   UNL     1      49.273   8.692  20.412  0.00  0.00    +0.000 NA
ATOM      9  C   UNL     1      48.373   8.108  21.133  0.00  0.00    +0.000 A 
ATOM     10  N   UNL     1      47.513   7.141  20.676  0.00  0.00    +0.000 N 
ATOM     11  C   UNL     1      47.517   6.682  19.372  0.00  0.00    +0.000 A 
ATOM     12  O   UNL     1      46.670   5.888  18.968  0.00  0.00    +0.000 OA
ATOM     13  C   UNL     1      48.575   7.240  18.550  0.00  0.00    +0.000 A 
ATOM     14  H   UNL     1      46.802   6.767  21.284  0.00  0.00    +0.000 HD
ENDBRANCH   3   4
BRANCH   3  15
ATOM     15  C   UNL     1      48.749   4.415  16.702  0.00  0.00    +0.000 C 
BRANCH  15  16
ATOM     16  C   UNL     1      47.605   3.450  16.375  0.00  0.00    +0.000 C 
BRANCH  16  17
ATOM     17  N   UNL     1      46.741   3.273  17.540  0.00  0.00    +0.000 NA
ATOM     18  H   UNL     1      45.954   2.673  17.291  0.00  0.00    +0.000 HD
ATOM     19  H   UNL     1      46.338   4.171  17.808  0.00  0.00    +0.000 HD
ENDBRANCH  16  17
ENDBRANCH  15  16
ENDBRANCH   3  15
ENDBRANCH   1   3
BRANCH   1  20
ATOM     20  C   UNL     1      47.905   6.961  14.121  0.00  0.00    +0.000 C 
BRANCH  20  21
ATOM     21  C   UNL     1      46.914   6.195  13.251  0.00  0.00    +0.000 A 
ATOM     22  C   UNL     1      46.405   4.970  13.664  0.00  0.00    +0.000 A 
ATOM     23  C   UNL     1      45.410   4.345  12.901  0.00  0.00    +0.000 A 
ATOM     24  C   UNL     1      44.925   4.943  11.732  0.00  0.00    +0.000 A 
ATOM     25  C   UNL     1      45.466   6.188  11.421  0.00  0.00    +0.000 A 
ATOM     26  N   UNL     1      46.432   6.817  12.142  0.00  0.00    +0.000 NA
BRANCH  24  27
ATOM     27  C   UNL     1      43.879   4.322  10.818  0.00  0.00    +0.000 C 
BRANCH  27  28
ATOM     28  O   UNL     1      43.366   5.347   9.951  0.00  0.00    +0.000 OA
ATOM     29  H   UNL     1      43.678   6.202  10.295  0.00  0.00    +0.000 HD
ENDBRANCH  27  28
BRANCH  27  30
ATOM     30  C   UNL     1      44.399   3.153   9.946  0.00  0.00    +0.000 C 
BRANCH  30  31
ATOM     31  N   UNL     1      44.424   3.478   8.519  0.00  0.00    +0.000 N 
ATOM     32  C   UNL     1      45.503   2.896   7.866  0.00  0.00    +0.000 A 
ATOM     33  N   UNL     1      45.948   1.691   8.262  0.00  0.00    +0.000 NA
ATOM     34  C   UNL     1      47.008   1.172   7.614  0.00  0.00    +0.000 A 
ATOM     35  C   UNL     1      47.647   1.814   6.590  0.00  0.00    +0.000 A 
ATOM     36  C   UNL     1      47.127   3.042   6.253  0.00  0.00    +0.000 A 
ATOM     37  N   UNL     1      46.069   3.608   6.877  0.00  0.00    +0.000 NA
ATOM     38  H   UNL     1      44.439   4.475   8.313  0.00  0.00    +0.000 HD
ENDBRANCH  30  31
ENDBRANCH  27  30
ENDBRANCH  24  27
ENDBRANCH  20  21
ENDBRANCH   1  20
TORSDOF 11
ENDMDL
MODEL 5
REMARK VINA RESULT:    -7.443      1.746      2.181
REMARK INTER + INTRA:         -12.936
REMARK INTER:                 -11.706
REMARK INTRA:                  -1.229
REMARK UNBOUND:                -1.142
REMARK  Name = 
REMARK  11 active torsions:
REMARK  status: ('A' for Active; 'I' for Inactive)
REMARK    1  A    between atoms: N_1  and  C_2
REMARK    2  A    between atoms: C_2  and  C_3
REMARK    3  A    between atoms: C_3  and  C_4
REMARK    4  A    between atoms: C_4  and  N_5
REMARK    5  A    between atoms: C_4  and  C_23
REMARK    6  A    between atoms: N_5  and  C_6
REMARK    7  A    between atoms: C_6  and  C_7
REMARK    8  A    between atoms: C_10  and  C_11
REMARK    9  A    between atoms: C_11  and  O_12
REMARK   10  A    between atoms: C_11  and  C_13
REMARK   11  A    between atoms: C_13  and  N_14
REMARK                            x       y       z     vdW  Elec       q    Type
REMARK                         _______ _______ _______ _____ _____    ______ ____
ROOT
ATOM      1  N   UNL     1      48.167   6.859  15.617  0.00  0.00    +0.000 NA
ATOM      2  H   UNL     1      47.669   7.720  15.850  0.00  0.00    +0.000 HD
ENDROOT
BRANCH   1   3
ATOM      3  C   UNL     1      49.492   6.889  16.282  0.00  0.00    +0.000 C 
BRANCH   3   4
ATOM      4  C   UNL     1      49.824   5.509  16.855  0.00  0.00    +0.000 A 
ATOM      5  C   UNL     1      48.826   4.577  17.113  0.00  0.00    +0.000 A 
ATOM      6  S   UNL     1      49.400   3.093  17.723  0.00  0.00    +0.000 S 
ATOM      7  C   UNL     1      51.002   3.658  17.737  0.00  0.00    +0.000 A 
ATOM      8  N   UNL     1      52.000   2.889  18.245  0.00  0.00    +0.000 NA
ATOM      9  C   UNL     1      53.169   3.440  18.197  0.00  0.00    +0.000 A 
ATOM     10  N   UNL     1      53.430   4.669  17.646  0.00  0.00    +0.000 N 
ATOM     11  C   UNL     1      52.455   5.462  17.071  0.00  0.00    +0.000 A 
ATOM     12  O   UNL     1      52.736   6.513  16.498  0.00  0.00    +0.000 OA
ATOM     13  C   UNL     1      51.110   4.928  17.188  0.00  0.00    +0.000 A 
ATOM     14  H   UNL     1      54.377   5.012  17.598  0.00  0.00    +0.000 HD
ENDBRANCH   3   4
BRANCH   3  15
ATOM     15  C   UNL     1      49.665   8.025  17.318  0.00  0.00    +0.000 C 
BRANCH  15  16
ATOM     16  C   UNL     1      48.904   7.759  18.621  0.00  0.00    +0.000 C 
BRANCH  16  17
ATOM     17  N   UNL     1      47.464   7.869  18.399  0.00  0.00    +0.000 NA
ATOM     18  H   UNL     1      47.293   8.345  17.513  0.00  0.00    +0.000 HD
ATOM     19  H   UNL     1      47.049   8.456  19.122  0.00  0.00    +0.000 HD
ENDBRANCH  16  17
ENDBRANCH  15  16
ENDBRANCH   3  15
ENDBRANCH   1   3
BRANCH   1  20
ATOM     20  C   UNL     1      48.315   6.757  14.143  0.00  0.00    +0.000 C 
BRANCH  20  21
ATOM     21  C   UNL     1      47.131   6.192  13.365  0.00  0.00    +0.000 A 
ATOM     22  C   UNL     1      46.506   5.020  13.773  0.00  0.00    +0.000 A 
ATOM     23  C   UNL     1      45.351   4.588  13.109  0.00  0.00    +0.000 A 
ATOM     24  C   UNL     1      44.822   5.325  12.043  0.00  0.00    +0.000 A 
ATOM     25  C   UNL     1      45.493   6.505  11.733  0.00  0.00    +0.000 A 
ATOM     26  N   UNL     1      46.615   6.948  12.360  0.00  0.00    +0.000 NA
BRANCH  24  27
ATOM     27  C   UNL     1      43.600   4.914  11.236  0.00  0.00    +0.000 C 
BRANCH  27  28
ATOM     28  O   UNL     1      43.144   6.053  10.488  0.00  0.00    +0.000 OA
ATOM     29  H   UNL     1      43.368   5.897   9.555  0.00  0.00    +0.000 HD
ENDBRANCH  27  28
BRANCH  27  30
ATOM     30  C   UNL     1      43.842   3.743  10.251  0.00  0.00    +0.000 C 
BRANCH  30  31
ATOM     31  N   UNL     1      44.149   4.198   8.895  0.00  0.00    +0.000 N 
ATOM     32  C   UNL     1      45.174   3.464   8.312  0.00  0.00    +0.000 A 
ATOM     33  N   UNL     1      45.300   2.156   8.599  0.00  0.00    +0.000 NA
ATOM     34  C   UNL     1      46.318   1.486   8.028  0.00  0.00    +0.000 A 
ATOM     35  C   UNL     1      47.222   2.073   7.186  0.00  0.00    +0.000 A 
ATOM     36  C   UNL     1      47.019   3.413   6.951  0.00  0.00    +0.000 A 
ATOM     37  N   UNL     1      46.016   4.131   7.505  0.00  0.00    +0.000 NA
ATOM     38  H   UNL     1      44.397   5.183   8.825  0.00  0.00    +0.000 HD
ENDBRANCH  30  31
ENDBRANCH  27  30
ENDBRANCH  24  27
ENDBRANCH  20  21
ENDBRANCH   1  20
TORSDOF 11
ENDMDL
MODEL 6
REMARK VINA RESULT:    -7.408      2.133      3.835
REMARK INTER + INTRA:         -12.881
REMARK INTER:                 -12.409
REMARK INTRA:                  -0.471
REMARK UNBOUND:                -1.142
REMARK  Name = 
REMARK  11 active torsions:
REMARK  status: ('A' for Active; 'I' for Inactive)
REMARK    1  A    between atoms: N_1  and  C_2
REMARK    2  A    between atoms: C_2  and  C_3
REMARK    3  A    between atoms: C_3  and  C_4
REMARK    4  A    between atoms: C_4  and  N_5
REMARK    5  A    between atoms: C_4  and  C_23
REMARK    6  A    between atoms: N_5  and  C_6
REMARK    7  A    between atoms: C_6  and  C_7
REMARK    8  A    between atoms: C_10  and  C_11
REMARK    9  A    between atoms: C_11  and  O_12
REMARK   10  A    between atoms: C_11  and  C_13
REMARK   11  A    between atoms: C_13  and  N_14
REMARK                            x       y       z     vdW  Elec       q    Type
REMARK                         _______ _______ _______ _____ _____    ______ ____
ROOT
ATOM      1  N   UNL     1      46.892   4.714  16.410  0.00  0.00    +0.000 NA
ATOM      2  H   UNL     1      46.696   5.713  16.320  0.00  0.00    +0.000 HD
ENDROOT
BRANCH   1   3
ATOM      3  C   UNL     1      47.839   4.522  17.534  0.00  0.00    +0.000 C 
BRANCH   3   4
ATOM      4  C   UNL     1      47.898   5.786  18.394  0.00  0.00    +0.000 A 
ATOM      5  C   UNL     1      47.606   5.749  19.752  0.00  0.00    +0.000 A 
ATOM      6  S   UNL     1      47.754   7.253  20.539  0.00  0.00    +0.000 S 
ATOM      7  C   UNL     1      48.146   8.036  19.082  0.00  0.00    +0.000 A 
ATOM      8  N   UNL     1      48.311   9.383  19.046  0.00  0.00    +0.000 NA
ATOM      9  C   UNL     1      48.603   9.849  17.876  0.00  0.00    +0.000 A 
ATOM     10  N   UNL     1      48.788   9.081  16.754  0.00  0.00    +0.000 N 
ATOM     11  C   UNL     1      48.683   7.703  16.756  0.00  0.00    +0.000 A 
ATOM     12  O   UNL     1      48.951   7.036  15.759  0.00  0.00    +0.000 OA
ATOM     13  C   UNL     1      48.261   7.142  18.027  0.00  0.00    +0.000 A 
ATOM     14  H   UNL     1      49.066   9.511  15.886  0.00  0.00    +0.000 HD
ENDBRANCH   3   4
BRANCH   3  15
ATOM     15  C   UNL     1      49.241   4.017  17.115  0.00  0.00    +0.000 C 
BRANCH  15  16
ATOM     16  C   UNL     1      49.460   2.536  17.441  0.00  0.00    +0.000 C 
BRANCH  16  17
ATOM     17  N   UNL     1      49.844   1.803  16.237  0.00  0.00    +0.000 NA
ATOM     18  H   UNL     1      49.056   1.776  15.590  0.00  0.00    +0.000 HD
ATOM     19  H   UNL     1      50.048   0.832  16.476  0.00  0.00    +0.000 HD
ENDBRANCH  16  17
ENDBRANCH  15  16
ENDBRANCH   3  15
ENDBRANCH   1   3
BRANCH   1  20
ATOM     20  C   UNL     1      47.467   4.207  15.138  0.00  0.00    +0.000 C 
BRANCH  20  21
ATOM     21  C   UNL     1      46.650   4.430  13.870  0.00  0.00    +0.000 A 
ATOM     22  C   UNL     1      46.791   5.599  13.131  0.00  0.00    +0.000 A 
ATOM     23  C   UNL     1      46.115   5.727  11.911  0.00  0.00    +0.000 A 
ATOM     24  C   UNL     1      45.305   4.692  11.431  0.00  0.00    +0.000 A 
ATOM     25  C   UNL     1      45.258   3.546  12.220  0.00  0.00    +0.000 A 
ATOM     26  N   UNL     1      45.902   3.394  13.407  0.00  0.00    +0.000 NA
BRANCH  24  27
ATOM     27  C   UNL     1      44.501   4.757  10.141  0.00  0.00    +0.000 C 
BRANCH  27  28
ATOM     28  O   UNL     1      45.247   5.521   9.178  0.00  0.00    +0.000 OA
ATOM     29  H   UNL     1      44.606   5.926   8.569  0.00  0.00    +0.000 HD
ENDBRANCH  27  28
BRANCH  27  30
ATOM     30  C   UNL     1      44.164   3.378   9.521  0.00  0.00    +0.000 C 
BRANCH  30  31
ATOM     31  N   UNL     1      45.264   2.420   9.637  0.00  0.00    +0.000 N 
ATOM     32  C   UNL     1      45.955   2.264   8.443  0.00  0.00    +0.000 A 
ATOM     33  N   UNL     1      46.099   3.316   7.617  0.00  0.00    +0.000 NA
ATOM     34  C   UNL     1      46.759   3.117   6.461  0.00  0.00    +0.000 A 
ATOM     35  C   UNL     1      47.276   1.905   6.093  0.00  0.00    +0.000 A 
ATOM     36  C   UNL     1      47.080   0.887   6.996  0.00  0.00    +0.000 A 
ATOM     37  N   UNL     1      46.419   1.034   8.166  0.00  0.00    +0.000 NA
ATOM     38  H   UNL     1      44.986   1.494   9.956  0.00  0.00    +0.000 HD
ENDBRANCH  30  31
ENDBRANCH  27  30
ENDBRANCH  24  27
ENDBRANCH  20  21
ENDBRANCH   1  20
TORSDOF 11
ENDMDL
MODEL 7
REMARK VINA RESULT:    -6.895      3.636      4.582
REMARK INTER + INTRA:         -12.068
REMARK INTER:                 -10.802
REMARK INTRA:                  -1.265
REMARK UNBOUND:                -1.142
REMARK  Name = 
REMARK  11 active torsions:
REMARK  status: ('A' for Active; 'I' for Inactive)
REMARK    1  A    between atoms: N_1  and  C_2
REMARK    2  A    between atoms: C_2  and  C_3
REMARK    3  A    between atoms: C_3  and  C_4
REMARK    4  A    between atoms: C_4  and  N_5
REMARK    5  A    between atoms: C_4  and  C_23
REMARK    6  A    between atoms: N_5  and  C_6
REMARK    7  A    between atoms: C_6  and  C_7
REMARK    8  A    between atoms: C_10  and  C_11
REMARK    9  A    between atoms: C_11  and  O_12
REMARK   10  A    between atoms: C_11  and  C_13
REMARK   11  A    between atoms: C_13  and  N_14
REMARK                            x       y       z     vdW  Elec       q    Type
REMARK                         _______ _______ _______ _____ _____    ______ ____
ROOT
ATOM      1  N   UNL     1      49.411   6.711  13.719  0.00  0.00    +0.000 NA
ATOM      2  H   UNL     1      50.222   6.110  13.875  0.00  0.00    +0.000 HD
ENDROOT
BRANCH   1   3
ATOM      3  C   UNL     1      49.747   8.081  14.175  0.00  0.00    +0.000 C 
BRANCH   3   4
ATOM      4  C   UNL     1      51.219   8.385  13.884  0.00  0.00    +0.000 A 
ATOM      5  C   UNL     1      52.112   8.670  14.909  0.00  0.00    +0.000 A 
ATOM      6  S   UNL     1      53.708   8.955  14.384  0.00  0.00    +0.000 S 
ATOM      7  C   UNL     1      53.259   8.780  12.755  0.00  0.00    +0.000 A 
ATOM      8  N   UNL     1      54.162   8.997  11.764  0.00  0.00    +0.000 NA
ATOM      9  C   UNL     1      53.689   8.833  10.572  0.00  0.00    +0.000 A 
ATOM     10  N   UNL     1      52.408   8.429  10.289  0.00  0.00    +0.000 N 
ATOM     11  C   UNL     1      51.472   8.147  11.266  0.00  0.00    +0.000 A 
ATOM     12  O   UNL     1      50.365   7.692  10.985  0.00  0.00    +0.000 OA
ATOM     13  C   UNL     1      51.929   8.410  12.619  0.00  0.00    +0.000 A 
ATOM     14  H   UNL     1      52.125   8.272   9.335  0.00  0.00    +0.000 HD
ENDBRANCH   3   4
BRANCH   3  15
ATOM     15  C   UNL     1      49.352   8.386  15.639  0.00  0.00    +0.000 C 
BRANCH  15  16
ATOM     16  C   UNL     1      48.467   9.631  15.767  0.00  0.00    +0.000 C 
BRANCH  16  17
ATOM     17  N   UNL     1      47.592   9.514  16.932  0.00  0.00    +0.000 NA
ATOM     18  H   UNL     1      47.835  10.234  17.613  0.00  0.00    +0.000 HD
ATOM     19  H   UNL     1      47.754   8.620  17.395  0.00  0.00    +0.000 HD
ENDBRANCH  16  17
ENDBRANCH  15  16
ENDBRANCH   3  15
ENDBRANCH   1   3
BRANCH   1  20
ATOM     20  C   UNL     1      48.246   6.174  14.467  0.00  0.00    +0.000 C 
BRANCH  20  21
ATOM     21  C   UNL     1      46.983   5.879  13.665  0.00  0.00    +0.000 A 
ATOM     22  C   UNL     1      46.396   6.863  12.878  0.00  0.00    +0.000 A 
ATOM     23  C   UNL     1      45.305   6.533  12.064  0.00  0.00    +0.000 A 
ATOM     24  C   UNL     1      44.805   5.226  12.035  0.00  0.00    +0.000 A 
ATOM     25  C   UNL     1      45.482   4.302  12.826  0.00  0.00    +0.000 A 
ATOM     26  N   UNL     1      46.542   4.594  13.626  0.00  0.00    +0.000 NA
BRANCH  24  27
ATOM     27  C   UNL     1      43.601   4.784  11.217  0.00  0.00    +0.000 C 
BRANCH  27  28
ATOM     28  O   UNL     1      43.106   5.918  10.485  0.00  0.00    +0.000 OA
ATOM     29  H   UNL     1      42.983   5.637   9.562  0.00  0.00    +0.000 HD
ENDBRANCH  27  28
BRANCH  27  30
ATOM     30  C   UNL     1      43.888   3.639  10.214  0.00  0.00    +0.000 C 
BRANCH  30  31
ATOM     31  N   UNL     1      44.204   4.126   8.872  0.00  0.00    +0.000 N 
ATOM     32  C   UNL     1      45.242   3.415   8.283  0.00  0.00    +0.000 A 
ATOM     33  N   UNL     1      45.378   2.102   8.543  0.00  0.00    +0.000 NA
ATOM     34  C   UNL     1      46.408   1.454   7.967  0.00  0.00    +0.000 A 
ATOM     35  C   UNL     1      47.314   2.069   7.148  0.00  0.00    +0.000 A 
ATOM     36  C   UNL     1      47.101   3.411   6.940  0.00  0.00    +0.000 A 
ATOM     37  N   UNL     1      46.086   4.107   7.500  0.00  0.00    +0.000 NA
ATOM     38  H   UNL     1      44.443   5.115   8.826  0.00  0.00    +0.000 HD
ENDBRANCH  30  31
ENDBRANCH  27  30
ENDBRANCH  24  27
ENDBRANCH  20  21
ENDBRANCH   1  20
TORSDOF 11
ENDMDL
MODEL 8
REMARK VINA RESULT:    -6.799      3.214      8.617
REMARK INTER + INTRA:         -11.916
REMARK INTER:                 -10.648
REMARK INTRA:                  -1.268
REMARK UNBOUND:                -1.142
REMARK  Name = 
REMARK  11 active torsions:
REMARK  status: ('A' for Active; 'I' for Inactive)
REMARK    1  A    between atoms: N_1  and  C_2
REMARK    2  A    between atoms: C_2  and  C_3
REMARK    3  A    between atoms: C_3  and  C_4
REMARK    4  A    between atoms: C_4  and  N_5
REMARK    5  A    between atoms: C_4  and  C_23
REMARK    6  A    between atoms: N_5  and  C_6
REMARK    7  A    between atoms: C_6  and  C_7
REMARK    8  A    between atoms: C_10  and  C_11
REMARK    9  A    between atoms: C_11  and  O_12
REMARK   10  A    between atoms: C_11  and  C_13
REMARK   11  A    between atoms: C_13  and  N_14
REMARK                            x       y       z     vdW  Elec       q    Type
REMARK                         _______ _______ _______ _____ _____    ______ ____
ROOT
ATOM      1  N   UNL     1      47.646   7.456  11.855  0.00  0.00    +0.000 NA
ATOM      2  H   UNL     1      47.665   8.461  12.039  0.00  0.00    +0.000 HD
ENDROOT
BRANCH   1   3
ATOM      3  C   UNL     1      46.383   6.904  12.400  0.00  0.00    +0.000 C 
BRANCH   3   4
ATOM      4  C   UNL     1      45.801   5.869  11.434  0.00  0.00    +0.000 A 
ATOM      5  C   UNL     1      46.000   5.971  10.063  0.00  0.00    +0.000 A 
ATOM      6  S   UNL     1      45.295   4.710   9.160  0.00  0.00    +0.000 S 
ATOM      7  C   UNL     1      44.631   4.009  10.559  0.00  0.00    +0.000 A 
ATOM      8  N   UNL     1      43.818   2.925  10.467  0.00  0.00    +0.000 NA
ATOM      9  C   UNL     1      43.379   2.496  11.605  0.00  0.00    +0.000 A 
ATOM     10  N   UNL     1      43.719   3.028  12.824  0.00  0.00    +0.000 N 
ATOM     11  C   UNL     1      44.583   4.097  12.967  0.00  0.00    +0.000 A 
ATOM     12  O   UNL     1      44.946   4.487  14.075  0.00  0.00    +0.000 OA
ATOM     13  C   UNL     1      45.026   4.675  11.711  0.00  0.00    +0.000 A 
ATOM     14  H   UNL     1      43.378   2.607  13.674  0.00  0.00    +0.000 HD
ENDBRANCH   3   4
BRANCH   3  15
ATOM     15  C   UNL     1      45.347   7.971  12.829  0.00  0.00    +0.000 C 
BRANCH  15  16
ATOM     16  C   UNL     1      45.529   9.303  12.094  0.00  0.00    +0.000 C 
BRANCH  16  17
ATOM     17  N   UNL     1      44.429  10.211  12.409  0.00  0.00    +0.000 NA
ATOM     18  H   UNL     1      43.949   9.885  13.249  0.00  0.00    +0.000 HD
ATOM     19  H   UNL     1      43.737  10.185  11.660  0.00  0.00    +0.000 HD
ENDBRANCH  16  17
ENDBRANCH  15  16
ENDBRANCH   3  15
ENDBRANCH   1   3
BRANCH   1  20
ATOM     20  C   UNL     1      48.824   6.815  12.491  0.00  0.00    +0.000 C 
BRANCH  20  21
ATOM     21  C   UNL     1      48.832   6.733  14.014  0.00  0.00    +0.000 A 
ATOM     22  C   UNL     1      49.224   7.824  14.781  0.00  0.00    +0.000 A 
ATOM     23  C   UNL     1      49.111   7.760  16.175  0.00  0.00    +0.000 A 
ATOM     24  C   UNL     1      48.608   6.613  16.800  0.00  0.00    +0.000 A 
ATOM     25  C   UNL     1      48.205   5.589  15.947  0.00  0.00    +0.000 A 
ATOM     26  N   UNL     1      48.303   5.623  14.592  0.00  0.00    +0.000 NA
BRANCH  24  27
ATOM     27  C   UNL     1      48.489   6.436  18.306  0.00  0.00    +0.000 C 
BRANCH  27  28
ATOM     28  O   UNL     1      47.094   6.354  18.646  0.00  0.00    +0.000 OA
ATOM     29  H   UNL     1      46.761   5.508  18.302  0.00  0.00    +0.000 HD
ENDBRANCH  27  28
BRANCH  27  30
ATOM     30  C   UNL     1      49.206   5.183  18.867  0.00  0.00    +0.000 C 
BRANCH  30  31
ATOM     31  N   UNL     1      50.630   5.148  18.532  0.00  0.00    +0.000 N 
ATOM     32  C   UNL     1      51.046   3.886  18.128  0.00  0.00    +0.000 A 
ATOM     33  N   UNL     1      50.201   3.097  17.440  0.00  0.00    +0.000 NA
ATOM     34  C   UNL     1      50.637   1.875  17.084  0.00  0.00    +0.000 A 
ATOM     35  C   UNL     1      51.883   1.404  17.395  0.00  0.00    +0.000 A 
ATOM     36  C   UNL     1      52.678   2.276  18.102  0.00  0.00    +0.000 A 
ATOM     37  N   UNL     1      52.284   3.510  18.488  0.00  0.00    +0.000 NA
ATOM     38  H   UNL     1      51.249   5.451  19.282  0.00  0.00    +0.000 HD
ENDBRANCH  30  31
ENDBRANCH  27  30
ENDBRANCH  24  27
ENDBRANCH  20  21
ENDBRANCH   1  20
TORSDOF 11
ENDMDL
MODEL 9
REMARK VINA RESULT:    -6.719      3.086      8.672
REMARK INTER + INTRA:         -11.789
REMARK INTER:                  -9.952
REMARK INTRA:                  -1.837
REMARK UNBOUND:                -1.142
REMARK  Name = 
REMARK  11 active torsions:
REMARK  status: ('A' for Active; 'I' for Inactive)
REMARK    1  A    between atoms: N_1  and  C_2
REMARK    2  A    between atoms: C_2  and  C_3
REMARK    3  A    between atoms: C_3  and  C_4
REMARK    4  A    between atoms: C_4  and  N_5
REMARK    5  A    between atoms: C_4  and  C_23
REMARK    6  A    between atoms: N_5  and  C_6
REMARK    7  A    between atoms: C_6  and  C_7
REMARK    8  A    between atoms: C_10  and  C_11
REMARK    9  A    between atoms: C_11  and  O_12
REMARK   10  A    between atoms: C_11  and  C_13
REMARK   11  A    between atoms: C_13  and  N_14
REMARK                            x       y       z     vdW  Elec       q    Type
REMARK                         _______ _______ _______ _____ _____    ______ ____
ROOT
ATOM      1  N   UNL     1      47.203   6.784  11.277  0.00  0.00    +0.000 NA
ATOM      2  H   UNL     1      47.226   6.847  10.258  0.00  0.00    +0.000 HD
ENDROOT
BRANCH   1   3
ATOM      3  C   UNL     1      45.816   7.043  11.732  0.00  0.00    +0.000 C 
BRANCH   3   4
ATOM      4  C   UNL     1      45.017   5.738  11.751  0.00  0.00    +0.000 A 
ATOM      5  C   UNL     1      44.252   5.378  12.854  0.00  0.00    +0.000 A 
ATOM      6  S   UNL     1      43.416   3.904  12.670  0.00  0.00    +0.000 S 
ATOM      7  C   UNL     1      44.098   3.648  11.135  0.00  0.00    +0.000 A 
ATOM      8  N   UNL     1      43.857   2.496  10.457  0.00  0.00    +0.000 NA
ATOM      9  C   UNL     1      44.438   2.429   9.304  0.00  0.00    +0.000 A 
ATOM     10  N   UNL     1      45.200   3.430   8.755  0.00  0.00    +0.000 N 
ATOM     11  C   UNL     1      45.428   4.638   9.386  0.00  0.00    +0.000 A 
ATOM     12  O   UNL     1      46.032   5.552   8.827  0.00  0.00    +0.000 OA
ATOM     13  C   UNL     1      44.875   4.722  10.726  0.00  0.00    +0.000 A 
ATOM     14  H   UNL     1      45.581   3.327   7.827  0.00  0.00    +0.000 HD
ENDBRANCH   3   4
BRANCH   3  15
ATOM     15  C   UNL     1      45.091   8.178  10.970  0.00  0.00    +0.000 C 
BRANCH  15  16
ATOM     16  C   UNL     1      45.019   9.481  11.774  0.00  0.00    +0.000 C 
BRANCH  16  17
ATOM     17  N   UNL     1      45.028   9.194  13.207  0.00  0.00    +0.000 NA
ATOM     18  H   UNL     1      44.242   8.583  13.435  0.00  0.00    +0.000 HD
ATOM     19  H   UNL     1      44.878  10.056  13.731  0.00  0.00    +0.000 HD
ENDBRANCH  16  17
ENDBRANCH  15  16
ENDBRANCH   3  15
ENDBRANCH   1   3
BRANCH   1  20
ATOM     20  C   UNL     1      48.146   7.776  11.854  0.00  0.00    +0.000 C 
BRANCH  20  21
ATOM     21  C   UNL     1      48.228   7.852  13.375  0.00  0.00    +0.000 A 
ATOM     22  C   UNL     1      48.668   6.763  14.118  0.00  0.00    +0.000 A 
ATOM     23  C   UNL     1      48.843   6.899  15.500  0.00  0.00    +0.000 A 
ATOM     24  C   UNL     1      48.582   8.117  16.138  0.00  0.00    +0.000 A 
ATOM     25  C   UNL     1      48.184   9.161  15.306  0.00  0.00    +0.000 A 
ATOM     26  N   UNL     1      48.006   9.057  13.962  0.00  0.00    +0.000 NA
BRANCH  24  27
ATOM     27  C   UNL     1      48.702   8.347  17.637  0.00  0.00    +0.000 C 
BRANCH  27  28
ATOM     28  O   UNL     1      47.410   8.716  18.146  0.00  0.00    +0.000 OA
ATOM     29  H   UNL     1      47.441   9.665  18.356  0.00  0.00    +0.000 HD
ENDBRANCH  27  28
BRANCH  27  30
ATOM     30  C   UNL     1      49.216   7.125  18.437  0.00  0.00    +0.000 C 
BRANCH  30  31
ATOM     31  N   UNL     1      48.140   6.223  18.847  0.00  0.00    +0.000 N 
ATOM     32  C   UNL     1      48.243   4.973  18.250  0.00  0.00    +0.000 A 
ATOM     33  N   UNL     1      49.459   4.456  17.997  0.00  0.00    +0.000 NA
ATOM     34  C   UNL     1      49.514   3.251  17.400  0.00  0.00    +0.000 A 
ATOM     35  C   UNL     1      48.401   2.545  17.037  0.00  0.00    +0.000 A 
ATOM     36  C   UNL     1      47.201   3.149  17.330  0.00  0.00    +0.000 A 
ATOM     37  N   UNL     1      47.094   4.360  17.922  0.00  0.00    +0.000 NA
ATOM     38  H   UNL     1      47.201   6.574  18.668  0.00  0.00    +0.000 HD
ENDBRANCH  30  31
ENDBRANCH  27  30
ENDBRANCH  24  27
ENDBRANCH  20  21
ENDBRANCH   1  20
TORSDOF 11
ENDMDL
