MODEL 1
REMARK VINA RESULT:    -7.545      0.000      0.000
REMARK INTER + INTRA:         -10.360
REMARK INTER:                  -9.751
REMARK INTRA:                  -0.609
REMARK UNBOUND:                -0.609
REMARK  Name = 
REMARK  6 active torsions:
REMARK  status: ('A' for Active; 'I' for Inactive)
REMARK    1  A    between atoms: C_1  and  O_2
REMARK    2  A    between atoms: O_2  and  C_3
REMARK    3  A    between atoms: C_3  and  C_5
REMARK    4  A    between atoms: C_9  and  O_10
REMARK    5  A    between atoms: O_10  and  C_11
REMARK    6  A    between atoms: C_11  and  C_12
REMARK                            x       y       z     vdW  Elec       q    Type
REMARK                         _______ _______ _______ _____ _____    ______ ____
ROOT
ATOM      1  C   UNL     1      45.304   4.203  12.804  0.00  0.00    +0.000 A 
ATOM      2  C   UNL     1      44.158   4.894  13.201  0.00  0.00    +0.000 A 
ATOM      3  C   UNL     1      43.050   4.834  12.380  0.00  0.00    +0.000 A 
ATOM      4  N   UNL     1      43.020   4.160  11.213  0.00  0.00    +0.000 NA
ATOM      5  C   UNL     1      44.141   3.503  10.846  0.00  0.00    +0.000 A 
ATOM      6  C   UNL     1      45.294   3.479  11.607  0.00  0.00    +0.000 A 
ENDROOT
BRANCH   1   7
ATOM      7  C   UNL     1      46.552   4.219  13.614  0.00  0.00    +0.000 C 
ATOM      8  O   UNL     1      47.157   3.210  13.930  0.00  0.00    +0.000 OA
BRANCH   7  10
ATOM      9  C   UNL     1      47.732   6.128  12.960  0.00  0.00    +0.000 C 
ATOM     10  O   UNL     1      46.901   5.490  13.933  0.00  0.00    +0.000 OA
ENDBRANCH   7  10
ENDBRANCH   1   7
BRANCH   5  11
ATOM     11  O   UNL     1      44.138   2.787   9.664  0.00  0.00    +0.000 OA
BRANCH  11  12
ATOM     12  C   UNL     1      44.707   3.543   8.590  0.00  0.00    +0.000 C 
BRANCH  12  13
ATOM     13  C   UNL     1      45.820   2.752   7.946  0.00  0.00    +0.000 A 
ATOM     14  C   UNL     1      46.733   3.371   7.085  0.00  0.00    +0.000 A 
ATOM     15  C   UNL     1      47.745   2.606   6.526  0.00  0.00    +0.000 A 
ATOM     16  N   UNL     1      47.907   1.286   6.761  0.00  0.00    +0.000 NA
ATOM     17  C   UNL     1      47.011   0.706   7.588  0.00  0.00    +0.000 A 
ATOM     18  C   UNL     1      45.966   1.385   8.195  0.00  0.00    +0.000 A 
ENDBRANCH  12  13
ENDBRANCH  11  12
ENDBRANCH   5  11
TORSDOF 5
ENDMDL
MODEL 2
REMARK VINA RESULT:    -7.045      1.422      2.078
REMARK INTER + INTRA:          -9.713
REMARK INTER:                  -9.142
REMARK INTRA:                  -0.571
REMARK UNBOUND:                -0.609
REMARK  Name = 
REMARK  6 active torsions:
REMARK  status: ('A' for Active; 'I' for Inactive)
REMARK    1  A    between atoms: C_1  and  O_2
REMARK    2  A    between atoms: O_2  and  C_3
REMARK    3  A    between atoms: C_3  and  C_5
REMARK    4  A    between atoms: C_9  and  O_10
REMARK    5  A    between atoms: O_10  and  C_11
REMARK    6  A    between atoms: C_11  and  C_12
REMARK                            x       y       z     vdW  Elec       q    Type
REMARK                         _______ _______ _______ _____ _____    ______ ____
ROOT
ATOM      1  C   UNL     1      44.952   5.902  11.888  0.00  0.00    +0.000 A 
ATOM      2  C   UNL     1      43.963   5.682  12.849  0.00  0.00    +0.000 A 
ATOM      3  C   UNL     1      43.100   4.623  12.658  0.00  0.00    +0.000 A 
ATOM      4  N   UNL     1      43.151   3.801  11.591  0.00  0.00    +0.000 NA
ATOM      5  C   UNL     1      44.111   4.034  10.672  0.00  0.00    +0.000 A 
ATOM      6  C   UNL     1      45.040   5.051  10.781  0.00  0.00    +0.000 A 
ENDROOT
BRANCH   1   7
ATOM      7  C   UNL     1      45.920   7.026  11.999  0.00  0.00    +0.000 C 
ATOM      8  O   UNL     1      45.589   8.173  12.241  0.00  0.00    +0.000 OA
BRANCH   7  10
ATOM      9  C   UNL     1      47.859   6.180  12.993  0.00  0.00    +0.000 C 
ATOM     10  O   UNL     1      47.188   6.589  11.799  0.00  0.00    +0.000 OA
ENDBRANCH   7  10
ENDBRANCH   1   7
BRANCH   5  11
ATOM     11  O   UNL     1      44.203   3.198   9.575  0.00  0.00    +0.000 OA
BRANCH  11  12
ATOM     12  C   UNL     1      44.792   3.866   8.453  0.00  0.00    +0.000 C 
BRANCH  12  13
ATOM     13  C   UNL     1      45.847   2.983   7.833  0.00  0.00    +0.000 A 
ATOM     14  C   UNL     1      46.013   1.660   8.259  0.00  0.00    +0.000 A 
ATOM     15  C   UNL     1      46.988   0.883   7.651  0.00  0.00    +0.000 A 
ATOM     16  N   UNL     1      47.796   1.327   6.665  0.00  0.00    +0.000 NA
ATOM     17  C   UNL     1      47.626   2.608   6.275  0.00  0.00    +0.000 A 
ATOM     18  C   UNL     1      46.680   3.463   6.820  0.00  0.00    +0.000 A 
ENDBRANCH  12  13
ENDBRANCH  11  12
ENDBRANCH   5  11
TORSDOF 5
ENDMDL
MODEL 3
REMARK VINA RESULT:    -6.772      2.115      2.942
REMARK INTER + INTRA:          -9.360
REMARK INTER:                  -9.198
REMARK INTRA:                  -0.162
REMARK UNBOUND:                -0.609
REMARK  Name = 
REMARK  6 active torsions:
REMARK  status: ('A' for Active; 'I' for Inactive)
REMARK    1  A    between atoms: C_1  and  O_2
REMARK    2  A    between atoms: O_2  and  C_3
REMARK    3  A    between atoms: C_3  and  C_5
REMARK    4  A    between atoms: C_9  and  O_10
REMARK    5  A    between atoms: O_10  and  C_11
REMARK    6  A    between atoms: C_11  and  C_12
REMARK                            x       y       z     vdW  Elec       q    Type
REMARK                         _______ _______ _______ _____ _____    ______ ____
ROOT
ATOM      1  C   UNL     1      44.688   5.048  12.136  0.00  0.00    +0.000 A 
ATOM      2  C   UNL     1      45.537   5.958  12.768  0.00  0.00    +0.000 A 
ATOM      3  C   UNL     1      46.491   6.593  11.999  0.00  0.00    +0.000 A 
ATOM      4  N   UNL     1      46.656   6.373  10.680  0.00  0.00    +0.000 NA
ATOM      5  C   UNL     1      45.827   5.485  10.090  0.00  0.00    +0.000 A 
ATOM      6  C   UNL     1      44.824   4.815  10.763  0.00  0.00    +0.000 A 
ENDROOT
BRANCH   1   7
ATOM      7  C   UNL     1      43.638   4.304  12.882  0.00  0.00    +0.000 C 
ATOM      8  O   UNL     1      43.760   3.143  13.232  0.00  0.00    +0.000 OA
BRANCH   7  10
ATOM      9  C   UNL     1      42.042   5.726  11.936  0.00  0.00    +0.000 C 
ATOM     10  O   UNL     1      42.559   5.093  13.109  0.00  0.00    +0.000 OA
ENDBRANCH   7  10
ENDBRANCH   1   7
BRANCH   5  11
ATOM     11  O   UNL     1      45.956   5.250   8.734  0.00  0.00    +0.000 OA
BRANCH  11  12
ATOM     12  C   UNL     1      45.190   4.112   8.323  0.00  0.00    +0.000 C 
BRANCH  12  13
ATOM     13  C   UNL     1      46.108   3.062   7.747  0.00  0.00    +0.000 A 
ATOM     14  C   UNL     1      46.047   1.736   8.191  0.00  0.00    +0.000 A 
ATOM     15  C   UNL     1      46.903   0.804   7.624  0.00  0.00    +0.000 A 
ATOM     16  N   UNL     1      47.803   1.098   6.662  0.00  0.00    +0.000 NA
ATOM     17  C   UNL     1      47.852   2.384   6.253  0.00  0.00    +0.000 A 
ATOM     18  C   UNL     1      47.039   3.387   6.758  0.00  0.00    +0.000 A 
ENDBRANCH  12  13
ENDBRANCH  11  12
ENDBRANCH   5  11
TORSDOF 5
ENDMDL
MODEL 4
REMARK VINA RESULT:    -6.446      1.490      2.116
REMARK INTER + INTRA:          -8.939
REMARK INTER:                  -8.410
REMARK INTRA:                  -0.529
REMARK UNBOUND:                -0.609
REMARK  Name = 
REMARK  6 active torsions:
REMARK  status: ('A' for Active; 'I' for Inactive)
REMARK    1  A    between atoms: C_1  and  O_2
REMARK    2  A    between atoms: O_2  and  C_3
REMARK    3  A    between atoms: C_3  and  C_5
REMARK    4  A    between atoms: C_9  and  O_10
REMARK    5  A    between atoms: O_10  and  C_11
REMARK    6  A    between atoms: C_11  and  C_12
REMARK                            x       y       z     vdW  Elec       q    Type
REMARK                         _______ _______ _______ _____ _____    ______ ____
ROOT
ATOM      1  C   UNL     1      46.601   4.969  13.559  0.00  0.00    +0.000 A 
ATOM      2  C   UNL     1      46.459   6.274  13.086  0.00  0.00    +0.000 A 
ATOM      3  C   UNL     1      45.655   6.478  11.983  0.00  0.00    +0.000 A 
ATOM      4  N   UNL     1      45.014   5.487  11.332  0.00  0.00    +0.000 NA
ATOM      5  C   UNL     1      45.169   4.232  11.804  0.00  0.00    +0.000 A 
ATOM      6  C   UNL     1      45.930   3.924  12.915  0.00  0.00    +0.000 A 
ENDROOT
BRANCH   1   7
ATOM      7  C   UNL     1      47.456   4.647  14.733  0.00  0.00    +0.000 C 
ATOM      8  O   UNL     1      48.069   5.489  15.366  0.00  0.00    +0.000 OA
BRANCH   7  10
ATOM      9  C   UNL     1      47.866   2.966  16.305  0.00  0.00    +0.000 C 
ATOM     10  O   UNL     1      47.446   3.314  14.984  0.00  0.00    +0.000 OA
ENDBRANCH   7  10
ENDBRANCH   1   7
BRANCH   5  11
ATOM     11  O   UNL     1      44.510   3.195  11.171  0.00  0.00    +0.000 OA
BRANCH  11  12
ATOM     12  C   UNL     1      44.134   3.548   9.836  0.00  0.00    +0.000 C 
BRANCH  12  13
ATOM     13  C   UNL     1      45.185   3.062   8.867  0.00  0.00    +0.000 A 
ATOM     14  C   UNL     1      45.842   3.958   8.015  0.00  0.00    +0.000 A 
ATOM     15  C   UNL     1      46.809   3.466   7.151  0.00  0.00    +0.000 A 
ATOM     16  N   UNL     1      47.160   2.165   7.078  0.00  0.00    +0.000 NA
ATOM     17  C   UNL     1      46.510   1.316   7.902  0.00  0.00    +0.000 A 
ATOM     18  C   UNL     1      45.529   1.710   8.800  0.00  0.00    +0.000 A 
ENDBRANCH  12  13
ENDBRANCH  11  12
ENDBRANCH   5  11
TORSDOF 5
ENDMDL
MODEL 5
REMARK VINA RESULT:    -6.308      2.601      5.846
REMARK INTER + INTRA:          -8.761
REMARK INTER:                  -8.124
REMARK INTRA:                  -0.637
REMARK UNBOUND:                -0.609
REMARK  Name = 
REMARK  6 active torsions:
REMARK  status: ('A' for Active; 'I' for Inactive)
REMARK    1  A    between atoms: C_1  and  O_2
REMARK    2  A    between atoms: O_2  and  C_3
REMARK    3  A    between atoms: C_3  and  C_5
REMARK    4  A    between atoms: C_9  and  O_10
REMARK    5  A    between atoms: O_10  and  C_11
REMARK    6  A    between atoms: C_11  and  C_12
REMARK                            x       y       z     vdW  Elec       q    Type
REMARK                         _______ _______ _______ _____ _____    ______ ____
ROOT
ATOM      1  C   UNL     1      45.217   3.258   8.643  0.00  0.00    +0.000 A 
ATOM      2  C   UNL     1      44.805   2.030   9.162  0.00  0.00    +0.000 A 
ATOM      3  C   UNL     1      43.928   2.039  10.227  0.00  0.00    +0.000 A 
ATOM      4  N   UNL     1      43.460   3.166  10.800  0.00  0.00    +0.000 NA
ATOM      5  C   UNL     1      43.875   4.343  10.286  0.00  0.00    +0.000 A 
ATOM      6  C   UNL     1      44.731   4.444   9.206  0.00  0.00    +0.000 A 
ENDROOT
BRANCH   1   7
ATOM      7  C   UNL     1      46.171   3.351   7.505  0.00  0.00    +0.000 C 
ATOM      8  O   UNL     1      46.445   4.398   6.945  0.00  0.00    +0.000 OA
BRANCH   7  10
ATOM      9  C   UNL     1      47.943   2.170   6.543  0.00  0.00    +0.000 C 
ATOM     10  O   UNL     1      46.675   2.130   7.201  0.00  0.00    +0.000 OA
ENDBRANCH   7  10
ENDBRANCH   1   7
BRANCH   5  11
ATOM     11  O   UNL     1      43.400   5.518  10.838  0.00  0.00    +0.000 OA
BRANCH  11  12
ATOM     12  C   UNL     1      43.428   5.476  12.268  0.00  0.00    +0.000 C 
BRANCH  12  13
ATOM     13  C   UNL     1      44.818   5.801  12.759  0.00  0.00    +0.000 A 
ATOM     14  C   UNL     1      45.366   7.074  12.563  0.00  0.00    +0.000 A 
ATOM     15  C   UNL     1      46.642   7.330  13.041  0.00  0.00    +0.000 A 
ATOM     16  N   UNL     1      47.398   6.420  13.690  0.00  0.00    +0.000 NA
ATOM     17  C   UNL     1      46.855   5.195  13.862  0.00  0.00    +0.000 A 
ATOM     18  C   UNL     1      45.588   4.843  13.421  0.00  0.00    +0.000 A 
ENDBRANCH  12  13
ENDBRANCH  11  12
ENDBRANCH   5  11
TORSDOF 5
ENDMDL
MODEL 6
REMARK VINA RESULT:    -6.301      1.924      2.666
REMARK INTER + INTRA:          -8.751
REMARK INTER:                  -8.208
REMARK INTRA:                  -0.543
REMARK UNBOUND:                -0.609
REMARK  Name = 
REMARK  6 active torsions:
REMARK  status: ('A' for Active; 'I' for Inactive)
REMARK    1  A    between atoms: C_1  and  O_2
REMARK    2  A    between atoms: O_2  and  C_3
REMARK    3  A    between atoms: C_3  and  C_5
REMARK    4  A    between atoms: C_9  and  O_10
REMARK    5  A    between atoms: O_10  and  C_11
REMARK    6  A    between atoms: C_11  and  C_12
REMARK                            x       y       z     vdW  Elec       q    Type
REMARK                         _______ _______ _______ _____ _____    ______ ____
ROOT
ATOM      1  C   UNL     1      46.462   6.016  12.628  0.00  0.00    +0.000 A 
ATOM      2  C   UNL     1      47.109   5.193  13.552  0.00  0.00    +0.000 A 
ATOM      3  C   UNL     1      46.722   3.871  13.623  0.00  0.00    +0.000 A 
ATOM      4  N   UNL     1      45.746   3.337  12.861  0.00  0.00    +0.000 NA
ATOM      5  C   UNL     1      45.129   4.151  11.979  0.00  0.00    +0.000 A 
ATOM      6  C   UNL     1      45.459   5.483  11.812  0.00  0.00    +0.000 A 
ENDROOT
BRANCH   1   7
ATOM      7  C   UNL     1      46.800   7.458  12.488  0.00  0.00    +0.000 C 
ATOM      8  O   UNL     1      47.834   7.857  11.982  0.00  0.00    +0.000 OA
BRANCH   7  10
ATOM      9  C   UNL     1      45.518   9.392  12.204  0.00  0.00    +0.000 C 
ATOM     10  O   UNL     1      45.809   8.235  12.991  0.00  0.00    +0.000 OA
ENDBRANCH   7  10
ENDBRANCH   1   7
BRANCH   5  11
ATOM     11  O   UNL     1      44.137   3.631  11.170  0.00  0.00    +0.000 OA
BRANCH  11  12
ATOM     12  C   UNL     1      44.151   4.231   9.870  0.00  0.00    +0.000 C 
BRANCH  12  13
ATOM     13  C   UNL     1      45.086   3.463   8.967  0.00  0.00    +0.000 A 
ATOM     14  C   UNL     1      45.854   4.126   8.002  0.00  0.00    +0.000 A 
ATOM     15  C   UNL     1      46.707   3.379   7.204  0.00  0.00    +0.000 A 
ATOM     16  N   UNL     1      46.845   2.040   7.297  0.00  0.00    +0.000 NA
ATOM     17  C   UNL     1      46.090   1.419   8.228  0.00  0.00    +0.000 A 
ATOM     18  C   UNL     1      45.208   2.076   9.073  0.00  0.00    +0.000 A 
ENDBRANCH  12  13
ENDBRANCH  11  12
ENDBRANCH   5  11
TORSDOF 5
ENDMDL
MODEL 7
REMARK VINA RESULT:    -5.475      3.818      6.324
REMARK INTER + INTRA:          -7.684
REMARK INTER:                  -7.202
REMARK INTRA:                  -0.482
REMARK UNBOUND:                -0.609
REMARK  Name = 
REMARK  6 active torsions:
REMARK  status: ('A' for Active; 'I' for Inactive)
REMARK    1  A    between atoms: C_1  and  O_2
REMARK    2  A    between atoms: O_2  and  C_3
REMARK    3  A    between atoms: C_3  and  C_5
REMARK    4  A    between atoms: C_9  and  O_10
REMARK    5  A    between atoms: O_10  and  C_11
REMARK    6  A    between atoms: C_11  and  C_12
REMARK                            x       y       z     vdW  Elec       q    Type
REMARK                         _______ _______ _______ _____ _____    ______ ____
ROOT
ATOM      1  C   UNL     1      48.188   4.663  17.416  0.00  0.00    +0.000 A 
ATOM      2  C   UNL     1      49.044   3.657  17.869  0.00  0.00    +0.000 A 
ATOM      3  C   UNL     1      49.236   2.558  17.058  0.00  0.00    +0.000 A 
ATOM      4  N   UNL     1      48.633   2.397  15.863  0.00  0.00    +0.000 NA
ATOM      5  C   UNL     1      47.806   3.379  15.446  0.00  0.00    +0.000 A 
ATOM      6  C   UNL     1      47.565   4.531  16.171  0.00  0.00    +0.000 A 
ENDROOT
BRANCH   1   7
ATOM      7  C   UNL     1      47.908   5.879  18.225  0.00  0.00    +0.000 C 
ATOM      8  O   UNL     1      48.409   6.966  17.997  0.00  0.00    +0.000 OA
BRANCH   7  10
ATOM      9  C   UNL     1      47.437   6.085  20.506  0.00  0.00    +0.000 C 
ATOM     10  O   UNL     1      47.033   5.601  19.223  0.00  0.00    +0.000 OA
ENDBRANCH   7  10
ENDBRANCH   1   7
BRANCH   5  11
ATOM     11  O   UNL     1      47.186   3.254  14.217  0.00  0.00    +0.000 OA
BRANCH  11  12
ATOM     12  C   UNL     1      46.809   4.530  13.687  0.00  0.00    +0.000 C 
BRANCH  12  13
ATOM     13  C   UNL     1      45.479   4.413  12.983  0.00  0.00    +0.000 A 
ATOM     14  C   UNL     1      45.160   3.271  12.240  0.00  0.00    +0.000 A 
ATOM     15  C   UNL     1      43.921   3.205  11.621  0.00  0.00    +0.000 A 
ATOM     16  N   UNL     1      42.993   4.183  11.688  0.00  0.00    +0.000 NA
ATOM     17  C   UNL     1      43.323   5.280  12.403  0.00  0.00    +0.000 A 
ATOM     18  C   UNL     1      44.535   5.440  13.058  0.00  0.00    +0.000 A 
ENDBRANCH  12  13
ENDBRANCH  11  12
ENDBRANCH   5  11
TORSDOF 5
ENDMDL
MODEL 8
REMARK VINA RESULT:    -5.444      2.625      6.039
REMARK INTER + INTRA:          -7.645
REMARK INTER:                  -7.124
REMARK INTRA:                  -0.521
REMARK UNBOUND:                -0.609
REMARK  Name = 
REMARK  6 active torsions:
REMARK  status: ('A' for Active; 'I' for Inactive)
REMARK    1  A    between atoms: C_1  and  O_2
REMARK    2  A    between atoms: O_2  and  C_3
REMARK    3  A    between atoms: C_3  and  C_5
REMARK    4  A    between atoms: C_9  and  O_10
REMARK    5  A    between atoms: O_10  and  C_11
REMARK    6  A    between atoms: C_11  and  C_12
REMARK                            x       y       z     vdW  Elec       q    Type
REMARK                         _______ _______ _______ _____ _____    ______ ____
ROOT
ATOM      1  C   UNL     1      44.680   3.757  10.133  0.00  0.00    +0.000 A 
ATOM      2  C   UNL     1      43.913   2.785  10.777  0.00  0.00    +0.000 A 
ATOM      3  C   UNL     1      43.396   3.088  12.020  0.00  0.00    +0.000 A 
ATOM      4  N   UNL     1      43.603   4.262  12.649  0.00  0.00    +0.000 NA
ATOM      5  C   UNL     1      44.351   5.186  12.011  0.00  0.00    +0.000 A 
ATOM      6  C   UNL     1      44.894   4.992  10.755  0.00  0.00    +0.000 A 
ENDROOT
BRANCH   1   7
ATOM      7  C   UNL     1      45.292   3.519   8.798  0.00  0.00    +0.000 C 
ATOM      8  O   UNL     1      45.481   4.403   7.981  0.00  0.00    +0.000 OA
BRANCH   7  10
ATOM      9  C   UNL     1      46.626   1.963   7.673  0.00  0.00    +0.000 C 
ATOM     10  O   UNL     1      45.599   2.208   8.637  0.00  0.00    +0.000 OA
ENDBRANCH   7  10
ENDBRANCH   1   7
BRANCH   5  11
ATOM     11  O   UNL     1      44.567   6.408  12.620  0.00  0.00    +0.000 OA
BRANCH  11  12
ATOM     12  C   UNL     1      45.277   7.305  11.760  0.00  0.00    +0.000 C 
BRANCH  12  13
ATOM     13  C   UNL     1      46.606   7.660  12.382  0.00  0.00    +0.000 A 
ATOM     14  C   UNL     1      46.682   8.586  13.429  0.00  0.00    +0.000 A 
ATOM     15  C   UNL     1      47.923   8.871  13.976  0.00  0.00    +0.000 A 
ATOM     16  N   UNL     1      49.076   8.308  13.560  0.00  0.00    +0.000 NA
ATOM     17  C   UNL     1      48.983   7.423  12.543  0.00  0.00    +0.000 A 
ATOM     18  C   UNL     1      47.790   7.072  11.931  0.00  0.00    +0.000 A 
ENDBRANCH  12  13
ENDBRANCH  11  12
ENDBRANCH   5  11
TORSDOF 5
ENDMDL
MODEL 9
REMARK VINA RESULT:    -5.221      3.478      6.621
REMARK INTER + INTRA:          -7.356
REMARK INTER:                  -6.845
REMARK INTRA:                  -0.511
REMARK UNBOUND:                -0.609
REMARK  Name = 
REMARK  6 active torsions:
REMARK  status: ('A' for Active; 'I' for Inactive)
REMARK    1  A    between atoms: C_1  and  O_2
REMARK    2  A    between atoms: O_2  and  C_3
REMARK    3  A    between atoms: C_3  and  C_5
REMARK    4  A    between atoms: C_9  and  O_10
REMARK    5  A    between atoms: O_10  and  C_11
REMARK    6  A    between atoms: C_11  and  C_12
REMARK                            x       y       z     vdW  Elec       q    Type
REMARK                         _______ _______ _______ _____ _____    ______ ____
ROOT
ATOM      1  C   UNL     1      44.781   3.908   9.919  0.00  0.00    +0.000 A 
ATOM      2  C   UNL     1      43.978   2.934  10.515  0.00  0.00    +0.000 A 
ATOM      3  C   UNL     1      43.398   3.229  11.731  0.00  0.00    +0.000 A 
ATOM      4  N   UNL     1      43.574   4.398  12.379  0.00  0.00    +0.000 NA
ATOM      5  C   UNL     1      44.358   5.324  11.788  0.00  0.00    +0.000 A 
ATOM      6  C   UNL     1      44.965   5.138  10.561  0.00  0.00    +0.000 A 
ENDROOT
BRANCH   1   7
ATOM      7  C   UNL     1      45.461   3.678   8.616  0.00  0.00    +0.000 C 
ATOM      8  O   UNL     1      45.771   4.578   7.855  0.00  0.00    +0.000 OA
BRANCH   7  10
ATOM      9  C   UNL     1      46.749   2.070   7.512  0.00  0.00    +0.000 C 
ATOM     10  O   UNL     1      45.677   2.355   8.414  0.00  0.00    +0.000 OA
ENDBRANCH   7  10
ENDBRANCH   1   7
BRANCH   5  11
ATOM     11  O   UNL     1      44.546   6.540  12.417  0.00  0.00    +0.000 OA
BRANCH  11  12
ATOM     12  C   UNL     1      45.380   7.409  11.643  0.00  0.00    +0.000 C 
BRANCH  12  13
ATOM     13  C   UNL     1      44.677   8.727  11.427  0.00  0.00    +0.000 A 
ATOM     14  C   UNL     1      43.416   8.775  10.823  0.00  0.00    +0.000 A 
ATOM     15  C   UNL     1      42.804  10.009  10.656  0.00  0.00    +0.000 A 
ATOM     16  N   UNL     1      43.355  11.179  11.042  0.00  0.00    +0.000 NA
ATOM     17  C   UNL     1      44.575  11.112  11.615  0.00  0.00    +0.000 A 
ATOM     18  C   UNL     1      45.267   9.929  11.826  0.00  0.00    +0.000 A 
ENDBRANCH  12  13
ENDBRANCH  11  12
ENDBRANCH   5  11
TORSDOF 5
ENDMDL
