MODEL 1
REMARK VINA RESULT:    -8.618      0.000      0.000
REMARK INTER + INTRA:         -12.993
REMARK INTER:                 -12.144
REMARK INTRA:                  -0.849
REMARK UNBOUND:                -0.849
REMARK  Name = 
REMARK  8 active torsions:
REMARK  status: ('A' for Active; 'I' for Inactive)
REMARK    1  A    between atoms: C_1  and  C_2
REMARK    2  A    between atoms: C_5  and  N_6
REMARK    3  A    between atoms: N_6  and  C_7
REMARK    4  A    between atoms: C_7  and  C_8
REMARK    5  A    between atoms: C_8  and  C_11
REMARK    6  A    between atoms: C_15  and  O_16
REMARK    7  A    between atoms: O_16  and  C_17
REMARK    8  A    between atoms: C_23  and  C_24
REMARK                            x       y       z     vdW  Elec       q    Type
REMARK                         _______ _______ _______ _____ _____    ______ ____
ROOT
ATOM      1  C   UNL     1      43.401   4.635  10.741  0.00  0.00    +0.000 C 
ENDROOT
BRANCH   1   2
ATOM      2  C   UNL     1      43.633   5.771  11.774  0.00  0.00    +0.000 C 
ATOM      3  F   UNL     1      43.139   6.931  11.238  0.00  0.00    +0.000 F 
ATOM      4  F   UNL     1      42.851   5.536  12.873  0.00  0.00    +0.000 F 
BRANCH   2   5
ATOM      5  C   UNL     1      45.101   5.892  12.153  0.00  0.00    +0.000 A 
ATOM      6  C   UNL     1      45.874   6.940  11.640  0.00  0.00    +0.000 A 
ATOM      7  C   UNL     1      47.213   7.082  12.016  0.00  0.00    +0.000 A 
ATOM      8  C   UNL     1      47.800   6.175  12.902  0.00  0.00    +0.000 A 
ATOM      9  C   UNL     1      47.047   5.115  13.403  0.00  0.00    +0.000 A 
ATOM     10  C   UNL     1      45.703   4.980  13.032  0.00  0.00    +0.000 A 
BRANCH   9  11
ATOM     11  O   UNL     1      47.497   4.174  14.294  0.00  0.00    +0.000 OA
BRANCH  11  12
ATOM     12  C   UNL     1      47.273   4.361  15.710  0.00  0.00    +0.000 C 
ATOM     13  C   UNL     1      48.301   5.178  16.508  0.00  0.00    +0.000 C 
ATOM     14  O   UNL     1      48.488   4.102  17.461  0.00  0.00    +0.000 OA
ATOM     15  C   UNL     1      47.756   3.200  16.596  0.00  0.00    +0.000 C 
ENDBRANCH  11  12
ENDBRANCH   9  11
ENDBRANCH   2   5
ENDBRANCH   1   2
BRANCH   1  16
ATOM     16  N   UNL     1      44.161   4.840   9.482  0.00  0.00    +0.000 N 
ATOM     17  H   UNL     1      44.766   5.656   9.532  0.00  0.00    +0.000 HD
BRANCH  16  22
ATOM     18  C   UNL     1      46.745   0.186   7.504  0.00  0.00    +0.000 C 
ATOM     19  C   UNL     1      46.128   1.463   7.989  0.00  0.00    +0.000 A 
ATOM     20  C   UNL     1      45.261   1.434   9.073  0.00  0.00    +0.000 A 
ATOM     21  N   UNL     1      44.626   2.512   9.585  0.00  0.00    +0.000 NA
ATOM     22  C   UNL     1      44.856   3.712   9.026  0.00  0.00    +0.000 A 
ATOM     23  C   UNL     1      45.706   3.846   7.933  0.00  0.00    +0.000 A 
ATOM     24  C   UNL     1      46.350   2.716   7.402  0.00  0.00    +0.000 A 
BRANCH  24  25
ATOM     25  C   UNL     1      47.280   2.867   6.243  0.00  0.00    +0.000 C 
ATOM     26  N   UNL     1      48.624   2.832   6.501  0.00  0.00    +0.000 N 
ATOM     27  O   UNL     1      46.887   3.033   5.096  0.00  0.00    +0.000 OA
ATOM     28  H   UNL     1      49.022   2.881   7.426  0.00  0.00    +0.000 HD
ATOM     29  H   UNL     1      49.237   3.021   5.715  0.00  0.00    +0.000 HD
ENDBRANCH  24  25
ENDBRANCH  16  22
ENDBRANCH   1  16
TORSDOF 7
ENDMDL
MODEL 2
REMARK VINA RESULT:    -7.833      1.843      2.441
REMARK INTER + INTRA:         -11.888
REMARK INTER:                 -11.389
REMARK INTRA:                  -0.499
REMARK UNBOUND:                -0.849
REMARK  Name = 
REMARK  8 active torsions:
REMARK  status: ('A' for Active; 'I' for Inactive)
REMARK    1  A    between atoms: C_1  and  C_2
REMARK    2  A    between atoms: C_5  and  N_6
REMARK    3  A    between atoms: N_6  and  C_7
REMARK    4  A    between atoms: C_7  and  C_8
REMARK    5  A    between atoms: C_8  and  C_11
REMARK    6  A    between atoms: C_15  and  O_16
REMARK    7  A    between atoms: O_16  and  C_17
REMARK    8  A    between atoms: C_23  and  C_24
REMARK                            x       y       z     vdW  Elec       q    Type
REMARK                         _______ _______ _______ _____ _____    ______ ____
ROOT
ATOM      1  C   UNL     1      43.211   3.903  11.305  0.00  0.00    +0.000 C 
ENDROOT
BRANCH   1   2
ATOM      2  C   UNL     1      43.717   4.376  12.695  0.00  0.00    +0.000 C 
ATOM      3  F   UNL     1      42.723   5.123  13.270  0.00  0.00    +0.000 F 
ATOM      4  F   UNL     1      43.849   3.286  13.512  0.00  0.00    +0.000 F 
BRANCH   2   5
ATOM      5  C   UNL     1      45.023   5.146  12.582  0.00  0.00    +0.000 A 
ATOM      6  C   UNL     1      45.284   5.922  11.446  0.00  0.00    +0.000 A 
ATOM      7  C   UNL     1      46.463   6.667  11.352  0.00  0.00    +0.000 A 
ATOM      8  C   UNL     1      47.401   6.641  12.387  0.00  0.00    +0.000 A 
ATOM      9  C   UNL     1      47.164   5.856  13.514  0.00  0.00    +0.000 A 
ATOM     10  C   UNL     1      45.977   5.117  13.610  0.00  0.00    +0.000 A 
BRANCH   9  11
ATOM     11  O   UNL     1      47.991   5.763  14.605  0.00  0.00    +0.000 OA
BRANCH  11  12
ATOM     12  C   UNL     1      48.984   6.786  14.842  0.00  0.00    +0.000 C 
ATOM     13  C   UNL     1      49.881   6.658  16.083  0.00  0.00    +0.000 C 
ATOM     14  O   UNL     1      49.518   7.983  16.542  0.00  0.00    +0.000 OA
ATOM     15  C   UNL     1      48.456   8.040  15.559  0.00  0.00    +0.000 C 
ENDBRANCH  11  12
ENDBRANCH   9  11
ENDBRANCH   2   5
ENDBRANCH   1   2
BRANCH   1  16
ATOM     16  N   UNL     1      43.903   2.680  10.827  0.00  0.00    +0.000 N 
ATOM     17  H   UNL     1      43.291   1.867  10.844  0.00  0.00    +0.000 HD
BRANCH  16  22
ATOM     18  C   UNL     1      46.690   3.400   5.932  0.00  0.00    +0.000 C 
ATOM     19  C   UNL     1      45.966   3.122   7.215  0.00  0.00    +0.000 A 
ATOM     20  C   UNL     1      45.078   4.065   7.716  0.00  0.00    +0.000 A 
ATOM     21  N   UNL     1      44.387   3.938   8.871  0.00  0.00    +0.000 NA
ATOM     22  C   UNL     1      44.546   2.814   9.590  0.00  0.00    +0.000 A 
ATOM     23  C   UNL     1      45.416   1.811   9.174  0.00  0.00    +0.000 A 
ATOM     24  C   UNL     1      46.137   1.959   7.978  0.00  0.00    +0.000 A 
BRANCH  24  25
ATOM     25  C   UNL     1      47.053   0.871   7.524  0.00  0.00    +0.000 C 
ATOM     26  N   UNL     1      46.618  -0.421   7.661  0.00  0.00    +0.000 N 
ATOM     27  O   UNL     1      48.163   1.090   7.057  0.00  0.00    +0.000 OA
ATOM     28  H   UNL     1      45.806  -0.688   8.196  0.00  0.00    +0.000 HD
ATOM     29  H   UNL     1      47.287  -1.146   7.426  0.00  0.00    +0.000 HD
ENDBRANCH  24  25
ENDBRANCH  16  22
ENDBRANCH   1  16
TORSDOF 7
ENDMDL
MODEL 3
REMARK VINA RESULT:    -7.677      2.557      7.754
REMARK INTER + INTRA:         -11.668
REMARK INTER:                 -11.118
REMARK INTRA:                  -0.549
REMARK UNBOUND:                -0.849
REMARK  Name = 
REMARK  8 active torsions:
REMARK  status: ('A' for Active; 'I' for Inactive)
REMARK    1  A    between atoms: C_1  and  C_2
REMARK    2  A    between atoms: C_5  and  N_6
REMARK    3  A    between atoms: N_6  and  C_7
REMARK    4  A    between atoms: C_7  and  C_8
REMARK    5  A    between atoms: C_8  and  C_11
REMARK    6  A    between atoms: C_15  and  O_16
REMARK    7  A    between atoms: O_16  and  C_17
REMARK    8  A    between atoms: C_23  and  C_24
REMARK                            x       y       z     vdW  Elec       q    Type
REMARK                         _______ _______ _______ _____ _____    ______ ____
ROOT
ATOM      1  C   UNL     1      45.196   5.801  12.607  0.00  0.00    +0.000 C 
ENDROOT
BRANCH   1   2
ATOM      2  C   UNL     1      44.553   5.929  11.200  0.00  0.00    +0.000 C 
ATOM      3  F   UNL     1      43.274   6.391  11.366  0.00  0.00    +0.000 F 
ATOM      4  F   UNL     1      45.194   6.921  10.509  0.00  0.00    +0.000 F 
BRANCH   2   5
ATOM      5  C   UNL     1      44.594   4.610  10.444  0.00  0.00    +0.000 A 
ATOM      6  C   UNL     1      44.065   3.452  11.024  0.00  0.00    +0.000 A 
ATOM      7  C   UNL     1      44.061   2.244  10.320  0.00  0.00    +0.000 A 
ATOM      8  C   UNL     1      44.594   2.175   9.030  0.00  0.00    +0.000 A 
ATOM      9  C   UNL     1      45.143   3.316   8.450  0.00  0.00    +0.000 A 
ATOM     10  C   UNL     1      45.138   4.527   9.154  0.00  0.00    +0.000 A 
BRANCH   9  11
ATOM     11  O   UNL     1      45.674   3.386   7.186  0.00  0.00    +0.000 OA
BRANCH  11  12
ATOM     12  C   UNL     1      47.066   3.057   6.974  0.00  0.00    +0.000 C 
ATOM     13  C   UNL     1      47.519   2.689   5.553  0.00  0.00    +0.000 C 
ATOM     14  O   UNL     1      48.086   1.435   6.006  0.00  0.00    +0.000 OA
ATOM     15  C   UNL     1      47.437   1.597   7.290  0.00  0.00    +0.000 C 
ENDBRANCH  11  12
ENDBRANCH   9  11
ENDBRANCH   2   5
ENDBRANCH   1   2
BRANCH   1  16
ATOM     16  N   UNL     1      46.652   5.519  12.550  0.00  0.00    +0.000 N 
ATOM     17  H   UNL     1      47.127   6.111  11.872  0.00  0.00    +0.000 HD
BRANCH  16  22
ATOM     18  C   UNL     1      49.093   5.751  17.672  0.00  0.00    +0.000 C 
ATOM     19  C   UNL     1      48.448   5.601  16.327  0.00  0.00    +0.000 A 
ATOM     20  C   UNL     1      48.566   6.623  15.395  0.00  0.00    +0.000 A 
ATOM     21  N   UNL     1      48.011   6.613  14.163  0.00  0.00    +0.000 NA
ATOM     22  C   UNL     1      47.303   5.533  13.790  0.00  0.00    +0.000 A 
ATOM     23  C   UNL     1      47.124   4.457  14.654  0.00  0.00    +0.000 A 
ATOM     24  C   UNL     1      47.696   4.484  15.937  0.00  0.00    +0.000 A 
BRANCH  24  25
ATOM     25  C   UNL     1      47.520   3.318  16.853  0.00  0.00    +0.000 C 
ATOM     26  N   UNL     1      48.589   2.478  17.020  0.00  0.00    +0.000 N 
ATOM     27  O   UNL     1      46.470   3.085  17.436  0.00  0.00    +0.000 OA
ATOM     28  H   UNL     1      49.416   2.497  16.443  0.00  0.00    +0.000 HD
ATOM     29  H   UNL     1      48.423   1.647  17.577  0.00  0.00    +0.000 HD
ENDBRANCH  24  25
ENDBRANCH  16  22
ENDBRANCH   1  16
TORSDOF 7
ENDMDL
MODEL 4
REMARK VINA RESULT:    -7.172      2.770      7.889
REMARK INTER + INTRA:         -10.956
REMARK INTER:                 -10.327
REMARK INTRA:                  -0.628
REMARK UNBOUND:                -0.849
REMARK  Name = 
REMARK  8 active torsions:
REMARK  status: ('A' for Active; 'I' for Inactive)
REMARK    1  A    between atoms: C_1  and  C_2
REMARK    2  A    between atoms: C_5  and  N_6
REMARK    3  A    between atoms: N_6  and  C_7
REMARK    4  A    between atoms: C_7  and  C_8
REMARK    5  A    between atoms: C_8  and  C_11
REMARK    6  A    between atoms: C_15  and  O_16
REMARK    7  A    between atoms: O_16  and  C_17
REMARK    8  A    between atoms: C_23  and  C_24
REMARK                            x       y       z     vdW  Elec       q    Type
REMARK                         _______ _______ _______ _____ _____    ______ ____
ROOT
ATOM      1  C   UNL     1      46.441   6.079  12.265  0.00  0.00    +0.000 C 
ENDROOT
BRANCH   1   2
ATOM      2  C   UNL     1      45.101   6.060  11.480  0.00  0.00    +0.000 C 
ATOM      3  F   UNL     1      44.081   6.114  12.394  0.00  0.00    +0.000 F 
ATOM      4  F   UNL     1      44.989   7.221  10.765  0.00  0.00    +0.000 F 
BRANCH   2   5
ATOM      5  C   UNL     1      44.999   4.840  10.577  0.00  0.00    +0.000 A 
ATOM      6  C   UNL     1      44.239   3.734  10.975  0.00  0.00    +0.000 A 
ATOM      7  C   UNL     1      44.107   2.626  10.133  0.00  0.00    +0.000 A 
ATOM      8  C   UNL     1      44.738   2.604   8.887  0.00  0.00    +0.000 A 
ATOM      9  C   UNL     1      45.514   3.689   8.489  0.00  0.00    +0.000 A 
ATOM     10  C   UNL     1      45.639   4.803   9.330  0.00  0.00    +0.000 A 
BRANCH   9  11
ATOM     11  O   UNL     1      46.165   3.801   7.285  0.00  0.00    +0.000 OA
BRANCH  11  12
ATOM     12  C   UNL     1      46.472   2.612   6.523  0.00  0.00    +0.000 C 
ATOM     13  C   UNL     1      47.581   1.682   7.039  0.00  0.00    +0.000 C 
ATOM     14  O   UNL     1      48.288   1.745   5.776  0.00  0.00    +0.000 OA
ATOM     15  C   UNL     1      47.437   2.835   5.346  0.00  0.00    +0.000 C 
ENDBRANCH  11  12
ENDBRANCH   9  11
ENDBRANCH   2   5
ENDBRANCH   1   2
BRANCH   1  16
ATOM     16  N   UNL     1      46.787   4.758  12.845  0.00  0.00    +0.000 N 
ATOM     17  H   UNL     1      47.428   4.238  12.250  0.00  0.00    +0.000 HD
BRANCH  16  22
ATOM     18  C   UNL     1      48.825   4.772  18.145  0.00  0.00    +0.000 C 
ATOM     19  C   UNL     1      48.282   4.857  16.750  0.00  0.00    +0.000 A 
ATOM     20  C   UNL     1      47.661   3.749  16.191  0.00  0.00    +0.000 A 
ATOM     21  N   UNL     1      47.155   3.697  14.938  0.00  0.00    +0.000 NA
ATOM     22  C   UNL     1      47.234   4.798  14.172  0.00  0.00    +0.000 A 
ATOM     23  C   UNL     1      47.841   5.959  14.640  0.00  0.00    +0.000 A 
ATOM     24  C   UNL     1      48.374   5.997  15.939  0.00  0.00    +0.000 A 
BRANCH  24  25
ATOM     25  C   UNL     1      49.004   7.252  16.447  0.00  0.00    +0.000 C 
ATOM     26  N   UNL     1      48.181   8.190  17.012  0.00  0.00    +0.000 N 
ATOM     27  O   UNL     1      50.205   7.472  16.363  0.00  0.00    +0.000 OA
ATOM     28  H   UNL     1      47.175   8.164  16.954  0.00  0.00    +0.000 HD
ATOM     29  H   UNL     1      48.615   9.069  17.272  0.00  0.00    +0.000 HD
ENDBRANCH  24  25
ENDBRANCH  16  22
ENDBRANCH   1  16
TORSDOF 7
ENDMDL
MODEL 5
REMARK VINA RESULT:    -6.846      2.650      7.602
REMARK INTER + INTRA:         -10.497
REMARK INTER:                  -9.784
REMARK INTRA:                  -0.713
REMARK UNBOUND:                -0.849
REMARK  Name = 
REMARK  8 active torsions:
REMARK  status: ('A' for Active; 'I' for Inactive)
REMARK    1  A    between atoms: C_1  and  C_2
REMARK    2  A    between atoms: C_5  and  N_6
REMARK    3  A    between atoms: N_6  and  C_7
REMARK    4  A    between atoms: C_7  and  C_8
REMARK    5  A    between atoms: C_8  and  C_11
REMARK    6  A    between atoms: C_15  and  O_16
REMARK    7  A    between atoms: O_16  and  C_17
REMARK    8  A    between atoms: C_23  and  C_24
REMARK                            x       y       z     vdW  Elec       q    Type
REMARK                         _______ _______ _______ _____ _____    ______ ____
ROOT
ATOM      1  C   UNL     1      44.180   4.205  13.258  0.00  0.00    +0.000 C 
ENDROOT
BRANCH   1   2
ATOM      2  C   UNL     1      43.476   4.060  11.882  0.00  0.00    +0.000 C 
ATOM      3  F   UNL     1      43.045   2.764  11.768  0.00  0.00    +0.000 F 
ATOM      4  F   UNL     1      42.330   4.808  11.890  0.00  0.00    +0.000 F 
BRANCH   2   5
ATOM      5  C   UNL     1      44.394   4.463  10.739  0.00  0.00    +0.000 A 
ATOM      6  C   UNL     1      44.990   5.729  10.732  0.00  0.00    +0.000 A 
ATOM      7  C   UNL     1      45.869   6.093   9.707  0.00  0.00    +0.000 A 
ATOM      8  C   UNL     1      46.157   5.201   8.671  0.00  0.00    +0.000 A 
ATOM      9  C   UNL     1      45.553   3.945   8.656  0.00  0.00    +0.000 A 
ATOM     10  C   UNL     1      44.680   3.579   9.688  0.00  0.00    +0.000 A 
BRANCH   9  11
ATOM     11  O   UNL     1      45.769   2.972   7.712  0.00  0.00    +0.000 OA
BRANCH  11  12
ATOM     12  C   UNL     1      47.093   2.788   7.161  0.00  0.00    +0.000 C 
ATOM     13  C   UNL     1      47.236   2.649   5.637  0.00  0.00    +0.000 C 
ATOM     14  O   UNL     1      47.952   1.397   5.771  0.00  0.00    +0.000 OA
ATOM     15  C   UNL     1      47.598   1.335   7.173  0.00  0.00    +0.000 C 
ENDBRANCH  11  12
ENDBRANCH   9  11
ENDBRANCH   2   5
ENDBRANCH   1   2
BRANCH   1  16
ATOM     16  N   UNL     1      45.542   3.616  13.272  0.00  0.00    +0.000 N 
ATOM     17  H   UNL     1      45.864   3.383  12.335  0.00  0.00    +0.000 HD
BRANCH  16  22
ATOM     18  C   UNL     1      49.221   6.831  16.168  0.00  0.00    +0.000 C 
ATOM     19  C   UNL     1      48.271   5.914  15.456  0.00  0.00    +0.000 A 
ATOM     20  C   UNL     1      47.881   6.209  14.157  0.00  0.00    +0.000 A 
ATOM     21  N   UNL     1      47.014   5.474  13.424  0.00  0.00    +0.000 NA
ATOM     22  C   UNL     1      46.498   4.362  13.974  0.00  0.00    +0.000 A 
ATOM     23  C   UNL     1      46.825   3.981  15.271  0.00  0.00    +0.000 A 
ATOM     24  C   UNL     1      47.717   4.760  16.027  0.00  0.00    +0.000 A 
BRANCH  24  25
ATOM     25  C   UNL     1      48.083   4.337  17.412  0.00  0.00    +0.000 C 
ATOM     26  N   UNL     1      47.241   4.703  18.429  0.00  0.00    +0.000 N 
ATOM     27  O   UNL     1      49.097   3.700  17.665  0.00  0.00    +0.000 OA
ATOM     28  H   UNL     1      46.495   5.374  18.328  0.00  0.00    +0.000 HD
ATOM     29  H   UNL     1      47.550   4.481  19.369  0.00  0.00    +0.000 HD
ENDBRANCH  24  25
ENDBRANCH  16  22
ENDBRANCH   1  16
TORSDOF 7
ENDMDL
MODEL 6
REMARK VINA RESULT:    -6.728      3.136      7.914
REMARK INTER + INTRA:         -10.330
REMARK INTER:                  -9.510
REMARK INTRA:                  -0.821
REMARK UNBOUND:                -0.849
REMARK  Name = 
REMARK  8 active torsions:
REMARK  status: ('A' for Active; 'I' for Inactive)
REMARK    1  A    between atoms: C_1  and  C_2
REMARK    2  A    between atoms: C_5  and  N_6
REMARK    3  A    between atoms: N_6  and  C_7
REMARK    4  A    between atoms: C_7  and  C_8
REMARK    5  A    between atoms: C_8  and  C_11
REMARK    6  A    between atoms: C_15  and  O_16
REMARK    7  A    between atoms: O_16  and  C_17
REMARK    8  A    between atoms: C_23  and  C_24
REMARK                            x       y       z     vdW  Elec       q    Type
REMARK                         _______ _______ _______ _____ _____    ______ ____
ROOT
ATOM      1  C   UNL     1      47.138   6.168  13.472  0.00  0.00    +0.000 C 
ENDROOT
BRANCH   1   2
ATOM      2  C   UNL     1      46.318   6.613  12.230  0.00  0.00    +0.000 C 
ATOM      3  F   UNL     1      45.879   7.891  12.455  0.00  0.00    +0.000 F 
ATOM      4  F   UNL     1      47.162   6.720  11.158  0.00  0.00    +0.000 F 
BRANCH   2   5
ATOM      5  C   UNL     1      45.173   5.654  11.943  0.00  0.00    +0.000 A 
ATOM      6  C   UNL     1      44.047   5.638  12.773  0.00  0.00    +0.000 A 
ATOM      7  C   UNL     1      42.972   4.789  12.493  0.00  0.00    +0.000 A 
ATOM      8  C   UNL     1      43.012   3.939  11.385  0.00  0.00    +0.000 A 
ATOM      9  C   UNL     1      44.136   3.930  10.563  0.00  0.00    +0.000 A 
ATOM     10  C   UNL     1      45.209   4.788  10.841  0.00  0.00    +0.000 A 
BRANCH   9  11
ATOM     11  O   UNL     1      44.289   3.162   9.436  0.00  0.00    +0.000 OA
BRANCH  11  12
ATOM     12  C   UNL     1      45.600   3.008   8.845  0.00  0.00    +0.000 C 
ATOM     13  C   UNL     1      45.775   3.358   7.359  0.00  0.00    +0.000 C 
ATOM     14  O   UNL     1      46.334   2.054   7.069  0.00  0.00    +0.000 OA
ATOM     15  C   UNL     1      45.931   1.581   8.377  0.00  0.00    +0.000 C 
ENDBRANCH  11  12
ENDBRANCH   9  11
ENDBRANCH   2   5
ENDBRANCH   1   2
BRANCH   1  16
ATOM     16  N   UNL     1      47.206   4.693  13.617  0.00  0.00    +0.000 N 
ATOM     17  H   UNL     1      47.840   4.274  12.941  0.00  0.00    +0.000 HD
BRANCH  16  22
ATOM     18  C   UNL     1      48.544   2.876  18.829  0.00  0.00    +0.000 C 
ATOM     19  C   UNL     1      48.143   3.421  17.490  0.00  0.00    +0.000 A 
ATOM     20  C   UNL     1      48.185   2.594  16.376  0.00  0.00    +0.000 A 
ATOM     21  N   UNL     1      47.871   2.975  15.118  0.00  0.00    +0.000 NA
ATOM     22  C   UNL     1      47.469   4.242  14.917  0.00  0.00    +0.000 A 
ATOM     23  C   UNL     1      47.396   5.149  15.970  0.00  0.00    +0.000 A 
ATOM     24  C   UNL     1      47.737   4.744  17.271  0.00  0.00    +0.000 A 
BRANCH  24  25
ATOM     25  C   UNL     1      47.636   5.714  18.401  0.00  0.00    +0.000 C 
ATOM     26  N   UNL     1      46.449   5.772  19.082  0.00  0.00    +0.000 N 
ATOM     27  O   UNL     1      48.555   6.456  18.722  0.00  0.00    +0.000 OA
ATOM     28  H   UNL     1      45.598   5.333  18.768  0.00  0.00    +0.000 HD
ATOM     29  H   UNL     1      46.373   6.495  19.789  0.00  0.00    +0.000 HD
ENDBRANCH  24  25
ENDBRANCH  16  22
ENDBRANCH   1  16
TORSDOF 7
ENDMDL
MODEL 7
REMARK VINA RESULT:    -6.708      3.094      8.101
REMARK INTER + INTRA:         -10.303
REMARK INTER:                  -9.646
REMARK INTRA:                  -0.656
REMARK UNBOUND:                -0.849
REMARK  Name = 
REMARK  8 active torsions:
REMARK  status: ('A' for Active; 'I' for Inactive)
REMARK    1  A    between atoms: C_1  and  C_2
REMARK    2  A    between atoms: C_5  and  N_6
REMARK    3  A    between atoms: N_6  and  C_7
REMARK    4  A    between atoms: C_7  and  C_8
REMARK    5  A    between atoms: C_8  and  C_11
REMARK    6  A    between atoms: C_15  and  O_16
REMARK    7  A    between atoms: O_16  and  C_17
REMARK    8  A    between atoms: C_23  and  C_24
REMARK                            x       y       z     vdW  Elec       q    Type
REMARK                         _______ _______ _______ _____ _____    ______ ____
ROOT
ATOM      1  C   UNL     1      46.966   6.657  11.704  0.00  0.00    +0.000 C 
ENDROOT
BRANCH   1   2
ATOM      2  C   UNL     1      45.445   6.342  11.726  0.00  0.00    +0.000 C 
ATOM      3  F   UNL     1      45.069   6.188  13.034  0.00  0.00    +0.000 F 
ATOM      4  F   UNL     1      44.758   7.444  11.294  0.00  0.00    +0.000 F 
BRANCH   2   5
ATOM      5  C   UNL     1      45.116   5.118  10.885  0.00  0.00    +0.000 A 
ATOM      6  C   UNL     1      44.366   4.072  11.432  0.00  0.00    +0.000 A 
ATOM      7  C   UNL     1      44.023   2.962  10.654  0.00  0.00    +0.000 A 
ATOM      8  C   UNL     1      44.433   2.879   9.321  0.00  0.00    +0.000 A 
ATOM      9  C   UNL     1      45.198   3.904   8.770  0.00  0.00    +0.000 A 
ATOM     10  C   UNL     1      45.533   5.020   9.550  0.00  0.00    +0.000 A 
BRANCH   9  11
ATOM     11  O   UNL     1      45.642   3.954   7.472  0.00  0.00    +0.000 OA
BRANCH  11  12
ATOM     12  C   UNL     1      46.897   3.329   7.118  0.00  0.00    +0.000 C 
ATOM     13  C   UNL     1      47.067   2.794   5.688  0.00  0.00    +0.000 C 
ATOM     14  O   UNL     1      47.427   1.477   6.171  0.00  0.00    +0.000 OA
ATOM     15  C   UNL     1      47.007   1.844   7.507  0.00  0.00    +0.000 C 
ENDBRANCH  11  12
ENDBRANCH   9  11
ENDBRANCH   2   5
ENDBRANCH   1   2
BRANCH   1  16
ATOM     16  N   UNL     1      47.265   8.065  12.066  0.00  0.00    +0.000 N 
ATOM     17  H   UNL     1      46.444   8.660  11.987  0.00  0.00    +0.000 HD
BRANCH  16  22
ATOM     18  C   UNL     1      49.610   8.839  17.180  0.00  0.00    +0.000 C 
ATOM     19  C   UNL     1      49.017   8.550  15.834  0.00  0.00    +0.000 A 
ATOM     20  C   UNL     1      48.805   9.593  14.943  0.00  0.00    +0.000 A 
ATOM     21  N   UNL     1      48.257   9.460  13.714  0.00  0.00    +0.000 NA
ATOM     22  C   UNL     1      47.902   8.231  13.303  0.00  0.00    +0.000 A 
ATOM     23  C   UNL     1      48.072   7.120  14.124  0.00  0.00    +0.000 A 
ATOM     24  C   UNL     1      48.631   7.273  15.404  0.00  0.00    +0.000 A 
BRANCH  24  25
ATOM     25  C   UNL     1      48.832   6.076  16.274  0.00  0.00    +0.000 C 
ATOM     26  N   UNL     1      47.747   5.608  16.966  0.00  0.00    +0.000 N 
ATOM     27  O   UNL     1      49.916   5.521  16.399  0.00  0.00    +0.000 OA
ATOM     28  H   UNL     1      46.878   6.110  17.058  0.00  0.00    +0.000 HD
ATOM     29  H   UNL     1      47.923   4.849  17.615  0.00  0.00    +0.000 HD
ENDBRANCH  24  25
ENDBRANCH  16  22
ENDBRANCH   1  16
TORSDOF 7
ENDMDL
MODEL 8
REMARK VINA RESULT:    -6.384      4.271      7.710
REMARK INTER + INTRA:          -9.846
REMARK INTER:                  -8.935
REMARK INTRA:                  -0.911
REMARK UNBOUND:                -0.849
REMARK  Name = 
REMARK  8 active torsions:
REMARK  status: ('A' for Active; 'I' for Inactive)
REMARK    1  A    between atoms: C_1  and  C_2
REMARK    2  A    between atoms: C_5  and  N_6
REMARK    3  A    between atoms: N_6  and  C_7
REMARK    4  A    between atoms: C_7  and  C_8
REMARK    5  A    between atoms: C_8  and  C_11
REMARK    6  A    between atoms: C_15  and  O_16
REMARK    7  A    between atoms: O_16  and  C_17
REMARK    8  A    between atoms: C_23  and  C_24
REMARK                            x       y       z     vdW  Elec       q    Type
REMARK                         _______ _______ _______ _____ _____    ______ ____
ROOT
ATOM      1  C   UNL     1      48.784   8.458  14.084  0.00  0.00    +0.000 C 
ENDROOT
BRANCH   1   2
ATOM      2  C   UNL     1      48.649   7.681  12.746  0.00  0.00    +0.000 C 
ATOM      3  F   UNL     1      49.463   8.288  11.826  0.00  0.00    +0.000 F 
ATOM      4  F   UNL     1      49.177   6.429  12.905  0.00  0.00    +0.000 F 
BRANCH   2   5
ATOM      5  C   UNL     1      47.202   7.619  12.280  0.00  0.00    +0.000 A 
ATOM      6  C   UNL     1      46.344   8.699  12.511  0.00  0.00    +0.000 A 
ATOM      7  C   UNL     1      45.024   8.667  12.050  0.00  0.00    +0.000 A 
ATOM      8  C   UNL     1      44.543   7.552  11.360  0.00  0.00    +0.000 A 
ATOM      9  C   UNL     1      45.381   6.461  11.143  0.00  0.00    +0.000 A 
ATOM     10  C   UNL     1      46.705   6.499  11.598  0.00  0.00    +0.000 A 
BRANCH   9  11
ATOM     11  O   UNL     1      45.038   5.320  10.462  0.00  0.00    +0.000 OA
BRANCH  11  12
ATOM     12  C   UNL     1      44.742   4.109  11.194  0.00  0.00    +0.000 C 
ATOM     13  C   UNL     1      44.156   2.916  10.424  0.00  0.00    +0.000 C 
ATOM     14  O   UNL     1      43.028   2.825  11.327  0.00  0.00    +0.000 OA
ATOM     15  C   UNL     1      43.378   4.105  11.906  0.00  0.00    +0.000 C 
ENDBRANCH  11  12
ENDBRANCH   9  11
ENDBRANCH   2   5
ENDBRANCH   1   2
BRANCH   1  16
ATOM     16  N   UNL     1      48.012   7.838  15.189  0.00  0.00    +0.000 N 
ATOM     17  H   UNL     1      47.084   7.549  14.888  0.00  0.00    +0.000 HD
BRANCH  16  22
ATOM     18  C   UNL     1      50.613   3.763  18.168  0.00  0.00    +0.000 C 
ATOM     19  C   UNL     1      49.888   4.775  17.333  0.00  0.00    +0.000 A 
ATOM     20  C   UNL     1      50.381   6.069  17.248  0.00  0.00    +0.000 A 
ATOM     21  N   UNL     1      49.804   7.072  16.548  0.00  0.00    +0.000 NA
ATOM     22  C   UNL     1      48.677   6.807  15.865  0.00  0.00    +0.000 A 
ATOM     23  C   UNL     1      48.102   5.540  15.889  0.00  0.00    +0.000 A 
ATOM     24  C   UNL     1      48.705   4.510  16.629  0.00  0.00    +0.000 A 
BRANCH  24  25
ATOM     25  C   UNL     1      48.097   3.146  16.635  0.00  0.00    +0.000 C 
ATOM     26  N   UNL     1      47.098   2.903  17.541  0.00  0.00    +0.000 N 
ATOM     27  O   UNL     1      48.464   2.253  15.884  0.00  0.00    +0.000 OA
ATOM     28  H   UNL     1      46.867   3.519  18.305  0.00  0.00    +0.000 HD
ATOM     29  H   UNL     1      46.758   1.948  17.587  0.00  0.00    +0.000 HD
ENDBRANCH  24  25
ENDBRANCH  16  22
ENDBRANCH   1  16
TORSDOF 7
ENDMDL
MODEL 9
REMARK VINA RESULT:    -6.367      2.805      4.433
REMARK INTER + INTRA:          -9.821
REMARK INTER:                  -9.325
REMARK INTRA:                  -0.496
REMARK UNBOUND:                -0.849
REMARK  Name = 
REMARK  8 active torsions:
REMARK  status: ('A' for Active; 'I' for Inactive)
REMARK    1  A    between atoms: C_1  and  C_2
REMARK    2  A    between atoms: C_5  and  N_6
REMARK    3  A    between atoms: N_6  and  C_7
REMARK    4  A    between atoms: C_7  and  C_8
REMARK    5  A    between atoms: C_8  and  C_11
REMARK    6  A    between atoms: C_15  and  O_16
REMARK    7  A    between atoms: O_16  and  C_17
REMARK    8  A    between atoms: C_23  and  C_24
REMARK                            x       y       z     vdW  Elec       q    Type
REMARK                         _______ _______ _______ _____ _____    ______ ____
ROOT
ATOM      1  C   UNL     1      46.411   8.160  13.121  0.00  0.00    +0.000 C 
ENDROOT
BRANCH   1   2
ATOM      2  C   UNL     1      47.912   7.769  13.182  0.00  0.00    +0.000 C 
ATOM      3  F   UNL     1      48.075   6.619  12.455  0.00  0.00    +0.000 F 
ATOM      4  F   UNL     1      48.643   8.711  12.511  0.00  0.00    +0.000 F 
BRANCH   2   5
ATOM      5  C   UNL     1      48.391   7.614  14.617  0.00  0.00    +0.000 A 
ATOM      6  C   UNL     1      48.395   8.717  15.478  0.00  0.00    +0.000 A 
ATOM      7  C   UNL     1      48.793   8.575  16.811  0.00  0.00    +0.000 A 
ATOM      8  C   UNL     1      49.202   7.331  17.298  0.00  0.00    +0.000 A 
ATOM      9  C   UNL     1      49.223   6.229  16.446  0.00  0.00    +0.000 A 
ATOM     10  C   UNL     1      48.815   6.373  15.113  0.00  0.00    +0.000 A 
BRANCH   9  11
ATOM     11  O   UNL     1      49.580   4.954  16.805  0.00  0.00    +0.000 OA
BRANCH  11  12
ATOM     12  C   UNL     1      48.645   4.126  17.534  0.00  0.00    +0.000 C 
ATOM     13  C   UNL     1      47.951   2.978  16.785  0.00  0.00    +0.000 C 
ATOM     14  O   UNL     1      46.639   3.459  17.165  0.00  0.00    +0.000 OA
ATOM     15  C   UNL     1      47.221   4.699  17.634  0.00  0.00    +0.000 C 
ENDBRANCH  11  12
ENDBRANCH   9  11
ENDBRANCH   2   5
ENDBRANCH   1   2
BRANCH   1  16
ATOM     16  N   UNL     1      45.762   7.751  11.851  0.00  0.00    +0.000 N 
ATOM     17  H   UNL     1      46.372   7.895  11.049  0.00  0.00    +0.000 HD
BRANCH  16  22
ATOM     18  C   UNL     1      43.309   2.629  11.850  0.00  0.00    +0.000 C 
ATOM     19  C   UNL     1      44.010   3.953  11.784  0.00  0.00    +0.000 A 
ATOM     20  C   UNL     1      43.990   4.791  12.890  0.00  0.00    +0.000 A 
ATOM     21  N   UNL     1      44.563   6.015  12.943  0.00  0.00    +0.000 NA
ATOM     22  C   UNL     1      45.219   6.459  11.858  0.00  0.00    +0.000 A 
ATOM     23  C   UNL     1      45.293   5.694  10.698  0.00  0.00    +0.000 A 
ATOM     24  C   UNL     1      44.684   4.429  10.651  0.00  0.00    +0.000 A 
BRANCH  24  25
ATOM     25  C   UNL     1      44.784   3.602   9.412  0.00  0.00    +0.000 C 
ATOM     26  N   UNL     1      44.136   4.055   8.294  0.00  0.00    +0.000 N 
ATOM     27  O   UNL     1      45.400   2.545   9.369  0.00  0.00    +0.000 OA
ATOM     28  H   UNL     1      43.466   4.810   8.298  0.00  0.00    +0.000 HD
ATOM     29  H   UNL     1      44.144   3.438   7.490  0.00  0.00    +0.000 HD
ENDBRANCH  24  25
ENDBRANCH  16  22
ENDBRANCH   1  16
TORSDOF 7
ENDMDL
