MODEL 1
REMARK VINA RESULT:    -7.497      0.000      0.000
REMARK INTER + INTRA:         -10.009
REMARK INTER:                  -9.470
REMARK INTRA:                  -0.539
REMARK UNBOUND:                -0.539
REMARK  Name = 
REMARK  6 active torsions:
REMARK  status: ('A' for Active; 'I' for Inactive)
REMARK    1  A    between atoms: C_1  and  C_2
REMARK    2  A    between atoms: C_2  and  N_3
REMARK    3  A    between atoms: C_2  and  C_4
REMARK    4  A    between atoms: C_7  and  C_8
REMARK    5  A    between atoms: C_8  and  N_9
REMARK    6  A    between atoms: C_14  and  C_15
REMARK                            x       y       z     vdW  Elec       q    Type
REMARK                         _______ _______ _______ _____ _____    ______ ____
ROOT
ATOM      1  C   UNL     1      44.331   5.179  10.634  0.00  0.00    +0.000 C 
ENDROOT
BRANCH   1   2
ATOM      2  N   UNL     1      45.099   5.232  11.879  0.00  0.00    +0.000 N 
ATOM      3  C   UNL     1      44.827   4.448  12.977  0.00  0.00    +0.000 A 
ATOM      4  C   UNL     1      45.810   4.667  13.914  0.00  0.00    +0.000 A 
ATOM      5  C   UNL     1      46.719   5.617  13.377  0.00  0.00    +0.000 A 
ATOM      6  C   UNL     1      47.906   6.201  13.860  0.00  0.00    +0.000 A 
ATOM      7  C   UNL     1      48.604   7.116  13.062  0.00  0.00    +0.000 A 
ATOM      8  C   UNL     1      48.120   7.456  11.796  0.00  0.00    +0.000 A 
ATOM      9  C   UNL     1      46.940   6.887  11.296  0.00  0.00    +0.000 A 
ATOM     10  C   UNL     1      46.254   5.963  12.100  0.00  0.00    +0.000 A 
BRANCH   7  11
ATOM     11  C   UNL     1      49.824   7.701  13.542  0.00  0.00    +0.000 C 
ATOM     12  N   UNL     1      50.811   8.171  13.926  0.00  0.00    +0.000 NA
ENDBRANCH   7  11
ENDBRANCH   1   2
BRANCH   1  16
ATOM     13  C   UNL     1      46.034   2.379   7.879  0.00  0.00    +0.000 A 
ATOM     14  C   UNL     1      45.221   1.915   8.917  0.00  0.00    +0.000 A 
ATOM     15  C   UNL     1      44.638   2.813   9.805  0.00  0.00    +0.000 A 
ATOM     16  C   UNL     1      44.885   4.174   9.654  0.00  0.00    +0.000 A 
ATOM     17  N   UNL     1      45.615   4.658   8.617  0.00  0.00    +0.000 NA
ATOM     18  C   UNL     1      46.161   3.759   7.759  0.00  0.00    +0.000 A 
BRANCH  13  20
ATOM     19  C   UNL     1      48.123   2.083   6.531  0.00  0.00    +0.000 C 
ATOM     20  C   UNL     1      46.801   1.445   6.973  0.00  0.00    +0.000 C 
BRANCH  20  21
ATOM     21  N   UNL     1      47.051   0.153   7.613  0.00  0.00    +0.000 NA
ATOM     22  H   UNL     1      48.043   0.064   7.828  0.00  0.00    +0.000 HD
ATOM     23  H   UNL     1      46.849  -0.594   6.948  0.00  0.00    +0.000 HD
ENDBRANCH  20  21
ENDBRANCH  13  20
ENDBRANCH   1  16
TORSDOF 5
ENDMDL
MODEL 2
REMARK VINA RESULT:    -7.404      1.631      2.318
REMARK INTER + INTRA:          -9.891
REMARK INTER:                  -9.386
REMARK INTRA:                  -0.504
REMARK UNBOUND:                -0.539
REMARK  Name = 
REMARK  6 active torsions:
REMARK  status: ('A' for Active; 'I' for Inactive)
REMARK    1  A    between atoms: C_1  and  C_2
REMARK    2  A    between atoms: C_2  and  N_3
REMARK    3  A    between atoms: C_2  and  C_4
REMARK    4  A    between atoms: C_7  and  C_8
REMARK    5  A    between atoms: C_8  and  N_9
REMARK    6  A    between atoms: C_14  and  C_15
REMARK                            x       y       z     vdW  Elec       q    Type
REMARK                         _______ _______ _______ _____ _____    ______ ____
ROOT
ATOM      1  C   UNL     1      43.899   4.889  10.360  0.00  0.00    +0.000 C 
ENDROOT
BRANCH   1   2
ATOM      2  N   UNL     1      44.819   5.656  11.202  0.00  0.00    +0.000 N 
ATOM      3  C   UNL     1      44.970   7.021  11.120  0.00  0.00    +0.000 A 
ATOM      4  C   UNL     1      45.814   7.421  12.129  0.00  0.00    +0.000 A 
ATOM      5  C   UNL     1      46.196   6.264  12.859  0.00  0.00    +0.000 A 
ATOM      6  C   UNL     1      47.013   6.059  13.988  0.00  0.00    +0.000 A 
ATOM      7  C   UNL     1      47.183   4.764  14.496  0.00  0.00    +0.000 A 
ATOM      8  C   UNL     1      46.554   3.680  13.879  0.00  0.00    +0.000 A 
ATOM      9  C   UNL     1      45.737   3.862  12.753  0.00  0.00    +0.000 A 
ATOM     10  C   UNL     1      45.565   5.165  12.260  0.00  0.00    +0.000 A 
BRANCH   7  11
ATOM     11  C   UNL     1      48.001   4.550  15.656  0.00  0.00    +0.000 C 
ATOM     12  N   UNL     1      48.660   4.373  16.592  0.00  0.00    +0.000 NA
ENDBRANCH   7  11
ENDBRANCH   1   2
BRANCH   1  16
ATOM     13  C   UNL     1      46.057   2.202   7.820  0.00  0.00    +0.000 A 
ATOM     14  C   UNL     1      45.220   1.686   8.813  0.00  0.00    +0.000 A 
ATOM     15  C   UNL     1      44.491   2.545   9.630  0.00  0.00    +0.000 A 
ATOM     16  C   UNL     1      44.616   3.919   9.453  0.00  0.00    +0.000 A 
ATOM     17  N   UNL     1      45.370   4.446   8.455  0.00  0.00    +0.000 NA
ATOM     18  C   UNL     1      46.060   3.584   7.665  0.00  0.00    +0.000 A 
BRANCH  13  20
ATOM     19  C   UNL     1      48.246   2.087   6.610  0.00  0.00    +0.000 C 
ATOM     20  C   UNL     1      46.974   1.326   7.000  0.00  0.00    +0.000 C 
BRANCH  20  21
ATOM     21  N   UNL     1      47.319   0.092   7.706  0.00  0.00    +0.000 NA
ATOM     22  H   UNL     1      48.332   0.001   7.762  0.00  0.00    +0.000 HD
ATOM     23  H   UNL     1      47.005  -0.708   7.156  0.00  0.00    +0.000 HD
ENDBRANCH  20  21
ENDBRANCH  13  20
ENDBRANCH   1  16
TORSDOF 5
ENDMDL
MODEL 3
REMARK VINA RESULT:    -7.183      1.774      6.744
REMARK INTER + INTRA:          -9.612
REMARK INTER:                  -9.157
REMARK INTRA:                  -0.455
REMARK UNBOUND:                -0.539
REMARK  Name = 
REMARK  6 active torsions:
REMARK  status: ('A' for Active; 'I' for Inactive)
REMARK    1  A    between atoms: C_1  and  C_2
REMARK    2  A    between atoms: C_2  and  N_3
REMARK    3  A    between atoms: C_2  and  C_4
REMARK    4  A    between atoms: C_7  and  C_8
REMARK    5  A    between atoms: C_8  and  N_9
REMARK    6  A    between atoms: C_14  and  C_15
REMARK                            x       y       z     vdW  Elec       q    Type
REMARK                         _______ _______ _______ _____ _____    ______ ____
ROOT
ATOM      1  C   UNL     1      43.437   5.770  10.894  0.00  0.00    +0.000 C 
ENDROOT
BRANCH   1   2
ATOM      2  N   UNL     1      43.894   4.405  10.633  0.00  0.00    +0.000 N 
ATOM      3  C   UNL     1      43.390   3.296  11.272  0.00  0.00    +0.000 A 
ATOM      4  C   UNL     1      43.953   2.178  10.703  0.00  0.00    +0.000 A 
ATOM      5  C   UNL     1      44.834   2.612   9.676  0.00  0.00    +0.000 A 
ATOM      6  C   UNL     1      45.656   1.932   8.757  0.00  0.00    +0.000 A 
ATOM      7  C   UNL     1      46.413   2.662   7.831  0.00  0.00    +0.000 A 
ATOM      8  C   UNL     1      46.361   4.058   7.827  0.00  0.00    +0.000 A 
ATOM      9  C   UNL     1      45.550   4.755   8.735  0.00  0.00    +0.000 A 
ATOM     10  C   UNL     1      44.787   4.012   9.650  0.00  0.00    +0.000 A 
BRANCH   7  11
ATOM     11  C   UNL     1      47.240   1.975   6.880  0.00  0.00    +0.000 C 
ATOM     12  N   UNL     1      47.908   1.417   6.115  0.00  0.00    +0.000 NA
ENDBRANCH   7  11
ENDBRANCH   1   2
BRANCH   1  16
ATOM     13  C   UNL     1      46.425   7.998  13.001  0.00  0.00    +0.000 A 
ATOM     14  C   UNL     1      45.574   8.660  12.111  0.00  0.00    +0.000 A 
ATOM     15  C   UNL     1      44.580   7.956  11.438  0.00  0.00    +0.000 A 
ATOM     16  C   UNL     1      44.454   6.587  11.653  0.00  0.00    +0.000 A 
ATOM     17  N   UNL     1      45.222   5.932  12.560  0.00  0.00    +0.000 NA
ATOM     18  C   UNL     1      46.175   6.647  13.211  0.00  0.00    +0.000 A 
BRANCH  13  20
ATOM     19  C   UNL     1      47.978   9.959  12.889  0.00  0.00    +0.000 C 
ATOM     20  C   UNL     1      47.605   8.682  13.650  0.00  0.00    +0.000 C 
BRANCH  20  21
ATOM     21  N   UNL     1      47.347   8.988  15.057  0.00  0.00    +0.000 NA
ATOM     22  H   UNL     1      47.416   8.136  15.611  0.00  0.00    +0.000 HD
ATOM     23  H   UNL     1      46.382   9.303  15.160  0.00  0.00    +0.000 HD
ENDBRANCH  20  21
ENDBRANCH  13  20
ENDBRANCH   1  16
TORSDOF 5
ENDMDL
MODEL 4
REMARK VINA RESULT:    -5.797      1.835      2.863
REMARK INTER + INTRA:          -7.861
REMARK INTER:                  -7.548
REMARK INTRA:                  -0.313
REMARK UNBOUND:                -0.539
REMARK  Name = 
REMARK  6 active torsions:
REMARK  status: ('A' for Active; 'I' for Inactive)
REMARK    1  A    between atoms: C_1  and  C_2
REMARK    2  A    between atoms: C_2  and  N_3
REMARK    3  A    between atoms: C_2  and  C_4
REMARK    4  A    between atoms: C_7  and  C_8
REMARK    5  A    between atoms: C_8  and  N_9
REMARK    6  A    between atoms: C_14  and  C_15
REMARK                            x       y       z     vdW  Elec       q    Type
REMARK                         _______ _______ _______ _____ _____    ______ ____
ROOT
ATOM      1  C   UNL     1      45.239   6.258  12.890  0.00  0.00    +0.000 C 
ENDROOT
BRANCH   1   2
ATOM      2  N   UNL     1      45.873   7.519  12.504  0.00  0.00    +0.000 N 
ATOM      3  C   UNL     1      45.190   8.706  12.366  0.00  0.00    +0.000 A 
ATOM      4  C   UNL     1      46.105   9.701  12.116  0.00  0.00    +0.000 A 
ATOM      5  C   UNL     1      47.396   9.110  12.100  0.00  0.00    +0.000 A 
ATOM      6  C   UNL     1      48.694   9.626  11.917  0.00  0.00    +0.000 A 
ATOM      7  C   UNL     1      49.798   8.765  11.978  0.00  0.00    +0.000 A 
ATOM      8  C   UNL     1      49.612   7.400  12.209  0.00  0.00    +0.000 A 
ATOM      9  C   UNL     1      48.328   6.865  12.393  0.00  0.00    +0.000 A 
ATOM     10  C   UNL     1      47.230   7.739  12.341  0.00  0.00    +0.000 A 
BRANCH   7  11
ATOM     11  C   UNL     1      51.125   9.287  11.809  0.00  0.00    +0.000 C 
ATOM     12  N   UNL     1      52.196   9.705  11.670  0.00  0.00    +0.000 NA
ENDBRANCH   7  11
ENDBRANCH   1   2
BRANCH   1  16
ATOM     13  C   UNL     1      45.008   3.558   9.575  0.00  0.00    +0.000 A 
ATOM     14  C   UNL     1      44.646   3.114  10.849  0.00  0.00    +0.000 A 
ATOM     15  C   UNL     1      44.690   3.986  11.934  0.00  0.00    +0.000 A 
ATOM     16  C   UNL     1      45.109   5.297  11.733  0.00  0.00    +0.000 A 
ATOM     17  N   UNL     1      45.402   5.774  10.496  0.00  0.00    +0.000 NA
ATOM     18  C   UNL     1      45.338   4.904   9.456  0.00  0.00    +0.000 A 
BRANCH  13  20
ATOM     19  C   UNL     1      46.002   3.229   7.300  0.00  0.00    +0.000 C 
ATOM     20  C   UNL     1      45.112   2.625   8.392  0.00  0.00    +0.000 C 
BRANCH  20  21
ATOM     21  N   UNL     1      45.615   1.308   8.784  0.00  0.00    +0.000 NA
ATOM     22  H   UNL     1      46.489   1.116   8.296  0.00  0.00    +0.000 HD
ATOM     23  H   UNL     1      44.962   0.592   8.465  0.00  0.00    +0.000 HD
ENDBRANCH  20  21
ENDBRANCH  13  20
ENDBRANCH   1  16
TORSDOF 5
ENDMDL
MODEL 5
REMARK VINA RESULT:    -5.667      3.854      8.478
REMARK INTER + INTRA:          -7.697
REMARK INTER:                  -7.225
REMARK INTRA:                  -0.472
REMARK UNBOUND:                -0.539
REMARK  Name = 
REMARK  6 active torsions:
REMARK  status: ('A' for Active; 'I' for Inactive)
REMARK    1  A    between atoms: C_1  and  C_2
REMARK    2  A    between atoms: C_2  and  N_3
REMARK    3  A    between atoms: C_2  and  C_4
REMARK    4  A    between atoms: C_7  and  C_8
REMARK    5  A    between atoms: C_8  and  N_9
REMARK    6  A    between atoms: C_14  and  C_15
REMARK                            x       y       z     vdW  Elec       q    Type
REMARK                         _______ _______ _______ _____ _____    ______ ____
ROOT
ATOM      1  C   UNL     1      49.037   6.693  14.768  0.00  0.00    +0.000 C 
ENDROOT
BRANCH   1   2
ATOM      2  N   UNL     1      47.777   6.857  14.040  0.00  0.00    +0.000 N 
ATOM      3  C   UNL     1      47.290   8.073  13.622  0.00  0.00    +0.000 A 
ATOM      4  C   UNL     1      46.160   7.848  12.871  0.00  0.00    +0.000 A 
ATOM      5  C   UNL     1      45.944   6.445  12.821  0.00  0.00    +0.000 A 
ATOM      6  C   UNL     1      44.974   5.637  12.196  0.00  0.00    +0.000 A 
ATOM      7  C   UNL     1      45.045   4.244  12.323  0.00  0.00    +0.000 A 
ATOM      8  C   UNL     1      46.066   3.659  13.077  0.00  0.00    +0.000 A 
ATOM      9  C   UNL     1      47.041   4.445  13.708  0.00  0.00    +0.000 A 
ATOM     10  C   UNL     1      46.966   5.839  13.564  0.00  0.00    +0.000 A 
BRANCH   7  11
ATOM     11  C   UNL     1      44.070   3.414  11.674  0.00  0.00    +0.000 C 
ATOM     12  N   UNL     1      43.280   2.748  11.151  0.00  0.00    +0.000 NA
ENDBRANCH   7  11
ENDBRANCH   1   2
BRANCH   1  16
ATOM     13  C   UNL     1      48.564   5.594  18.879  0.00  0.00    +0.000 A 
ATOM     14  C   UNL     1      48.390   6.928  18.499  0.00  0.00    +0.000 A 
ATOM     15  C   UNL     1      48.514   7.298  17.163  0.00  0.00    +0.000 A 
ATOM     16  C   UNL     1      48.825   6.328  16.217  0.00  0.00    +0.000 A 
ATOM     17  N   UNL     1      48.933   5.015  16.546  0.00  0.00    +0.000 NA
ATOM     18  C   UNL     1      48.795   4.682  17.855  0.00  0.00    +0.000 A 
BRANCH  13  20
ATOM     19  C   UNL     1      47.536   5.939  21.136  0.00  0.00    +0.000 C 
ATOM     20  C   UNL     1      48.579   5.161  20.325  0.00  0.00    +0.000 C 
BRANCH  20  21
ATOM     21  N   UNL     1      48.355   3.722  20.463  0.00  0.00    +0.000 NA
ATOM     22  H   UNL     1      47.410   3.553  20.802  0.00  0.00    +0.000 HD
ATOM     23  H   UNL     1      48.974   3.354  21.186  0.00  0.00    +0.000 HD
ENDBRANCH  20  21
ENDBRANCH  13  20
ENDBRANCH   1  16
TORSDOF 5
ENDMDL
MODEL 6
REMARK VINA RESULT:    -5.625      2.548      4.428
REMARK INTER + INTRA:          -7.644
REMARK INTER:                  -7.310
REMARK INTRA:                  -0.333
REMARK UNBOUND:                -0.539
REMARK  Name = 
REMARK  6 active torsions:
REMARK  status: ('A' for Active; 'I' for Inactive)
REMARK    1  A    between atoms: C_1  and  C_2
REMARK    2  A    between atoms: C_2  and  N_3
REMARK    3  A    between atoms: C_2  and  C_4
REMARK    4  A    between atoms: C_7  and  C_8
REMARK    5  A    between atoms: C_8  and  N_9
REMARK    6  A    between atoms: C_14  and  C_15
REMARK                            x       y       z     vdW  Elec       q    Type
REMARK                         _______ _______ _______ _____ _____    ______ ____
ROOT
ATOM      1  C   UNL     1      47.136   6.737  13.509  0.00  0.00    +0.000 C 
ENDROOT
BRANCH   1   2
ATOM      2  N   UNL     1      47.399   7.995  12.808  0.00  0.00    +0.000 N 
ATOM      3  C   UNL     1      46.502   9.036  12.745  0.00  0.00    +0.000 A 
ATOM      4  C   UNL     1      47.116  10.096  12.120  0.00  0.00    +0.000 A 
ATOM      5  C   UNL     1      48.437   9.696  11.786  0.00  0.00    +0.000 A 
ATOM      6  C   UNL     1      49.518  10.352  11.165  0.00  0.00    +0.000 A 
ATOM      7  C   UNL     1      50.733   9.676  10.991  0.00  0.00    +0.000 A 
ATOM      8  C   UNL     1      50.868   8.354  11.423  0.00  0.00    +0.000 A 
ATOM      9  C   UNL     1      49.805   7.682  12.043  0.00  0.00    +0.000 A 
ATOM     10  C   UNL     1      48.596   8.374  12.222  0.00  0.00    +0.000 A 
BRANCH   7  11
ATOM     11  C   UNL     1      51.843  10.344  10.374  0.00  0.00    +0.000 C 
ATOM     12  N   UNL     1      52.739  10.886   9.879  0.00  0.00    +0.000 NA
ENDBRANCH   7  11
ENDBRANCH   1   2
BRANCH   1  16
ATOM     13  C   UNL     1      44.839   3.948  11.212  0.00  0.00    +0.000 A 
ATOM     14  C   UNL     1      45.273   5.136  10.617  0.00  0.00    +0.000 A 
ATOM     15  C   UNL     1      46.044   6.041  11.341  0.00  0.00    +0.000 A 
ATOM     16  C   UNL     1      46.362   5.755  12.664  0.00  0.00    +0.000 A 
ATOM     17  N   UNL     1      46.011   4.580  13.247  0.00  0.00    +0.000 NA
ATOM     18  C   UNL     1      45.271   3.710  12.512  0.00  0.00    +0.000 A 
BRANCH  13  20
ATOM     19  C   UNL     1      44.609   2.219   9.416  0.00  0.00    +0.000 C 
ATOM     20  C   UNL     1      43.889   2.998  10.522  0.00  0.00    +0.000 C 
BRANCH  20  21
ATOM     21  N   UNL     1      43.264   2.074  11.468  0.00  0.00    +0.000 NA
ATOM     22  H   UNL     1      43.978   1.661  12.066  0.00  0.00    +0.000 HD
ATOM     23  H   UNL     1      42.856   1.293  10.953  0.00  0.00    +0.000 HD
ENDBRANCH  20  21
ENDBRANCH  13  20
ENDBRANCH   1  16
TORSDOF 5
ENDMDL
MODEL 7
REMARK VINA RESULT:    -5.480      4.386      7.164
REMARK INTER + INTRA:          -7.461
REMARK INTER:                  -6.892
REMARK INTRA:                  -0.569
REMARK UNBOUND:                -0.539
REMARK  Name = 
REMARK  6 active torsions:
REMARK  status: ('A' for Active; 'I' for Inactive)
REMARK    1  A    between atoms: C_1  and  C_2
REMARK    2  A    between atoms: C_2  and  N_3
REMARK    3  A    between atoms: C_2  and  C_4
REMARK    4  A    between atoms: C_7  and  C_8
REMARK    5  A    between atoms: C_8  and  N_9
REMARK    6  A    between atoms: C_14  and  C_15
REMARK                            x       y       z     vdW  Elec       q    Type
REMARK                         _______ _______ _______ _____ _____    ______ ____
ROOT
ATOM      1  C   UNL     1      47.242   4.659  16.380  0.00  0.00    +0.000 C 
ENDROOT
BRANCH   1   2
ATOM      2  N   UNL     1      47.220   5.017  14.961  0.00  0.00    +0.000 N 
ATOM      3  C   UNL     1      46.393   4.422  14.036  0.00  0.00    +0.000 A 
ATOM      4  C   UNL     1      46.547   5.077  12.838  0.00  0.00    +0.000 A 
ATOM      5  C   UNL     1      47.500   6.113  13.029  0.00  0.00    +0.000 A 
ATOM      6  C   UNL     1      48.035   7.103  12.182  0.00  0.00    +0.000 A 
ATOM      7  C   UNL     1      48.970   8.016  12.686  0.00  0.00    +0.000 A 
ATOM      8  C   UNL     1      49.379   7.938  14.020  0.00  0.00    +0.000 A 
ATOM      9  C   UNL     1      48.860   6.959  14.880  0.00  0.00    +0.000 A 
ATOM     10  C   UNL     1      47.915   6.057  14.366  0.00  0.00    +0.000 A 
BRANCH   7  11
ATOM     11  C   UNL     1      49.507   9.039  11.833  0.00  0.00    +0.000 C 
ATOM     12  N   UNL     1      49.942   9.866  11.149  0.00  0.00    +0.000 NA
ENDBRANCH   7  11
ENDBRANCH   1   2
BRANCH   1  16
ATOM     13  C   UNL     1      50.695   2.300  17.299  0.00  0.00    +0.000 A 
ATOM     14  C   UNL     1      50.615   3.614  17.769  0.00  0.00    +0.000 A 
ATOM     15  C   UNL     1      49.488   4.386  17.503  0.00  0.00    +0.000 A 
ATOM     16  C   UNL     1      48.452   3.838  16.753  0.00  0.00    +0.000 A 
ATOM     17  N   UNL     1      48.473   2.545  16.340  0.00  0.00    +0.000 NA
ATOM     18  C   UNL     1      49.580   1.812  16.626  0.00  0.00    +0.000 A 
BRANCH  13  20
ATOM     19  C   UNL     1      53.047   2.256  18.155  0.00  0.00    +0.000 C 
ATOM     20  C   UNL     1      51.946   1.466  17.438  0.00  0.00    +0.000 C 
BRANCH  20  21
ATOM     21  N   UNL     1      51.685   0.210  18.142  0.00  0.00    +0.000 NA
ATOM     22  H   UNL     1      52.411  -0.467  17.915  0.00  0.00    +0.000 HD
ATOM     23  H   UNL     1      50.816  -0.194  17.793  0.00  0.00    +0.000 HD
ENDBRANCH  20  21
ENDBRANCH  13  20
ENDBRANCH   1  16
TORSDOF 5
ENDMDL
MODEL 8
REMARK VINA RESULT:    -5.352      4.263      7.399
REMARK INTER + INTRA:          -7.298
REMARK INTER:                  -6.930
REMARK INTRA:                  -0.368
REMARK UNBOUND:                -0.539
REMARK  Name = 
REMARK  6 active torsions:
REMARK  status: ('A' for Active; 'I' for Inactive)
REMARK    1  A    between atoms: C_1  and  C_2
REMARK    2  A    between atoms: C_2  and  N_3
REMARK    3  A    between atoms: C_2  and  C_4
REMARK    4  A    between atoms: C_7  and  C_8
REMARK    5  A    between atoms: C_8  and  N_9
REMARK    6  A    between atoms: C_14  and  C_15
REMARK                            x       y       z     vdW  Elec       q    Type
REMARK                         _______ _______ _______ _____ _____    ______ ____
ROOT
ATOM      1  C   UNL     1      47.138   4.093  13.989  0.00  0.00    +0.000 C 
ENDROOT
BRANCH   1   2
ATOM      2  N   UNL     1      46.115   4.968  13.414  0.00  0.00    +0.000 N 
ATOM      3  C   UNL     1      44.782   4.635  13.337  0.00  0.00    +0.000 A 
ATOM      4  C   UNL     1      44.095   5.725  12.858  0.00  0.00    +0.000 A 
ATOM      5  C   UNL     1      45.034   6.766  12.632  0.00  0.00    +0.000 A 
ATOM      6  C   UNL     1      44.916   8.093  12.174  0.00  0.00    +0.000 A 
ATOM      7  C   UNL     1      46.059   8.897  12.076  0.00  0.00    +0.000 A 
ATOM      8  C   UNL     1      47.312   8.383  12.420  0.00  0.00    +0.000 A 
ATOM      9  C   UNL     1      47.452   7.064  12.878  0.00  0.00    +0.000 A 
ATOM     10  C   UNL     1      46.298   6.271  12.983  0.00  0.00    +0.000 A 
BRANCH   7  11
ATOM     11  C   UNL     1      45.943  10.256  11.626  0.00  0.00    +0.000 C 
ATOM     12  N   UNL     1      45.854  11.353  11.266  0.00  0.00    +0.000 NA
ENDBRANCH   7  11
ENDBRANCH   1   2
BRANCH   1  16
ATOM     13  C   UNL     1      48.037   4.899  18.097  0.00  0.00    +0.000 A 
ATOM     14  C   UNL     1      48.583   5.714  17.101  0.00  0.00    +0.000 A 
ATOM     15  C   UNL     1      48.280   5.483  15.763  0.00  0.00    +0.000 A 
ATOM     16  C   UNL     1      47.440   4.425  15.430  0.00  0.00    +0.000 A 
ATOM     17  N   UNL     1      46.843   3.659  16.379  0.00  0.00    +0.000 NA
ATOM     18  C   UNL     1      47.147   3.916  17.677  0.00  0.00    +0.000 A 
BRANCH  13  20
ATOM     19  C   UNL     1      47.501   5.971  20.295  0.00  0.00    +0.000 C 
ATOM     20  C   UNL     1      48.439   5.016  19.548  0.00  0.00    +0.000 C 
BRANCH  20  21
ATOM     21  N   UNL     1      48.465   3.712  20.211  0.00  0.00    +0.000 NA
ATOM     22  H   UNL     1      48.709   3.831  21.192  0.00  0.00    +0.000 HD
ATOM     23  H   UNL     1      49.216   3.148  19.810  0.00  0.00    +0.000 HD
ENDBRANCH  20  21
ENDBRANCH  13  20
ENDBRANCH   1  16
TORSDOF 5
ENDMDL
MODEL 9
REMARK VINA RESULT:    -5.332      4.954      8.175
REMARK INTER + INTRA:          -7.273
REMARK INTER:                  -6.747
REMARK INTRA:                  -0.527
REMARK UNBOUND:                -0.539
REMARK  Name = 
REMARK  6 active torsions:
REMARK  status: ('A' for Active; 'I' for Inactive)
REMARK    1  A    between atoms: C_1  and  C_2
REMARK    2  A    between atoms: C_2  and  N_3
REMARK    3  A    between atoms: C_2  and  C_4
REMARK    4  A    between atoms: C_7  and  C_8
REMARK    5  A    between atoms: C_8  and  N_9
REMARK    6  A    between atoms: C_14  and  C_15
REMARK                            x       y       z     vdW  Elec       q    Type
REMARK                         _______ _______ _______ _____ _____    ______ ____
ROOT
ATOM      1  C   UNL     1      48.695   4.774  17.702  0.00  0.00    +0.000 C 
ENDROOT
BRANCH   1   2
ATOM      2  N   UNL     1      48.652   5.676  16.550  0.00  0.00    +0.000 N 
ATOM      3  C   UNL     1      49.467   6.775  16.412  0.00  0.00    +0.000 A 
ATOM      4  C   UNL     1      49.246   7.319  15.168  0.00  0.00    +0.000 A 
ATOM      5  C   UNL     1      48.262   6.529  14.517  0.00  0.00    +0.000 A 
ATOM      6  C   UNL     1      47.661   6.587  13.244  0.00  0.00    +0.000 A 
ATOM      7  C   UNL     1      46.711   5.624  12.881  0.00  0.00    +0.000 A 
ATOM      8  C   UNL     1      46.353   4.616  13.780  0.00  0.00    +0.000 A 
ATOM      9  C   UNL     1      46.939   4.540  15.052  0.00  0.00    +0.000 A 
ATOM     10  C   UNL     1      47.898   5.504  15.401  0.00  0.00    +0.000 A 
BRANCH   7  11
ATOM     11  C   UNL     1      46.107   5.668  11.579  0.00  0.00    +0.000 C 
ATOM     12  N   UNL     1      45.624   5.705  10.527  0.00  0.00    +0.000 NA
ENDBRANCH   7  11
ENDBRANCH   1   2
BRANCH   1  16
ATOM     13  C   UNL     1      51.818   1.850  17.520  0.00  0.00    +0.000 A 
ATOM     14  C   UNL     1      50.568   1.557  16.968  0.00  0.00    +0.000 A 
ATOM     15  C   UNL     1      49.550   2.505  16.994  0.00  0.00    +0.000 A 
ATOM     16  C   UNL     1      49.788   3.740  17.588  0.00  0.00    +0.000 A 
ATOM     17  N   UNL     1      51.011   4.077  18.073  0.00  0.00    +0.000 NA
ATOM     18  C   UNL     1      51.989   3.136  18.022  0.00  0.00    +0.000 A 
BRANCH  13  20
ATOM     19  C   UNL     1      54.152   1.415  18.315  0.00  0.00    +0.000 C 
ATOM     20  C   UNL     1      52.911   0.816  17.643  0.00  0.00    +0.000 C 
BRANCH  20  21
ATOM     21  N   UNL     1      52.459  -0.366  18.378  0.00  0.00    +0.000 NA
ATOM     22  H   UNL     1      51.533  -0.195  18.766  0.00  0.00    +0.000 HD
ATOM     23  H   UNL     1      53.069  -0.512  19.183  0.00  0.00    +0.000 HD
ENDBRANCH  20  21
ENDBRANCH  13  20
ENDBRANCH   1  16
TORSDOF 5
ENDMDL
