MODEL 1
REMARK VINA RESULT:    -6.322      0.000      0.000
REMARK INTER + INTRA:         -11.998
REMARK INTER:                  -9.833
REMARK INTRA:                  -2.165
REMARK UNBOUND:                -2.165
REMARK  Name = 
REMARK  10 active torsions:
REMARK  status: ('A' for Active; 'I' for Inactive)
REMARK    1  A    between atoms: N_1  and  C_2
REMARK    2  A    between atoms: C_2  and  C_3
REMARK    3  A    between atoms: C_3  and  C_4
REMARK    4  A    between atoms: C_4  and  N_5
REMARK    5  A    between atoms: N_5  and  C_6
REMARK    6  A    between atoms: C_6  and  C_7
REMARK    7  A    between atoms: C_10  and  C_11
REMARK    8  A    between atoms: C_11  and  N_12
REMARK    9  A    between atoms: N_12  and  C_13
REMARK   10  A    between atoms: C_20  and  C_22
REMARK                            x       y       z     vdW  Elec       q    Type
REMARK                         _______ _______ _______ _____ _____    ______ ____
ROOT
ATOM      1  N   UNL     1      48.328   9.221  13.809  0.00  0.00    +0.000 N 
ATOM      2  C   UNL     1      48.947   9.721  14.998  0.00  0.00    +0.000 C 
ATOM      3  O   UNL     1      49.780  10.623  14.922  0.00  0.00    +0.000 OA
ENDROOT
BRANCH   2   4
ATOM      4  C   UNL     1      48.639   9.148  16.338  0.00  0.00    +0.000 A 
ATOM      5  C   UNL     1      47.934   9.793  17.335  0.00  0.00    +0.000 A 
ATOM      6  S   UNL     1      47.604   8.871  18.724  0.00  0.00    +0.000 S 
ATOM      7  C   UNL     1      48.330   7.510  18.031  0.00  0.00    +0.000 A 
ATOM      8  N   UNL     1      48.323   6.327  18.698  0.00  0.00    +0.000 NA
ATOM      9  C   UNL     1      48.870   5.356  18.050  0.00  0.00    +0.000 A 
ATOM     10  N   UNL     1      49.456   5.475  16.816  0.00  0.00    +0.000 N 
ATOM     11  C   UNL     1      49.592   6.687  16.158  0.00  0.00    +0.000 A 
ATOM     12  O   UNL     1      50.322   6.784  15.177  0.00  0.00    +0.000 OA
ATOM     13  C   UNL     1      48.884   7.783  16.789  0.00  0.00    +0.000 A 
ATOM     14  H   UNL     1      49.938   4.692  16.401  0.00  0.00    +0.000 HD
ENDBRANCH   2   4
BRANCH   1  15
ATOM     15  C   UNL     1      48.521  10.033  12.589  0.00  0.00    +0.000 C 
BRANCH  15  16
ATOM     16  C   UNL     1      49.364   9.432  11.463  0.00  0.00    +0.000 C 
BRANCH  16  17
ATOM     17  C   UNL     1      50.645   8.757  11.944  0.00  0.00    +0.000 C 
BRANCH  17  18
ATOM     18  N   UNL     1      50.426   7.312  12.017  0.00  0.00    +0.000 NA
ATOM     19  H   UNL     1      49.581   7.114  12.550  0.00  0.00    +0.000 HD
ATOM     20  H   UNL     1      51.196   6.877  12.526  0.00  0.00    +0.000 HD
ENDBRANCH  17  18
ENDBRANCH  16  17
ENDBRANCH  15  16
ENDBRANCH   1  15
BRANCH   1  21
ATOM     21  C   UNL     1      47.059   8.494  13.837  0.00  0.00    +0.000 C 
BRANCH  21  22
ATOM     22  C   UNL     1      46.965   7.177  13.080  0.00  0.00    +0.000 A 
ATOM     23  C   UNL     1      47.101   5.931  13.702  0.00  0.00    +0.000 A 
ATOM     24  C   UNL     1      46.373   4.827  13.235  0.00  0.00    +0.000 A 
ATOM     25  C   UNL     1      45.612   4.919  12.064  0.00  0.00    +0.000 A 
ATOM     26  C   UNL     1      45.720   6.084  11.297  0.00  0.00    +0.000 A 
ATOM     27  C   UNL     1      46.384   7.204  11.803  0.00  0.00    +0.000 A 
BRANCH  25  28
ATOM     28  C   UNL     1      44.594   3.853  11.704  0.00  0.00    +0.000 C 
BRANCH  28  29
ATOM     29  N   UNL     1      45.222   2.848  10.846  0.00  0.00    +0.000 NA
ATOM     30  H   UNL     1      45.445   2.016  11.383  0.00  0.00    +0.000 HD
BRANCH  29  31
ATOM     31  C   UNL     1      44.490   2.496   9.649  0.00  0.00    +0.000 C 
ATOM     32  C   UNL     1      44.601   3.588   8.585  0.00  0.00    +0.000 C 
ATOM     33  C   UNL     1      45.976   3.371   7.974  0.00  0.00    +0.000 C 
ATOM     34  C   UNL     1      46.219   1.879   8.148  0.00  0.00    +0.000 C 
ATOM     35  N   UNL     1      45.128   1.380   8.985  0.00  0.00    +0.000 NA
ATOM     36  H   UNL     1      45.444   0.670   9.633  0.00  0.00    +0.000 HD
ENDBRANCH  29  31
ENDBRANCH  28  29
ENDBRANCH  25  28
ENDBRANCH  21  22
ENDBRANCH   1  21
TORSDOF 10
ENDMDL
MODEL 2
REMARK VINA RESULT:    -6.141      2.125      4.621
REMARK INTER + INTRA:         -11.718
REMARK INTER:                  -9.927
REMARK INTRA:                  -1.791
REMARK UNBOUND:                -2.165
REMARK  Name = 
REMARK  10 active torsions:
REMARK  status: ('A' for Active; 'I' for Inactive)
REMARK    1  A    between atoms: N_1  and  C_2
REMARK    2  A    between atoms: C_2  and  C_3
REMARK    3  A    between atoms: C_3  and  C_4
REMARK    4  A    between atoms: C_4  and  N_5
REMARK    5  A    between atoms: N_5  and  C_6
REMARK    6  A    between atoms: C_6  and  C_7
REMARK    7  A    between atoms: C_10  and  C_11
REMARK    8  A    between atoms: C_11  and  N_12
REMARK    9  A    between atoms: N_12  and  C_13
REMARK   10  A    between atoms: C_20  and  C_22
REMARK                            x       y       z     vdW  Elec       q    Type
REMARK                         _______ _______ _______ _____ _____    ______ ____
ROOT
ATOM      1  N   UNL     1      48.348   6.972  14.731  0.00  0.00    +0.000 N 
ATOM      2  C   UNL     1      48.538   8.388  14.647  0.00  0.00    +0.000 C 
ATOM      3  O   UNL     1      49.003   9.002  15.607  0.00  0.00    +0.000 OA
ENDROOT
BRANCH   2   4
ATOM      4  C   UNL     1      48.147   9.157  13.433  0.00  0.00    +0.000 A 
ATOM      5  C   UNL     1      46.868   9.586  13.141  0.00  0.00    +0.000 A 
ATOM      6  S   UNL     1      46.710  10.559  11.756  0.00  0.00    +0.000 S 
ATOM      7  C   UNL     1      48.382  10.526  11.505  0.00  0.00    +0.000 A 
ATOM      8  N   UNL     1      48.927  11.243  10.488  0.00  0.00    +0.000 NA
ATOM      9  C   UNL     1      50.212  11.170  10.425  0.00  0.00    +0.000 A 
ATOM     10  N   UNL     1      50.993  10.415  11.262  0.00  0.00    +0.000 N 
ATOM     11  C   UNL     1      50.468   9.576  12.232  0.00  0.00    +0.000 A 
ATOM     12  O   UNL     1      51.180   8.750  12.793  0.00  0.00    +0.000 OA
ATOM     13  C   UNL     1      49.037   9.718  12.422  0.00  0.00    +0.000 A 
ATOM     14  H   UNL     1      51.986  10.339  11.105  0.00  0.00    +0.000 HD
ENDBRANCH   2   4
BRANCH   1  15
ATOM     15  C   UNL     1      49.004   6.299  15.871  0.00  0.00    +0.000 C 
BRANCH  15  16
ATOM     16  C   UNL     1      48.107   5.586  16.885  0.00  0.00    +0.000 C 
BRANCH  16  17
ATOM     17  C   UNL     1      47.886   4.107  16.582  0.00  0.00    +0.000 C 
BRANCH  17  18
ATOM     18  N   UNL     1      46.739   3.628  17.354  0.00  0.00    +0.000 NA
ATOM     19  H   UNL     1      46.741   2.610  17.387  0.00  0.00    +0.000 HD
ATOM     20  H   UNL     1      45.875   3.898  16.881  0.00  0.00    +0.000 HD
ENDBRANCH  17  18
ENDBRANCH  16  17
ENDBRANCH  15  16
ENDBRANCH   1  15
BRANCH   1  21
ATOM     21  C   UNL     1      48.226   6.131  13.541  0.00  0.00    +0.000 C 
BRANCH  21  22
ATOM     22  C   UNL     1      46.838   5.903  12.959  0.00  0.00    +0.000 A 
ATOM     23  C   UNL     1      46.500   6.243  11.644  0.00  0.00    +0.000 A 
ATOM     24  C   UNL     1      45.576   5.466  10.931  0.00  0.00    +0.000 A 
ATOM     25  C   UNL     1      44.877   4.431  11.562  0.00  0.00    +0.000 A 
ATOM     26  C   UNL     1      45.013   4.292  12.948  0.00  0.00    +0.000 A 
ATOM     27  C   UNL     1      45.988   5.016  13.637  0.00  0.00    +0.000 A 
BRANCH  25  28
ATOM     28  C   UNL     1      44.108   3.400  10.758  0.00  0.00    +0.000 C 
BRANCH  28  29
ATOM     29  N   UNL     1      45.041   2.427  10.192  0.00  0.00    +0.000 NA
ATOM     30  H   UNL     1      45.150   1.636  10.819  0.00  0.00    +0.000 HD
BRANCH  29  31
ATOM     31  C   UNL     1      44.740   1.971   8.852  0.00  0.00    +0.000 C 
ATOM     32  C   UNL     1      44.681   3.137   7.866  0.00  0.00    +0.000 C 
ATOM     33  C   UNL     1      46.140   3.452   7.578  0.00  0.00    +0.000 C 
ATOM     34  C   UNL     1      46.845   2.117   7.770  0.00  0.00    +0.000 C 
ATOM     35  N   UNL     1      45.848   1.202   8.326  0.00  0.00    +0.000 NA
ATOM     36  H   UNL     1      46.249   0.578   9.013  0.00  0.00    +0.000 HD
ENDBRANCH  29  31
ENDBRANCH  28  29
ENDBRANCH  25  28
ENDBRANCH  21  22
ENDBRANCH   1  21
TORSDOF 10
ENDMDL
MODEL 3
REMARK VINA RESULT:    -6.022      2.008      4.313
REMARK INTER + INTRA:         -11.532
REMARK INTER:                  -9.962
REMARK INTRA:                  -1.570
REMARK UNBOUND:                -2.165
REMARK  Name = 
REMARK  10 active torsions:
REMARK  status: ('A' for Active; 'I' for Inactive)
REMARK    1  A    between atoms: N_1  and  C_2
REMARK    2  A    between atoms: C_2  and  C_3
REMARK    3  A    between atoms: C_3  and  C_4
REMARK    4  A    between atoms: C_4  and  N_5
REMARK    5  A    between atoms: N_5  and  C_6
REMARK    6  A    between atoms: C_6  and  C_7
REMARK    7  A    between atoms: C_10  and  C_11
REMARK    8  A    between atoms: C_11  and  N_12
REMARK    9  A    between atoms: N_12  and  C_13
REMARK   10  A    between atoms: C_20  and  C_22
REMARK                            x       y       z     vdW  Elec       q    Type
REMARK                         _______ _______ _______ _____ _____    ______ ____
ROOT
ATOM      1  N   UNL     1      48.229   5.645  16.373  0.00  0.00    +0.000 N 
ATOM      2  C   UNL     1      49.220   6.477  16.984  0.00  0.00    +0.000 C 
ATOM      3  O   UNL     1      49.321   6.509  18.210  0.00  0.00    +0.000 OA
ENDROOT
BRANCH   2   4
ATOM      4  C   UNL     1      50.117   7.347  16.174  0.00  0.00    +0.000 A 
ATOM      5  C   UNL     1      51.422   7.050  15.838  0.00  0.00    +0.000 A 
ATOM      6  S   UNL     1      52.188   8.150  14.794  0.00  0.00    +0.000 S 
ATOM      7  C   UNL     1      50.771   9.063  14.666  0.00  0.00    +0.000 A 
ATOM      8  N   UNL     1      50.733  10.140  13.839  0.00  0.00    +0.000 NA
ATOM      9  C   UNL     1      49.587  10.729  13.797  0.00  0.00    +0.000 A 
ATOM     10  N   UNL     1      48.493  10.359  14.536  0.00  0.00    +0.000 N 
ATOM     11  C   UNL     1      48.526   9.344  15.479  0.00  0.00    +0.000 A 
ATOM     12  O   UNL     1      47.603   9.203  16.275  0.00  0.00    +0.000 OA
ATOM     13  C   UNL     1      49.754   8.574  15.473  0.00  0.00    +0.000 A 
ATOM     14  H   UNL     1      47.650  10.914  14.516  0.00  0.00    +0.000 HD
ENDBRANCH   2   4
BRANCH   1  15
ATOM     15  C   UNL     1      47.586   4.650  17.256  0.00  0.00    +0.000 C 
BRANCH  15  16
ATOM     16  C   UNL     1      47.787   3.171  16.923  0.00  0.00    +0.000 C 
BRANCH  16  17
ATOM     17  C   UNL     1      49.174   2.642  17.277  0.00  0.00    +0.000 C 
BRANCH  17  18
ATOM     18  N   UNL     1      49.653   1.791  16.186  0.00  0.00    +0.000 NA
ATOM     19  H   UNL     1      50.225   1.035  16.559  0.00  0.00    +0.000 HD
ATOM     20  H   UNL     1      50.261   2.336  15.573  0.00  0.00    +0.000 HD
ENDBRANCH  17  18
ENDBRANCH  16  17
ENDBRANCH  15  16
ENDBRANCH   1  15
BRANCH   1  21
ATOM     21  C   UNL     1      48.323   5.219  14.977  0.00  0.00    +0.000 C 
BRANCH  21  22
ATOM     22  C   UNL     1      47.177   5.568  14.038  0.00  0.00    +0.000 A 
ATOM     23  C   UNL     1      47.320   6.441  12.954  0.00  0.00    +0.000 A 
ATOM     24  C   UNL     1      46.583   6.232  11.779  0.00  0.00    +0.000 A 
ATOM     25  C   UNL     1      45.597   5.241  11.723  0.00  0.00    +0.000 A 
ATOM     26  C   UNL     1      45.266   4.572  12.906  0.00  0.00    +0.000 A 
ATOM     27  C   UNL     1      46.052   4.729  14.050  0.00  0.00    +0.000 A 
BRANCH  25  28
ATOM     28  C   UNL     1      45.003   4.800  10.398  0.00  0.00    +0.000 C 
BRANCH  28  29
ATOM     29  N   UNL     1      45.031   3.340  10.312  0.00  0.00    +0.000 NA
ATOM     30  H   UNL     1      44.617   2.931  11.143  0.00  0.00    +0.000 HD
BRANCH  29  31
ATOM     31  C   UNL     1      44.441   2.769   9.121  0.00  0.00    +0.000 C 
ATOM     32  C   UNL     1      44.871   3.529   7.866  0.00  0.00    +0.000 C 
ATOM     33  C   UNL     1      46.274   3.016   7.585  0.00  0.00    +0.000 C 
ATOM     34  C   UNL     1      46.264   1.603   8.150  0.00  0.00    +0.000 C 
ATOM     35  N   UNL     1      44.999   1.457   8.869  0.00  0.00    +0.000 NA
ATOM     36  H   UNL     1      45.105   0.911   9.714  0.00  0.00    +0.000 HD
ENDBRANCH  29  31
ENDBRANCH  28  29
ENDBRANCH  25  28
ENDBRANCH  21  22
ENDBRANCH   1  21
TORSDOF 10
ENDMDL
MODEL 4
REMARK VINA RESULT:    -5.966      2.096      2.818
REMARK INTER + INTRA:         -11.444
REMARK INTER:                  -9.694
REMARK INTRA:                  -1.750
REMARK UNBOUND:                -2.165
REMARK  Name = 
REMARK  10 active torsions:
REMARK  status: ('A' for Active; 'I' for Inactive)
REMARK    1  A    between atoms: N_1  and  C_2
REMARK    2  A    between atoms: C_2  and  C_3
REMARK    3  A    between atoms: C_3  and  C_4
REMARK    4  A    between atoms: C_4  and  N_5
REMARK    5  A    between atoms: N_5  and  C_6
REMARK    6  A    between atoms: C_6  and  C_7
REMARK    7  A    between atoms: C_10  and  C_11
REMARK    8  A    between atoms: C_11  and  N_12
REMARK    9  A    between atoms: N_12  and  C_13
REMARK   10  A    between atoms: C_20  and  C_22
REMARK                            x       y       z     vdW  Elec       q    Type
REMARK                         _______ _______ _______ _____ _____    ______ ____
ROOT
ATOM      1  N   UNL     1      48.554   7.280  14.712  0.00  0.00    +0.000 N 
ATOM      2  C   UNL     1      48.577   7.114  16.133  0.00  0.00    +0.000 C 
ATOM      3  O   UNL     1      48.369   8.080  16.866  0.00  0.00    +0.000 OA
ENDROOT
BRANCH   2   4
ATOM      4  C   UNL     1      48.889   5.799  16.760  0.00  0.00    +0.000 A 
ATOM      5  C   UNL     1      47.981   4.779  16.960  0.00  0.00    +0.000 A 
ATOM      6  S   UNL     1      48.620   3.329  17.577  0.00  0.00    +0.000 S 
ATOM      7  C   UNL     1      50.186   3.967  17.539  0.00  0.00    +0.000 A 
ATOM      8  N   UNL     1      51.242   3.187  17.887  0.00  0.00    +0.000 NA
ATOM      9  C   UNL     1      52.385   3.772  17.778  0.00  0.00    +0.000 A 
ATOM     10  N   UNL     1      52.559   5.076  17.391  0.00  0.00    +0.000 N 
ATOM     11  C   UNL     1      51.503   5.940  17.146  0.00  0.00    +0.000 A 
ATOM     12  O   UNL     1      51.697   7.145  17.034  0.00  0.00    +0.000 OA
ATOM     13  C   UNL     1      50.205   5.294  17.135  0.00  0.00    +0.000 A 
ATOM     14  H   UNL     1      53.476   5.496  17.406  0.00  0.00    +0.000 HD
ENDBRANCH   2   4
BRANCH   1  15
ATOM     15  C   UNL     1      47.986   8.553  14.219  0.00  0.00    +0.000 C 
BRANCH  15  16
ATOM     16  C   UNL     1      48.960   9.693  13.915  0.00  0.00    +0.000 C 
BRANCH  16  17
ATOM     17  C   UNL     1      50.427   9.319  14.102  0.00  0.00    +0.000 C 
BRANCH  17  18
ATOM     18  N   UNL     1      50.850   9.702  15.449  0.00  0.00    +0.000 NA
ATOM     19  H   UNL     1      50.079  10.148  15.944  0.00  0.00    +0.000 HD
ATOM     20  H   UNL     1      51.593  10.399  15.386  0.00  0.00    +0.000 HD
ENDBRANCH  17  18
ENDBRANCH  16  17
ENDBRANCH  15  16
ENDBRANCH   1  15
BRANCH   1  21
ATOM     21  C   UNL     1      48.356   6.155  13.799  0.00  0.00    +0.000 C 
BRANCH  21  22
ATOM     22  C   UNL     1      46.975   5.954  13.192  0.00  0.00    +0.000 A 
ATOM     23  C   UNL     1      46.658   6.330  11.881  0.00  0.00    +0.000 A 
ATOM     24  C   UNL     1      45.737   5.579  11.136  0.00  0.00    +0.000 A 
ATOM     25  C   UNL     1      45.021   4.534  11.733  0.00  0.00    +0.000 A 
ATOM     26  C   UNL     1      45.136   4.361  13.116  0.00  0.00    +0.000 A 
ATOM     27  C   UNL     1      46.108   5.059  13.837  0.00  0.00    +0.000 A 
BRANCH  25  28
ATOM     28  C   UNL     1      44.254   3.531  10.893  0.00  0.00    +0.000 C 
BRANCH  28  29
ATOM     29  N   UNL     1      45.196   2.642  10.213  0.00  0.00    +0.000 NA
ATOM     30  H   UNL     1      45.480   1.890  10.833  0.00  0.00    +0.000 HD
BRANCH  29  31
ATOM     31  C   UNL     1      44.754   2.109   8.942  0.00  0.00    +0.000 C 
ATOM     32  C   UNL     1      44.795   3.174   7.846  0.00  0.00    +0.000 C 
ATOM     33  C   UNL     1      46.264   3.251   7.460  0.00  0.00    +0.000 C 
ATOM     34  C   UNL     1      46.790   1.854   7.753  0.00  0.00    +0.000 C 
ATOM     35  N   UNL     1      45.714   1.146   8.446  0.00  0.00    +0.000 NA
ATOM     36  H   UNL     1      46.068   0.538   9.173  0.00  0.00    +0.000 HD
ENDBRANCH  29  31
ENDBRANCH  28  29
ENDBRANCH  25  28
ENDBRANCH  21  22
ENDBRANCH   1  21
TORSDOF 10
ENDMDL
MODEL 5
REMARK VINA RESULT:    -5.828      3.405      8.072
REMARK INTER + INTRA:         -11.230
REMARK INTER:                  -9.696
REMARK INTRA:                  -1.533
REMARK UNBOUND:                -2.165
REMARK  Name = 
REMARK  10 active torsions:
REMARK  status: ('A' for Active; 'I' for Inactive)
REMARK    1  A    between atoms: N_1  and  C_2
REMARK    2  A    between atoms: C_2  and  C_3
REMARK    3  A    between atoms: C_3  and  C_4
REMARK    4  A    between atoms: C_4  and  N_5
REMARK    5  A    between atoms: N_5  and  C_6
REMARK    6  A    between atoms: C_6  and  C_7
REMARK    7  A    between atoms: C_10  and  C_11
REMARK    8  A    between atoms: C_11  and  N_12
REMARK    9  A    between atoms: N_12  and  C_13
REMARK   10  A    between atoms: C_20  and  C_22
REMARK                            x       y       z     vdW  Elec       q    Type
REMARK                         _______ _______ _______ _____ _____    ______ ____
ROOT
ATOM      1  N   UNL     1      46.283   6.901  13.140  0.00  0.00    +0.000 N 
ATOM      2  C   UNL     1      45.211   6.615  12.236  0.00  0.00    +0.000 C 
ATOM      3  O   UNL     1      44.573   7.538  11.731  0.00  0.00    +0.000 OA
ENDROOT
BRANCH   2   4
ATOM      4  C   UNL     1      44.812   5.216  11.916  0.00  0.00    +0.000 A 
ATOM      5  C   UNL     1      44.135   4.368  12.770  0.00  0.00    +0.000 A 
ATOM      6  S   UNL     1      43.683   2.865  12.117  0.00  0.00    +0.000 S 
ATOM      7  C   UNL     1      44.307   3.299  10.606  0.00  0.00    +0.000 A 
ATOM      8  N   UNL     1      44.174   2.453   9.552  0.00  0.00    +0.000 NA
ATOM      9  C   UNL     1      44.653   2.913   8.447  0.00  0.00    +0.000 A 
ATOM     10  N   UNL     1      45.285   4.122   8.315  0.00  0.00    +0.000 N 
ATOM     11  C   UNL     1      45.549   4.959   9.388  0.00  0.00    +0.000 A 
ATOM     12  O   UNL     1      46.315   5.908   9.264  0.00  0.00    +0.000 OA
ATOM     13  C   UNL     1      44.921   4.543  10.627  0.00  0.00    +0.000 A 
ATOM     14  H   UNL     1      45.709   4.385   7.438  0.00  0.00    +0.000 HD
ENDBRANCH   2   4
BRANCH   1  15
ATOM     15  C   UNL     1      46.743   8.305  13.174  0.00  0.00    +0.000 C 
BRANCH  15  16
ATOM     16  C   UNL     1      47.842   8.716  12.192  0.00  0.00    +0.000 C 
BRANCH  16  17
ATOM     17  C   UNL     1      47.718  10.152  11.692  0.00  0.00    +0.000 C 
BRANCH  17  18
ATOM     18  N   UNL     1      46.477  10.732  12.207  0.00  0.00    +0.000 NA
ATOM     19  H   UNL     1      46.126  10.173  12.982  0.00  0.00    +0.000 HD
ATOM     20  H   UNL     1      45.760  10.699  11.481  0.00  0.00    +0.000 HD
ENDBRANCH  17  18
ENDBRANCH  16  17
ENDBRANCH  15  16
ENDBRANCH   1  15
BRANCH   1  21
ATOM     21  C   UNL     1      47.338   5.929  13.429  0.00  0.00    +0.000 C 
BRANCH  21  22
ATOM     22  C   UNL     1      47.430   5.365  14.840  0.00  0.00    +0.000 A 
ATOM     23  C   UNL     1      46.934   4.103  15.188  0.00  0.00    +0.000 A 
ATOM     24  C   UNL     1      47.581   3.338  16.168  0.00  0.00    +0.000 A 
ATOM     25  C   UNL     1      48.640   3.876  16.908  0.00  0.00    +0.000 A 
ATOM     26  C   UNL     1      48.933   5.234  16.750  0.00  0.00    +0.000 A 
ATOM     27  C   UNL     1      48.338   5.969  15.722  0.00  0.00    +0.000 A 
BRANCH  25  28
ATOM     28  C   UNL     1      49.538   2.989  17.751  0.00  0.00    +0.000 C 
BRANCH  28  29
ATOM     29  N   UNL     1      50.523   3.814  18.449  0.00  0.00    +0.000 NA
ATOM     30  H   UNL     1      50.401   3.736  19.453  0.00  0.00    +0.000 HD
BRANCH  29  31
ATOM     31  C   UNL     1      51.906   3.584  18.089  0.00  0.00    +0.000 C 
ATOM     32  C   UNL     1      52.582   4.872  17.617  0.00  0.00    +0.000 C 
ATOM     33  C   UNL     1      52.897   5.616  18.904  0.00  0.00    +0.000 C 
ATOM     34  C   UNL     1      53.081   4.508  19.930  0.00  0.00    +0.000 C 
ATOM     35  N   UNL     1      52.681   3.266  19.269  0.00  0.00    +0.000 NA
ATOM     36  H   UNL     1      52.193   2.642  19.898  0.00  0.00    +0.000 HD
ENDBRANCH  29  31
ENDBRANCH  28  29
ENDBRANCH  25  28
ENDBRANCH  21  22
ENDBRANCH   1  21
TORSDOF 10
ENDMDL
MODEL 6
REMARK VINA RESULT:    -5.788      2.111      2.991
REMARK INTER + INTRA:         -11.169
REMARK INTER:                  -9.687
REMARK INTRA:                  -1.482
REMARK UNBOUND:                -2.165
REMARK  Name = 
REMARK  10 active torsions:
REMARK  status: ('A' for Active; 'I' for Inactive)
REMARK    1  A    between atoms: N_1  and  C_2
REMARK    2  A    between atoms: C_2  and  C_3
REMARK    3  A    between atoms: C_3  and  C_4
REMARK    4  A    between atoms: C_4  and  N_5
REMARK    5  A    between atoms: N_5  and  C_6
REMARK    6  A    between atoms: C_6  and  C_7
REMARK    7  A    between atoms: C_10  and  C_11
REMARK    8  A    between atoms: C_11  and  N_12
REMARK    9  A    between atoms: N_12  and  C_13
REMARK   10  A    between atoms: C_20  and  C_22
REMARK                            x       y       z     vdW  Elec       q    Type
REMARK                         _______ _______ _______ _____ _____    ______ ____
ROOT
ATOM      1  N   UNL     1      48.182   8.768  12.993  0.00  0.00    +0.000 N 
ATOM      2  C   UNL     1      49.122   9.302  13.930  0.00  0.00    +0.000 C 
ATOM      3  O   UNL     1      48.892  10.376  14.485  0.00  0.00    +0.000 OA
ENDROOT
BRANCH   2   4
ATOM      4  C   UNL     1      50.407   8.609  14.228  0.00  0.00    +0.000 A 
ATOM      5  C   UNL     1      51.630   8.931  13.675  0.00  0.00    +0.000 A 
ATOM      6  S   UNL     1      52.966   8.071  14.280  0.00  0.00    +0.000 S 
ATOM      7  C   UNL     1      51.980   7.259  15.389  0.00  0.00    +0.000 A 
ATOM      8  N   UNL     1      52.534   6.399  16.283  0.00  0.00    +0.000 NA
ATOM      9  C   UNL     1      51.686   5.874  17.100  0.00  0.00    +0.000 A 
ATOM     10  N   UNL     1      50.334   6.103  17.075  0.00  0.00    +0.000 N 
ATOM     11  C   UNL     1      49.716   6.877  16.105  0.00  0.00    +0.000 A 
ATOM     12  O   UNL     1      48.496   6.864  15.982  0.00  0.00    +0.000 OA
ATOM     13  C   UNL     1      50.640   7.586  15.241  0.00  0.00    +0.000 A 
ATOM     14  H   UNL     1      49.718   5.597  17.692  0.00  0.00    +0.000 HD
ENDBRANCH   2   4
BRANCH   1  15
ATOM     15  C   UNL     1      46.850   9.409  12.978  0.00  0.00    +0.000 C 
BRANCH  15  16
ATOM     16  C   UNL     1      46.556  10.408  11.858  0.00  0.00    +0.000 C 
BRANCH  16  17
ATOM     17  C   UNL     1      45.096  10.427  11.414  0.00  0.00    +0.000 C 
BRANCH  17  18
ATOM     18  N   UNL     1      44.250  10.022  12.537  0.00  0.00    +0.000 NA
ATOM     19  H   UNL     1      44.723  10.217  13.418  0.00  0.00    +0.000 HD
ATOM     20  H   UNL     1      44.106   9.011  12.506  0.00  0.00    +0.000 HD
ENDBRANCH  17  18
ENDBRANCH  16  17
ENDBRANCH  15  16
ENDBRANCH   1  15
BRANCH   1  21
ATOM     21  C   UNL     1      48.157   7.351  12.636  0.00  0.00    +0.000 C 
BRANCH  21  22
ATOM     22  C   UNL     1      46.807   6.695  12.380  0.00  0.00    +0.000 A 
ATOM     23  C   UNL     1      46.219   6.635  11.112  0.00  0.00    +0.000 A 
ATOM     24  C   UNL     1      45.435   5.530  10.750  0.00  0.00    +0.000 A 
ATOM     25  C   UNL     1      45.115   4.545  11.691  0.00  0.00    +0.000 A 
ATOM     26  C   UNL     1      45.467   4.768  13.026  0.00  0.00    +0.000 A 
ATOM     27  C   UNL     1      46.310   5.829  13.366  0.00  0.00    +0.000 A 
BRANCH  25  28
ATOM     28  C   UNL     1      44.531   3.212  11.263  0.00  0.00    +0.000 C 
BRANCH  28  29
ATOM     29  N   UNL     1      45.440   2.562  10.319  0.00  0.00    +0.000 NA
ATOM     30  H   UNL     1      45.924   1.792  10.770  0.00  0.00    +0.000 HD
BRANCH  29  31
ATOM     31  C   UNL     1      44.848   2.126   9.073  0.00  0.00    +0.000 C 
ATOM     32  C   UNL     1      44.838   3.250   8.037  0.00  0.00    +0.000 C 
ATOM     33  C   UNL     1      46.264   3.278   7.509  0.00  0.00    +0.000 C 
ATOM     34  C   UNL     1      46.741   1.843   7.672  0.00  0.00    +0.000 C 
ATOM     35  N   UNL     1      45.701   1.148   8.431  0.00  0.00    +0.000 NA
ATOM     36  H   UNL     1      46.091   0.483   9.086  0.00  0.00    +0.000 HD
ENDBRANCH  29  31
ENDBRANCH  28  29
ENDBRANCH  25  28
ENDBRANCH  21  22
ENDBRANCH   1  21
TORSDOF 10
ENDMDL
MODEL 7
REMARK VINA RESULT:    -5.586      3.363      7.560
REMARK INTER + INTRA:         -10.853
REMARK INTER:                  -8.806
REMARK INTRA:                  -2.048
REMARK UNBOUND:                -2.165
REMARK  Name = 
REMARK  10 active torsions:
REMARK  status: ('A' for Active; 'I' for Inactive)
REMARK    1  A    between atoms: N_1  and  C_2
REMARK    2  A    between atoms: C_2  and  C_3
REMARK    3  A    between atoms: C_3  and  C_4
REMARK    4  A    between atoms: C_4  and  N_5
REMARK    5  A    between atoms: N_5  and  C_6
REMARK    6  A    between atoms: C_6  and  C_7
REMARK    7  A    between atoms: C_10  and  C_11
REMARK    8  A    between atoms: C_11  and  N_12
REMARK    9  A    between atoms: N_12  and  C_13
REMARK   10  A    between atoms: C_20  and  C_22
REMARK                            x       y       z     vdW  Elec       q    Type
REMARK                         _______ _______ _______ _____ _____    ______ ____
ROOT
ATOM      1  N   UNL     1      45.901   5.290  12.502  0.00  0.00    +0.000 N 
ATOM      2  C   UNL     1      46.378   6.189  11.496  0.00  0.00    +0.000 C 
ATOM      3  O   UNL     1      45.957   6.098  10.343  0.00  0.00    +0.000 OA
ENDROOT
BRANCH   2   4
ATOM      4  C   UNL     1      47.412   7.218  11.796  0.00  0.00    +0.000 A 
ATOM      5  C   UNL     1      48.776   7.006  11.772  0.00  0.00    +0.000 A 
ATOM      6  S   UNL     1      49.745   8.379  12.026  0.00  0.00    +0.000 S 
ATOM      7  C   UNL     1      48.375   9.368  12.108  0.00  0.00    +0.000 A 
ATOM      8  N   UNL     1      48.519  10.711  12.247  0.00  0.00    +0.000 NA
ATOM      9  C   UNL     1      47.406  11.360  12.256  0.00  0.00    +0.000 A 
ATOM     10  N   UNL     1      46.165  10.781  12.178  0.00  0.00    +0.000 N 
ATOM     11  C   UNL     1      45.972   9.408  12.157  0.00  0.00    +0.000 A 
ATOM     12  O   UNL     1      44.853   8.934  12.323  0.00  0.00    +0.000 OA
ATOM     13  C   UNL     1      47.196   8.643  12.021  0.00  0.00    +0.000 A 
ATOM     14  H   UNL     1      45.332  11.341  12.272  0.00  0.00    +0.000 HD
ENDBRANCH   2   4
BRANCH   1  15
ATOM     15  C   UNL     1      44.706   4.497  12.145  0.00  0.00    +0.000 C 
BRANCH  15  16
ATOM     16  C   UNL     1      43.362   4.941  12.724  0.00  0.00    +0.000 C 
BRANCH  16  17
ATOM     17  C   UNL     1      42.398   5.509  11.686  0.00  0.00    +0.000 C 
BRANCH  17  18
ATOM     18  N   UNL     1      42.879   6.822  11.256  0.00  0.00    +0.000 NA
ATOM     19  H   UNL     1      43.509   6.721  10.462  0.00  0.00    +0.000 HD
ATOM     20  H   UNL     1      43.428   7.245  12.006  0.00  0.00    +0.000 HD
ENDBRANCH  17  18
ENDBRANCH  16  17
ENDBRANCH  15  16
ENDBRANCH   1  15
BRANCH   1  21
ATOM     21  C   UNL     1      46.002   5.593  13.928  0.00  0.00    +0.000 C 
BRANCH  21  22
ATOM     22  C   UNL     1      47.213   5.073  14.692  0.00  0.00    +0.000 A 
ATOM     23  C   UNL     1      48.179   5.917  15.250  0.00  0.00    +0.000 A 
ATOM     24  C   UNL     1      48.823   5.559  16.443  0.00  0.00    +0.000 A 
ATOM     25  C   UNL     1      48.613   4.299  17.016  0.00  0.00    +0.000 A 
ATOM     26  C   UNL     1      47.870   3.361  16.292  0.00  0.00    +0.000 A 
ATOM     27  C   UNL     1      47.172   3.746  15.145  0.00  0.00    +0.000 A 
BRANCH  25  28
ATOM     28  C   UNL     1      49.052   4.001  18.437  0.00  0.00    +0.000 C 
BRANCH  28  29
ATOM     29  N   UNL     1      50.107   2.988  18.419  0.00  0.00    +0.000 NA
ATOM     30  H   UNL     1      49.704   2.062  18.318  0.00  0.00    +0.000 HD
BRANCH  29  31
ATOM     31  C   UNL     1      51.157   3.190  17.445  0.00  0.00    +0.000 C 
ATOM     32  C   UNL     1      52.105   4.311  17.871  0.00  0.00    +0.000 C 
ATOM     33  C   UNL     1      53.004   3.661  18.910  0.00  0.00    +0.000 C 
ATOM     34  C   UNL     1      53.037   2.197  18.498  0.00  0.00    +0.000 C 
ATOM     35  N   UNL     1      52.049   2.049  17.429  0.00  0.00    +0.000 NA
ATOM     36  H   UNL     1      51.554   1.168  17.491  0.00  0.00    +0.000 HD
ENDBRANCH  29  31
ENDBRANCH  28  29
ENDBRANCH  25  28
ENDBRANCH  21  22
ENDBRANCH   1  21
TORSDOF 10
ENDMDL
MODEL 8
REMARK VINA RESULT:    -5.480      2.354      4.176
REMARK INTER + INTRA:         -10.690
REMARK INTER:                  -8.706
REMARK INTRA:                  -1.984
REMARK UNBOUND:                -2.165
REMARK  Name = 
REMARK  10 active torsions:
REMARK  status: ('A' for Active; 'I' for Inactive)
REMARK    1  A    between atoms: N_1  and  C_2
REMARK    2  A    between atoms: C_2  and  C_3
REMARK    3  A    between atoms: C_3  and  C_4
REMARK    4  A    between atoms: C_4  and  N_5
REMARK    5  A    between atoms: N_5  and  C_6
REMARK    6  A    between atoms: C_6  and  C_7
REMARK    7  A    between atoms: C_10  and  C_11
REMARK    8  A    between atoms: C_11  and  N_12
REMARK    9  A    between atoms: N_12  and  C_13
REMARK   10  A    between atoms: C_20  and  C_22
REMARK                            x       y       z     vdW  Elec       q    Type
REMARK                         _______ _______ _______ _____ _____    ______ ____
ROOT
ATOM      1  N   UNL     1      47.688   5.460  16.350  0.00  0.00    +0.000 N 
ATOM      2  C   UNL     1      48.576   6.434  16.909  0.00  0.00    +0.000 C 
ATOM      3  O   UNL     1      48.667   6.549  18.131  0.00  0.00    +0.000 OA
ENDROOT
BRANCH   2   4
ATOM      4  C   UNL     1      49.371   7.351  16.046  0.00  0.00    +0.000 A 
ATOM      5  C   UNL     1      48.872   8.459  15.391  0.00  0.00    +0.000 A 
ATOM      6  S   UNL     1      50.015   9.415  14.575  0.00  0.00    +0.000 S 
ATOM      7  C   UNL     1      51.276   8.430  15.123  0.00  0.00    +0.000 A 
ATOM      8  N   UNL     1      52.562   8.751  14.826  0.00  0.00    +0.000 NA
ATOM      9  C   UNL     1      53.433   7.948  15.333  0.00  0.00    +0.000 A 
ATOM     10  N   UNL     1      53.130   6.836  16.075  0.00  0.00    +0.000 N 
ATOM     11  C   UNL     1      51.830   6.407  16.297  0.00  0.00    +0.000 A 
ATOM     12  O   UNL     1      51.613   5.292  16.760  0.00  0.00    +0.000 OA
ATOM     13  C   UNL     1      50.817   7.344  15.853  0.00  0.00    +0.000 A 
ATOM     14  H   UNL     1      53.858   6.205  16.374  0.00  0.00    +0.000 HD
ENDBRANCH   2   4
BRANCH   1  15
ATOM     15  C   UNL     1      47.158   4.452  17.292  0.00  0.00    +0.000 C 
BRANCH  15  16
ATOM     16  C   UNL     1      47.958   3.161  17.472  0.00  0.00    +0.000 C 
BRANCH  16  17
ATOM     17  C   UNL     1      48.720   3.086  18.792  0.00  0.00    +0.000 C 
BRANCH  17  18
ATOM     18  N   UNL     1      50.057   3.651  18.604  0.00  0.00    +0.000 NA
ATOM     19  H   UNL     1      50.751   2.906  18.583  0.00  0.00    +0.000 HD
ATOM     20  H   UNL     1      50.292   4.240  19.404  0.00  0.00    +0.000 HD
ENDBRANCH  17  18
ENDBRANCH  16  17
ENDBRANCH  15  16
ENDBRANCH   1  15
BRANCH   1  21
ATOM     21  C   UNL     1      47.836   4.966  14.981  0.00  0.00    +0.000 C 
BRANCH  21  22
ATOM     22  C   UNL     1      46.821   5.414  13.939  0.00  0.00    +0.000 A 
ATOM     23  C   UNL     1      47.169   6.170  12.814  0.00  0.00    +0.000 A 
ATOM     24  C   UNL     1      46.483   5.988  11.604  0.00  0.00    +0.000 A 
ATOM     25  C   UNL     1      45.357   5.158  11.540  0.00  0.00    +0.000 A 
ATOM     26  C   UNL     1      44.851   4.641  12.737  0.00  0.00    +0.000 A 
ATOM     27  C   UNL     1      45.578   4.762  13.923  0.00  0.00    +0.000 A 
BRANCH  25  28
ATOM     28  C   UNL     1      44.785   4.715  10.207  0.00  0.00    +0.000 C 
BRANCH  28  29
ATOM     29  N   UNL     1      45.079   3.298   9.997  0.00  0.00    +0.000 NA
ATOM     30  H   UNL     1      44.742   2.748  10.780  0.00  0.00    +0.000 HD
BRANCH  29  31
ATOM     31  C   UNL     1      44.612   2.736   8.748  0.00  0.00    +0.000 C 
ATOM     32  C   UNL     1      45.199   3.480   7.548  0.00  0.00    +0.000 C 
ATOM     33  C   UNL     1      46.611   2.929   7.426  0.00  0.00    +0.000 C 
ATOM     34  C   UNL     1      46.501   1.520   7.989  0.00  0.00    +0.000 C 
ATOM     35  N   UNL     1      45.160   1.410   8.562  0.00  0.00    +0.000 NA
ATOM     36  H   UNL     1      45.157   0.864   9.414  0.00  0.00    +0.000 HD
ENDBRANCH  29  31
ENDBRANCH  28  29
ENDBRANCH  25  28
ENDBRANCH  21  22
ENDBRANCH   1  21
TORSDOF 10
ENDMDL
MODEL 9
REMARK VINA RESULT:    -5.287      2.846      4.377
REMARK INTER + INTRA:         -10.389
REMARK INTER:                  -8.234
REMARK INTRA:                  -2.155
REMARK UNBOUND:                -2.165
REMARK  Name = 
REMARK  10 active torsions:
REMARK  status: ('A' for Active; 'I' for Inactive)
REMARK    1  A    between atoms: N_1  and  C_2
REMARK    2  A    between atoms: C_2  and  C_3
REMARK    3  A    between atoms: C_3  and  C_4
REMARK    4  A    between atoms: C_4  and  N_5
REMARK    5  A    between atoms: N_5  and  C_6
REMARK    6  A    between atoms: C_6  and  C_7
REMARK    7  A    between atoms: C_10  and  C_11
REMARK    8  A    between atoms: C_11  and  N_12
REMARK    9  A    between atoms: N_12  and  C_13
REMARK   10  A    between atoms: C_20  and  C_22
REMARK                            x       y       z     vdW  Elec       q    Type
REMARK                         _______ _______ _______ _____ _____    ______ ____
ROOT
ATOM      1  N   UNL     1      48.230   6.204  16.257  0.00  0.00    +0.000 N 
ATOM      2  C   UNL     1      48.723   6.337  17.594  0.00  0.00    +0.000 C 
ATOM      3  O   UNL     1      48.189   5.709  18.509  0.00  0.00    +0.000 OA
ENDROOT
BRANCH   2   4
ATOM      4  C   UNL     1      49.850   7.253  17.923  0.00  0.00    +0.000 A 
ATOM      5  C   UNL     1      49.713   8.559  18.351  0.00  0.00    +0.000 A 
ATOM      6  S   UNL     1      51.153   9.351  18.785  0.00  0.00    +0.000 S 
ATOM      7  C   UNL     1      52.049   7.946  18.496  0.00  0.00    +0.000 A 
ATOM      8  N   UNL     1      53.383   7.931  18.751  0.00  0.00    +0.000 NA
ATOM      9  C   UNL     1      53.947   6.793  18.530  0.00  0.00    +0.000 A 
ATOM     10  N   UNL     1      53.302   5.686  18.041  0.00  0.00    +0.000 N 
ATOM     11  C   UNL     1      51.971   5.695  17.654  0.00  0.00    +0.000 A 
ATOM     12  O   UNL     1      51.503   4.762  17.011  0.00  0.00    +0.000 OA
ATOM     13  C   UNL     1      51.266   6.914  18.000  0.00  0.00    +0.000 A 
ATOM     14  H   UNL     1      53.820   4.851  17.814  0.00  0.00    +0.000 HD
ENDBRANCH   2   4
BRANCH   1  15
ATOM     15  C   UNL     1      47.293   5.086  16.022  0.00  0.00    +0.000 C 
BRANCH  15  16
ATOM     16  C   UNL     1      47.890   3.720  15.678  0.00  0.00    +0.000 C 
BRANCH  16  17
ATOM     17  C   UNL     1      47.886   2.734  16.843  0.00  0.00    +0.000 C 
BRANCH  17  18
ATOM     18  N   UNL     1      46.709   2.983  17.676  0.00  0.00    +0.000 NA
ATOM     19  H   UNL     1      46.704   3.950  17.993  0.00  0.00    +0.000 HD
ATOM     20  H   UNL     1      46.759   2.405  18.516  0.00  0.00    +0.000 HD
ENDBRANCH  17  18
ENDBRANCH  16  17
ENDBRANCH  15  16
ENDBRANCH   1  15
BRANCH   1  21
ATOM     21  C   UNL     1      49.042   6.546  15.090  0.00  0.00    +0.000 C 
BRANCH  21  22
ATOM     22  C   UNL     1      48.341   7.127  13.870  0.00  0.00    +0.000 A 
ATOM     23  C   UNL     1      48.232   6.439  12.656  0.00  0.00    +0.000 A 
ATOM     24  C   UNL     1      47.096   6.606  11.851  0.00  0.00    +0.000 A 
ATOM     25  C   UNL     1      46.126   7.561  12.177  0.00  0.00    +0.000 A 
ATOM     26  C   UNL     1      46.394   8.440  13.231  0.00  0.00    +0.000 A 
ATOM     27  C   UNL     1      47.487   8.221  14.073  0.00  0.00    +0.000 A 
BRANCH  25  28
ATOM     28  C   UNL     1      44.766   7.558  11.504  0.00  0.00    +0.000 C 
BRANCH  28  29
ATOM     29  N   UNL     1      43.932   6.513  12.097  0.00  0.00    +0.000 NA
ATOM     30  H   UNL     1      43.259   6.921  12.737  0.00  0.00    +0.000 HD
BRANCH  29  31
ATOM     31  C   UNL     1      43.268   5.631  11.161  0.00  0.00    +0.000 C 
ATOM     32  C   UNL     1      44.275   4.777  10.390  0.00  0.00    +0.000 C 
ATOM     33  C   UNL     1      44.653   3.678  11.369  0.00  0.00    +0.000 C 
ATOM     34  C   UNL     1      43.416   3.525  12.241  0.00  0.00    +0.000 C 
ATOM     35  N   UNL     1      42.518   4.620  11.875  0.00  0.00    +0.000 NA
ATOM     36  H   UNL     1      42.029   4.993  12.679  0.00  0.00    +0.000 HD
ENDBRANCH  29  31
ENDBRANCH  28  29
ENDBRANCH  25  28
ENDBRANCH  21  22
ENDBRANCH   1  21
TORSDOF 10
ENDMDL
