MODEL 1
REMARK VINA RESULT:    -7.946      0.000      0.000
REMARK INTER + INTRA:         -12.660
REMARK INTER:                 -11.430
REMARK INTRA:                  -1.230
REMARK UNBOUND:                -1.230
REMARK  Name = 
REMARK  8 active torsions:
REMARK  status: ('A' for Active; 'I' for Inactive)
REMARK    1  A    between atoms: C_2  and  C_20
REMARK    2  A    between atoms: N_3  and  C_4
REMARK    3  A    between atoms: C_4  and  C_5
REMARK    4  A    between atoms: C_8  and  C_9
REMARK    5  A    between atoms: C_9  and  O_10
REMARK    6  A    between atoms: C_9  and  C_11
REMARK    7  A    between atoms: C_11  and  C_12
REMARK    8  A    between atoms: C_12  and  N_13
REMARK                            x       y       z     vdW  Elec       q    Type
REMARK                         _______ _______ _______ _____ _____    ______ ____
ROOT
ATOM      1  C   UNL     1      47.164   7.566  13.272  0.00  0.00    +0.000 C 
ENDROOT
BRANCH   1   2
ATOM      2  C   UNL     1      46.349   6.629  12.411  0.00  0.00    +0.000 A 
ATOM      3  C   UNL     1      46.511   6.635  11.032  0.00  0.00    +0.000 A 
ATOM      4  C   UNL     1      45.736   5.779  10.264  0.00  0.00    +0.000 A 
ATOM      5  C   UNL     1      44.837   4.898  10.875  0.00  0.00    +0.000 A 
ATOM      6  C   UNL     1      44.741   4.964  12.261  0.00  0.00    +0.000 A 
ATOM      7  N   UNL     1      45.464   5.810  13.036  0.00  0.00    +0.000 NA
BRANCH   5   8
ATOM      8  C   UNL     1      44.003   3.911  10.095  0.00  0.00    +0.000 C 
BRANCH   8   9
ATOM      9  O   UNL     1      43.706   4.487   8.820  0.00  0.00    +0.000 OA
ATOM     10  H   UNL     1      44.262   4.039   8.159  0.00  0.00    +0.000 HD
ENDBRANCH   8   9
BRANCH   8  11
ATOM     11  C   UNL     1      44.675   2.548   9.859  0.00  0.00    +0.000 C 
BRANCH  11  12
ATOM     12  C   UNL     1      45.052   2.290   8.394  0.00  0.00    +0.000 C 
BRANCH  12  13
ATOM     13  N   UNL     1      46.495   2.431   8.121  0.00  0.00    +0.000 NA
ATOM     14  C   UNL     1      46.752   3.643   7.324  0.00  0.00    +0.000 C 
ATOM     15  C   UNL     1      46.634   3.187   5.881  0.00  0.00    +0.000 C 
ATOM     16  C   UNL     1      47.302   1.829   5.910  0.00  0.00    +0.000 C 
ATOM     17  C   UNL     1      47.115   1.339   7.345  0.00  0.00    +0.000 C 
ENDBRANCH  12  13
ENDBRANCH  11  12
ENDBRANCH   8  11
ENDBRANCH   5   8
ENDBRANCH   1   2
BRANCH   1  20
ATOM     18  O   UNL     1      49.747   7.036  14.095  0.00  0.00    +0.000 OA
ATOM     19  C   UNL     1      48.834   6.802  14.886  0.00  0.00    +0.000 C 
ATOM     20  N   UNL     1      47.517   7.006  14.562  0.00  0.00    +0.000 N 
ATOM     21  H   UNL     1      46.797   6.952  15.269  0.00  0.00    +0.000 HD
BRANCH  19  22
ATOM     22  C   UNL     1      49.085   6.247  16.214  0.00  0.00    +0.000 A 
ATOM     23  C   UNL     1      49.815   6.895  17.200  0.00  0.00    +0.000 A 
ATOM     24  S   UNL     1      49.820   6.049  18.688  0.00  0.00    +0.000 S 
ATOM     25  C   UNL     1      48.848   4.802  18.052  0.00  0.00    +0.000 A 
ATOM     26  N   UNL     1      48.459   3.747  18.822  0.00  0.00    +0.000 NA
ATOM     27  C   UNL     1      47.711   2.894  18.204  0.00  0.00    +0.000 A 
ATOM     28  N   UNL     1      47.323   2.991  16.893  0.00  0.00    +0.000 N 
ATOM     29  C   UNL     1      47.765   3.986  16.051  0.00  0.00    +0.000 A 
ATOM     30  O   UNL     1      47.552   3.924  14.849  0.00  0.00    +0.000 OA
ATOM     31  C   UNL     1      48.549   5.015  16.722  0.00  0.00    +0.000 A 
ATOM     32  H   UNL     1      46.783   2.263  16.452  0.00  0.00    +0.000 HD
ENDBRANCH  19  22
ENDBRANCH   1  20
TORSDOF 8
ENDMDL
MODEL 2
REMARK VINA RESULT:    -7.362      2.386      2.931
REMARK INTER + INTRA:         -11.819
REMARK INTER:                 -10.750
REMARK INTRA:                  -1.069
REMARK UNBOUND:                -1.230
REMARK  Name = 
REMARK  8 active torsions:
REMARK  status: ('A' for Active; 'I' for Inactive)
REMARK    1  A    between atoms: C_2  and  C_20
REMARK    2  A    between atoms: N_3  and  C_4
REMARK    3  A    between atoms: C_4  and  C_5
REMARK    4  A    between atoms: C_8  and  C_9
REMARK    5  A    between atoms: C_9  and  O_10
REMARK    6  A    between atoms: C_9  and  C_11
REMARK    7  A    between atoms: C_11  and  C_12
REMARK    8  A    between atoms: C_12  and  N_13
REMARK                            x       y       z     vdW  Elec       q    Type
REMARK                         _______ _______ _______ _____ _____    ______ ____
ROOT
ATOM      1  C   UNL     1      47.325   4.195  15.206  0.00  0.00    +0.000 C 
ENDROOT
BRANCH   1   2
ATOM      2  C   UNL     1      46.598   4.397  13.896  0.00  0.00    +0.000 A 
ATOM      3  C   UNL     1      46.532   5.661  13.326  0.00  0.00    +0.000 A 
ATOM      4  C   UNL     1      45.841   5.821  12.133  0.00  0.00    +0.000 A 
ATOM      5  C   UNL     1      45.260   4.719  11.498  0.00  0.00    +0.000 A 
ATOM      6  C   UNL     1      45.377   3.492  12.145  0.00  0.00    +0.000 A 
ATOM      7  N   UNL     1      46.019   3.309  13.324  0.00  0.00    +0.000 NA
BRANCH   5   8
ATOM      8  C   UNL     1      44.539   4.823  10.177  0.00  0.00    +0.000 C 
BRANCH   8   9
ATOM      9  O   UNL     1      45.342   5.611   9.293  0.00  0.00    +0.000 OA
ATOM     10  H   UNL     1      45.563   5.057   8.525  0.00  0.00    +0.000 HD
ENDBRANCH   8   9
BRANCH   8  11
ATOM     11  C   UNL     1      44.256   3.475   9.492  0.00  0.00    +0.000 C 
BRANCH  11  12
ATOM     12  C   UNL     1      44.867   3.354   8.089  0.00  0.00    +0.000 C 
BRANCH  12  13
ATOM     13  N   UNL     1      46.300   3.004   8.097  0.00  0.00    +0.000 NA
ATOM     14  C   UNL     1      47.010   3.718   7.021  0.00  0.00    +0.000 C 
ATOM     15  C   UNL     1      46.904   2.800   5.816  0.00  0.00    +0.000 C 
ATOM     16  C   UNL     1      47.100   1.430   6.429  0.00  0.00    +0.000 C 
ATOM     17  C   UNL     1      46.619   1.581   7.871  0.00  0.00    +0.000 C 
ENDBRANCH  12  13
ENDBRANCH  11  12
ENDBRANCH   8  11
ENDBRANCH   5   8
ENDBRANCH   1   2
BRANCH   1  20
ATOM     18  O   UNL     1      49.612   4.858  16.606  0.00  0.00    +0.000 OA
ATOM     19  C   UNL     1      48.685   5.667  16.607  0.00  0.00    +0.000 C 
ATOM     20  N   UNL     1      47.499   5.418  15.965  0.00  0.00    +0.000 N 
ATOM     21  H   UNL     1      46.811   6.150  15.849  0.00  0.00    +0.000 HD
BRANCH  19  22
ATOM     22  C   UNL     1      48.765   6.933  17.332  0.00  0.00    +0.000 A 
ATOM     23  C   UNL     1      49.168   8.130  16.758  0.00  0.00    +0.000 A 
ATOM     24  S   UNL     1      49.028   9.460  17.827  0.00  0.00    +0.000 S 
ATOM     25  C   UNL     1      48.425   8.470  19.076  0.00  0.00    +0.000 A 
ATOM     26  N   UNL     1      48.080   8.993  20.287  0.00  0.00    +0.000 NA
ATOM     27  C   UNL     1      47.622   8.121  21.123  0.00  0.00    +0.000 A 
ATOM     28  N   UNL     1      47.485   6.781  20.868  0.00  0.00    +0.000 N 
ATOM     29  C   UNL     1      47.906   6.193  19.697  0.00  0.00    +0.000 A 
ATOM     30  O   UNL     1      47.944   4.975  19.590  0.00  0.00    +0.000 OA
ATOM     31  C   UNL     1      48.358   7.146  18.692  0.00  0.00    +0.000 A 
ATOM     32  H   UNL     1      47.173   6.141  21.582  0.00  0.00    +0.000 HD
ENDBRANCH  19  22
ENDBRANCH   1  20
TORSDOF 8
ENDMDL
MODEL 3
REMARK VINA RESULT:    -7.317      1.957      3.328
REMARK INTER + INTRA:         -11.755
REMARK INTER:                 -10.460
REMARK INTRA:                  -1.295
REMARK UNBOUND:                -1.230
REMARK  Name = 
REMARK  8 active torsions:
REMARK  status: ('A' for Active; 'I' for Inactive)
REMARK    1  A    between atoms: C_2  and  C_20
REMARK    2  A    between atoms: N_3  and  C_4
REMARK    3  A    between atoms: C_4  and  C_5
REMARK    4  A    between atoms: C_8  and  C_9
REMARK    5  A    between atoms: C_9  and  O_10
REMARK    6  A    between atoms: C_9  and  C_11
REMARK    7  A    between atoms: C_11  and  C_12
REMARK    8  A    between atoms: C_12  and  N_13
REMARK                            x       y       z     vdW  Elec       q    Type
REMARK                         _______ _______ _______ _____ _____    ______ ____
ROOT
ATOM      1  C   UNL     1      47.148   4.242  15.156  0.00  0.00    +0.000 C 
ENDROOT
BRANCH   1   2
ATOM      2  C   UNL     1      46.453   4.397  13.822  0.00  0.00    +0.000 A 
ATOM      3  C   UNL     1      46.427   5.633  13.192  0.00  0.00    +0.000 A 
ATOM      4  C   UNL     1      45.764   5.751  11.979  0.00  0.00    +0.000 A 
ATOM      5  C   UNL     1      45.171   4.632  11.384  0.00  0.00    +0.000 A 
ATOM      6  C   UNL     1      45.247   3.435  12.090  0.00  0.00    +0.000 A 
ATOM      7  N   UNL     1      45.862   3.295  13.290  0.00  0.00    +0.000 NA
BRANCH   5   8
ATOM      8  C   UNL     1      44.480   4.689  10.044  0.00  0.00    +0.000 C 
BRANCH   8   9
ATOM      9  O   UNL     1      45.268   5.503   9.171  0.00  0.00    +0.000 OA
ATOM     10  H   UNL     1      44.702   6.230   8.857  0.00  0.00    +0.000 HD
ENDBRANCH   8   9
BRANCH   8  11
ATOM     11  C   UNL     1      44.276   3.322   9.369  0.00  0.00    +0.000 C 
BRANCH  11  12
ATOM     12  C   UNL     1      44.911   3.220   7.974  0.00  0.00    +0.000 C 
BRANCH  12  13
ATOM     13  N   UNL     1      46.352   2.907   8.003  0.00  0.00    +0.000 NA
ATOM     14  C   UNL     1      47.062   3.655   6.950  0.00  0.00    +0.000 C 
ATOM     15  C   UNL     1      47.001   2.753   5.731  0.00  0.00    +0.000 C 
ATOM     16  C   UNL     1      47.221   1.379   6.327  0.00  0.00    +0.000 C 
ATOM     17  C   UNL     1      46.712   1.496   7.762  0.00  0.00    +0.000 C 
ENDBRANCH  12  13
ENDBRANCH  11  12
ENDBRANCH   8  11
ENDBRANCH   5   8
ENDBRANCH   1   2
BRANCH   1  20
ATOM     18  O   UNL     1      49.253   4.424  16.935  0.00  0.00    +0.000 OA
ATOM     19  C   UNL     1      48.742   5.472  16.542  0.00  0.00    +0.000 C 
ATOM     20  N   UNL     1      47.676   5.486  15.680  0.00  0.00    +0.000 N 
ATOM     21  H   UNL     1      47.369   6.349  15.253  0.00  0.00    +0.000 HD
BRANCH  19  22
ATOM     22  C   UNL     1      49.208   6.779  17.002  0.00  0.00    +0.000 A 
ATOM     23  C   UNL     1      49.140   7.205  18.321  0.00  0.00    +0.000 A 
ATOM     24  S   UNL     1      49.886   8.726  18.567  0.00  0.00    +0.000 S 
ATOM     25  C   UNL     1      50.317   8.848  16.923  0.00  0.00    +0.000 A 
ATOM     26  N   UNL     1      51.008   9.925  16.452  0.00  0.00    +0.000 NA
ATOM     27  C   UNL     1      51.276   9.865  15.190  0.00  0.00    +0.000 A 
ATOM     28  N   UNL     1      50.915   8.839  14.355  0.00  0.00    +0.000 N 
ATOM     29  C   UNL     1      50.139   7.778  14.763  0.00  0.00    +0.000 A 
ATOM     30  O   UNL     1      49.681   6.992  13.946  0.00  0.00    +0.000 OA
ATOM     31  C   UNL     1      49.876   7.761  16.196  0.00  0.00    +0.000 A 
ATOM     32  H   UNL     1      51.106   8.877  13.366  0.00  0.00    +0.000 HD
ENDBRANCH  19  22
ENDBRANCH   1  20
TORSDOF 8
ENDMDL
MODEL 4
REMARK VINA RESULT:    -7.219      2.109      3.084
REMARK INTER + INTRA:         -11.614
REMARK INTER:                 -10.392
REMARK INTRA:                  -1.223
REMARK UNBOUND:                -1.230
REMARK  Name = 
REMARK  8 active torsions:
REMARK  status: ('A' for Active; 'I' for Inactive)
REMARK    1  A    between atoms: C_2  and  C_20
REMARK    2  A    between atoms: N_3  and  C_4
REMARK    3  A    between atoms: C_4  and  C_5
REMARK    4  A    between atoms: C_8  and  C_9
REMARK    5  A    between atoms: C_9  and  O_10
REMARK    6  A    between atoms: C_9  and  C_11
REMARK    7  A    between atoms: C_11  and  C_12
REMARK    8  A    between atoms: C_12  and  N_13
REMARK                            x       y       z     vdW  Elec       q    Type
REMARK                         _______ _______ _______ _____ _____    ______ ____
ROOT
ATOM      1  C   UNL     1      47.574   3.425  15.054  0.00  0.00    +0.000 C 
ENDROOT
BRANCH   1   2
ATOM      2  C   UNL     1      46.794   3.884  13.843  0.00  0.00    +0.000 A 
ATOM      3  C   UNL     1      46.866   5.208  13.431  0.00  0.00    +0.000 A 
ATOM      4  C   UNL     1      46.124   5.606  12.329  0.00  0.00    +0.000 A 
ATOM      5  C   UNL     1      45.350   4.678  11.623  0.00  0.00    +0.000 A 
ATOM      6  C   UNL     1      45.338   3.375  12.111  0.00  0.00    +0.000 A 
ATOM      7  N   UNL     1      46.029   2.962  13.202  0.00  0.00    +0.000 NA
BRANCH   5   8
ATOM      8  C   UNL     1      44.561   5.042  10.389  0.00  0.00    +0.000 C 
BRANCH   8   9
ATOM      9  O   UNL     1      45.405   5.820   9.535  0.00  0.00    +0.000 OA
ATOM     10  H   UNL     1      45.337   5.449   8.638  0.00  0.00    +0.000 HD
ENDBRANCH   8   9
BRANCH   8  11
ATOM     11  C   UNL     1      44.041   3.840   9.583  0.00  0.00    +0.000 C 
BRANCH  11  12
ATOM     12  C   UNL     1      44.700   3.689   8.204  0.00  0.00    +0.000 C 
BRANCH  12  13
ATOM     13  N   UNL     1      46.099   3.226   8.266  0.00  0.00    +0.000 NA
ATOM     14  C   UNL     1      46.886   3.819   7.170  0.00  0.00    +0.000 C 
ATOM     15  C   UNL     1      46.729   2.847   6.014  0.00  0.00    +0.000 C 
ATOM     16  C   UNL     1      46.799   1.502   6.704  0.00  0.00    +0.000 C 
ATOM     17  C   UNL     1      46.304   1.771   8.124  0.00  0.00    +0.000 C 
ENDBRANCH  12  13
ENDBRANCH  11  12
ENDBRANCH   8  11
ENDBRANCH   5   8
ENDBRANCH   1   2
BRANCH   1  20
ATOM     18  O   UNL     1      47.025   3.266  17.757  0.00  0.00    +0.000 OA
ATOM     19  C   UNL     1      47.548   4.297  17.338  0.00  0.00    +0.000 C 
ATOM     20  N   UNL     1      47.834   4.484  16.009  0.00  0.00    +0.000 N 
ATOM     21  H   UNL     1      48.396   5.267  15.708  0.00  0.00    +0.000 HD
BRANCH  19  22
ATOM     22  C   UNL     1      47.860   5.419  18.221  0.00  0.00    +0.000 A 
ATOM     23  C   UNL     1      46.928   6.047  19.034  0.00  0.00    +0.000 A 
ATOM     24  S   UNL     1      47.626   7.236  20.049  0.00  0.00    +0.000 S 
ATOM     25  C   UNL     1      49.185   6.938  19.428  0.00  0.00    +0.000 A 
ATOM     26  N   UNL     1      50.271   7.621  19.890  0.00  0.00    +0.000 NA
ATOM     27  C   UNL     1      51.384   7.271  19.335  0.00  0.00    +0.000 A 
ATOM     28  N   UNL     1      51.513   6.313  18.363  0.00  0.00    +0.000 N 
ATOM     29  C   UNL     1      50.437   5.664  17.801  0.00  0.00    +0.000 A 
ATOM     30  O   UNL     1      50.582   4.965  16.808  0.00  0.00    +0.000 OA
ATOM     31  C   UNL     1      49.167   5.969  18.446  0.00  0.00    +0.000 A 
ATOM     32  H   UNL     1      52.404   6.124  17.930  0.00  0.00    +0.000 HD
ENDBRANCH  19  22
ENDBRANCH   1  20
TORSDOF 8
ENDMDL
MODEL 5
REMARK VINA RESULT:    -6.845      1.747      2.213
REMARK INTER + INTRA:         -11.076
REMARK INTER:                  -9.963
REMARK INTRA:                  -1.113
REMARK UNBOUND:                -1.230
REMARK  Name = 
REMARK  8 active torsions:
REMARK  status: ('A' for Active; 'I' for Inactive)
REMARK    1  A    between atoms: C_2  and  C_20
REMARK    2  A    between atoms: N_3  and  C_4
REMARK    3  A    between atoms: C_4  and  C_5
REMARK    4  A    between atoms: C_8  and  C_9
REMARK    5  A    between atoms: C_9  and  O_10
REMARK    6  A    between atoms: C_9  and  C_11
REMARK    7  A    between atoms: C_11  and  C_12
REMARK    8  A    between atoms: C_12  and  N_13
REMARK                            x       y       z     vdW  Elec       q    Type
REMARK                         _______ _______ _______ _____ _____    ______ ____
ROOT
ATOM      1  C   UNL     1      48.107   7.323  13.804  0.00  0.00    +0.000 C 
ENDROOT
BRANCH   1   2
ATOM      2  C   UNL     1      46.893   6.695  13.159  0.00  0.00    +0.000 A 
ATOM      3  C   UNL     1      46.357   7.247  12.003  0.00  0.00    +0.000 A 
ATOM      4  C   UNL     1      45.230   6.662  11.444  0.00  0.00    +0.000 A 
ATOM      5  C   UNL     1      44.672   5.512  12.013  0.00  0.00    +0.000 A 
ATOM      6  C   UNL     1      45.277   5.032  13.171  0.00  0.00    +0.000 A 
ATOM      7  N   UNL     1      46.360   5.598  13.757  0.00  0.00    +0.000 NA
BRANCH   5   8
ATOM      8  C   UNL     1      43.477   4.805  11.422  0.00  0.00    +0.000 C 
BRANCH   8   9
ATOM      9  O   UNL     1      43.182   5.409  10.160  0.00  0.00    +0.000 OA
ATOM     10  H   UNL     1      43.844   6.105  10.006  0.00  0.00    +0.000 HD
ENDBRANCH   8   9
BRANCH   8  11
ATOM     11  C   UNL     1      43.672   3.296  11.196  0.00  0.00    +0.000 C 
BRANCH  11  12
ATOM     12  C   UNL     1      44.898   2.953  10.338  0.00  0.00    +0.000 C 
BRANCH  12  13
ATOM     13  N   UNL     1      44.576   2.717   8.918  0.00  0.00    +0.000 NA
ATOM     14  C   UNL     1      45.046   1.385   8.497  0.00  0.00    +0.000 C 
ATOM     15  C   UNL     1      46.471   1.611   8.026  0.00  0.00    +0.000 C 
ATOM     16  C   UNL     1      46.369   2.931   7.292  0.00  0.00    +0.000 C 
ATOM     17  C   UNL     1      45.193   3.649   7.953  0.00  0.00    +0.000 C 
ENDBRANCH  12  13
ENDBRANCH  11  12
ENDBRANCH   8  11
ENDBRANCH   5   8
ENDBRANCH   1   2
BRANCH   1  20
ATOM     18  O   UNL     1      49.858   8.688  15.448  0.00  0.00    +0.000 OA
ATOM     19  C   UNL     1      48.983   8.008  15.981  0.00  0.00    +0.000 C 
ATOM     20  N   UNL     1      48.084   7.272  15.252  0.00  0.00    +0.000 N 
ATOM     21  H   UNL     1      47.285   6.844  15.699  0.00  0.00    +0.000 HD
BRANCH  19  22
ATOM     22  C   UNL     1      48.867   7.899  17.434  0.00  0.00    +0.000 A 
ATOM     23  C   UNL     1      48.501   8.949  18.263  0.00  0.00    +0.000 A 
ATOM     24  S   UNL     1      48.324   8.474  19.898  0.00  0.00    +0.000 S 
ATOM     25  C   UNL     1      48.729   6.859  19.536  0.00  0.00    +0.000 A 
ATOM     26  N   UNL     1      48.751   5.902  20.507  0.00  0.00    +0.000 NA
ATOM     27  C   UNL     1      49.058   4.724  20.075  0.00  0.00    +0.000 A 
ATOM     28  N   UNL     1      49.352   4.414  18.772  0.00  0.00    +0.000 N 
ATOM     29  C   UNL     1      49.433   5.361  17.776  0.00  0.00    +0.000 A 
ATOM     30  O   UNL     1      49.886   5.071  16.678  0.00  0.00    +0.000 OA
ATOM     31  C   UNL     1      49.020   6.693  18.198  0.00  0.00    +0.000 A 
ATOM     32  H   UNL     1      49.639   3.485  18.507  0.00  0.00    +0.000 HD
ENDBRANCH  19  22
ENDBRANCH   1  20
TORSDOF 8
ENDMDL
MODEL 6
REMARK VINA RESULT:    -6.717      3.242      5.526
REMARK INTER + INTRA:         -10.891
REMARK INTER:                  -9.890
REMARK INTRA:                  -1.001
REMARK UNBOUND:                -1.230
REMARK  Name = 
REMARK  8 active torsions:
REMARK  status: ('A' for Active; 'I' for Inactive)
REMARK    1  A    between atoms: C_2  and  C_20
REMARK    2  A    between atoms: N_3  and  C_4
REMARK    3  A    between atoms: C_4  and  C_5
REMARK    4  A    between atoms: C_8  and  C_9
REMARK    5  A    between atoms: C_9  and  O_10
REMARK    6  A    between atoms: C_9  and  C_11
REMARK    7  A    between atoms: C_11  and  C_12
REMARK    8  A    between atoms: C_12  and  N_13
REMARK                            x       y       z     vdW  Elec       q    Type
REMARK                         _______ _______ _______ _____ _____    ______ ____
ROOT
ATOM      1  C   UNL     1      47.777   3.350  17.411  0.00  0.00    +0.000 C 
ENDROOT
BRANCH   1   2
ATOM      2  C   UNL     1      47.627   4.245  16.202  0.00  0.00    +0.000 A 
ATOM      3  C   UNL     1      48.268   5.476  16.165  0.00  0.00    +0.000 A 
ATOM      4  C   UNL     1      48.097   6.285  15.051  0.00  0.00    +0.000 A 
ATOM      5  C   UNL     1      47.326   5.847  13.968  0.00  0.00    +0.000 A 
ATOM      6  C   UNL     1      46.722   4.600  14.096  0.00  0.00    +0.000 A 
ATOM      7  N   UNL     1      46.846   3.799  15.183  0.00  0.00    +0.000 NA
BRANCH   5   8
ATOM      8  C   UNL     1      47.145   6.662  12.711  0.00  0.00    +0.000 C 
BRANCH   8   9
ATOM      9  O   UNL     1      48.440   6.963  12.185  0.00  0.00    +0.000 OA
ATOM     10  H   UNL     1      48.339   7.126  11.231  0.00  0.00    +0.000 HD
ENDBRANCH   8   9
BRANCH   8  11
ATOM     11  C   UNL     1      46.330   5.966  11.608  0.00  0.00    +0.000 C 
BRANCH  11  12
ATOM     12  C   UNL     1      44.903   6.510  11.456  0.00  0.00    +0.000 C 
BRANCH  12  13
ATOM     13  N   UNL     1      43.926   5.492  11.024  0.00  0.00    +0.000 NA
ATOM     14  C   UNL     1      42.708   5.565  11.851  0.00  0.00    +0.000 C 
ATOM     15  C   UNL     1      42.986   4.644  13.025  0.00  0.00    +0.000 C 
ATOM     16  C   UNL     1      43.702   3.483  12.370  0.00  0.00    +0.000 C 
ATOM     17  C   UNL     1      44.365   4.088  11.134  0.00  0.00    +0.000 C 
ENDBRANCH  12  13
ENDBRANCH  11  12
ENDBRANCH   8  11
ENDBRANCH   5   8
ENDBRANCH   1   2
BRANCH   1  20
ATOM     18  O   UNL     1      49.507   1.715  16.011  0.00  0.00    +0.000 OA
ATOM     19  C   UNL     1      49.944   2.294  17.005  0.00  0.00    +0.000 C 
ATOM     20  N   UNL     1      49.156   3.105  17.782  0.00  0.00    +0.000 N 
ATOM     21  H   UNL     1      49.565   3.687  18.500  0.00  0.00    +0.000 HD
BRANCH  19  22
ATOM     22  C   UNL     1      51.323   2.122  17.456  0.00  0.00    +0.000 A 
ATOM     23  C   UNL     1      51.921   0.888  17.665  0.00  0.00    +0.000 A 
ATOM     24  S   UNL     1      53.582   1.014  18.061  0.00  0.00    +0.000 S 
ATOM     25  C   UNL     1      53.540   2.715  17.960  0.00  0.00    +0.000 A 
ATOM     26  N   UNL     1      54.659   3.463  18.175  0.00  0.00    +0.000 NA
ATOM     27  C   UNL     1      54.473   4.734  18.045  0.00  0.00    +0.000 A 
ATOM     28  N   UNL     1      53.277   5.328  17.730  0.00  0.00    +0.000 N 
ATOM     29  C   UNL     1      52.103   4.623  17.595  0.00  0.00    +0.000 A 
ATOM     30  O   UNL     1      51.033   5.208  17.508  0.00  0.00    +0.000 OA
ATOM     31  C   UNL     1      52.276   3.177  17.657  0.00  0.00    +0.000 A 
ATOM     32  H   UNL     1      53.183   6.330  17.697  0.00  0.00    +0.000 HD
ENDBRANCH  19  22
ENDBRANCH   1  20
TORSDOF 8
ENDMDL
MODEL 7
REMARK VINA RESULT:    -6.684      3.730      8.580
REMARK INTER + INTRA:         -10.845
REMARK INTER:                  -9.548
REMARK INTRA:                  -1.297
REMARK UNBOUND:                -1.230
REMARK  Name = 
REMARK  8 active torsions:
REMARK  status: ('A' for Active; 'I' for Inactive)
REMARK    1  A    between atoms: C_2  and  C_20
REMARK    2  A    between atoms: N_3  and  C_4
REMARK    3  A    between atoms: C_4  and  C_5
REMARK    4  A    between atoms: C_8  and  C_9
REMARK    5  A    between atoms: C_9  and  O_10
REMARK    6  A    between atoms: C_9  and  C_11
REMARK    7  A    between atoms: C_11  and  C_12
REMARK    8  A    between atoms: C_12  and  N_13
REMARK                            x       y       z     vdW  Elec       q    Type
REMARK                         _______ _______ _______ _____ _____    ______ ____
ROOT
ATOM      1  C   UNL     1      48.379   7.396  14.218  0.00  0.00    +0.000 C 
ENDROOT
BRANCH   1   2
ATOM      2  C   UNL     1      48.929   6.596  15.376  0.00  0.00    +0.000 A 
ATOM      3  C   UNL     1      50.114   6.984  15.988  0.00  0.00    +0.000 A 
ATOM      4  C   UNL     1      50.606   6.220  17.036  0.00  0.00    +0.000 A 
ATOM      5  C   UNL     1      49.898   5.103  17.492  0.00  0.00    +0.000 A 
ATOM      6  C   UNL     1      48.722   4.790  16.817  0.00  0.00    +0.000 A 
ATOM      7  N   UNL     1      48.230   5.500  15.772  0.00  0.00    +0.000 NA
BRANCH   5   8
ATOM      8  C   UNL     1      50.359   4.262  18.658  0.00  0.00    +0.000 C 
BRANCH   8   9
ATOM      9  O   UNL     1      49.937   2.915  18.429  0.00  0.00    +0.000 OA
ATOM     10  H   UNL     1      49.356   2.661  19.167  0.00  0.00    +0.000 HD
ENDBRANCH   8   9
BRANCH   8  11
ATOM     11  C   UNL     1      51.881   4.256  18.881  0.00  0.00    +0.000 C 
BRANCH  11  12
ATOM     12  C   UNL     1      52.641   3.317  17.934  0.00  0.00    +0.000 C 
BRANCH  12  13
ATOM     13  N   UNL     1      52.964   2.008  18.533  0.00  0.00    +0.000 NA
ATOM     14  C   UNL     1      54.412   1.900  18.783  0.00  0.00    +0.000 C 
ATOM     15  C   UNL     1      54.982   1.330  17.497  0.00  0.00    +0.000 C 
ATOM     16  C   UNL     1      53.940   0.307  17.100  0.00  0.00    +0.000 C 
ATOM     17  C   UNL     1      52.640   0.825  17.713  0.00  0.00    +0.000 C 
ENDBRANCH  12  13
ENDBRANCH  11  12
ENDBRANCH   8  11
ENDBRANCH   5   8
ENDBRANCH   1   2
BRANCH   1  20
ATOM     18  O   UNL     1      47.662   6.998  11.580  0.00  0.00    +0.000 OA
ATOM     19  C   UNL     1      46.819   6.760  12.445  0.00  0.00    +0.000 C 
ATOM     20  N   UNL     1      47.070   6.953  13.780  0.00  0.00    +0.000 N 
ATOM     21  H   UNL     1      46.425   6.612  14.480  0.00  0.00    +0.000 HD
BRANCH  19  22
ATOM     22  C   UNL     1      45.475   6.300  12.108  0.00  0.00    +0.000 A 
ATOM     23  C   UNL     1      44.487   7.115  11.576  0.00  0.00    +0.000 A 
ATOM     24  S   UNL     1      43.065   6.255  11.164  0.00  0.00    +0.000 S 
ATOM     25  C   UNL     1      43.736   4.778  11.684  0.00  0.00    +0.000 A 
ATOM     26  N   UNL     1      43.034   3.612  11.592  0.00  0.00    +0.000 NA
ATOM     27  C   UNL     1      43.682   2.576  12.009  0.00  0.00    +0.000 A 
ATOM     28  N   UNL     1      44.956   2.594  12.515  0.00  0.00    +0.000 N 
ATOM     29  C   UNL     1      45.668   3.755  12.713  0.00  0.00    +0.000 A 
ATOM     30  O   UNL     1      46.716   3.742  13.343  0.00  0.00    +0.000 OA
ATOM     31  C   UNL     1      45.010   4.943  12.187  0.00  0.00    +0.000 A 
ATOM     32  H   UNL     1      45.388   1.757  12.876  0.00  0.00    +0.000 HD
ENDBRANCH  19  22
ENDBRANCH   1  20
TORSDOF 8
ENDMDL
MODEL 8
REMARK VINA RESULT:    -6.585      3.625      9.019
REMARK INTER + INTRA:         -10.702
REMARK INTER:                  -9.167
REMARK INTRA:                  -1.535
REMARK UNBOUND:                -1.230
REMARK  Name = 
REMARK  8 active torsions:
REMARK  status: ('A' for Active; 'I' for Inactive)
REMARK    1  A    between atoms: C_2  and  C_20
REMARK    2  A    between atoms: N_3  and  C_4
REMARK    3  A    between atoms: C_4  and  C_5
REMARK    4  A    between atoms: C_8  and  C_9
REMARK    5  A    between atoms: C_9  and  O_10
REMARK    6  A    between atoms: C_9  and  C_11
REMARK    7  A    between atoms: C_11  and  C_12
REMARK    8  A    between atoms: C_12  and  N_13
REMARK                            x       y       z     vdW  Elec       q    Type
REMARK                         _______ _______ _______ _____ _____    ______ ____
ROOT
ATOM      1  C   UNL     1      48.638   6.562  14.923  0.00  0.00    +0.000 C 
ENDROOT
BRANCH   1   2
ATOM      2  C   UNL     1      48.723   6.156  16.376  0.00  0.00    +0.000 A 
ATOM      3  C   UNL     1      48.639   7.119  17.373  0.00  0.00    +0.000 A 
ATOM      4  C   UNL     1      48.741   6.720  18.698  0.00  0.00    +0.000 A 
ATOM      5  C   UNL     1      48.883   5.367  19.021  0.00  0.00    +0.000 A 
ATOM      6  C   UNL     1      48.959   4.474  17.956  0.00  0.00    +0.000 A 
ATOM      7  N   UNL     1      48.893   4.836  16.651  0.00  0.00    +0.000 NA
BRANCH   5   8
ATOM      8  C   UNL     1      48.950   4.869  20.445  0.00  0.00    +0.000 C 
BRANCH   8   9
ATOM      9  O   UNL     1      48.331   3.581  20.495  0.00  0.00    +0.000 OA
ATOM     10  H   UNL     1      47.489   3.641  20.011  0.00  0.00    +0.000 HD
ENDBRANCH   8   9
BRANCH   8  11
ATOM     11  C   UNL     1      50.374   4.738  21.012  0.00  0.00    +0.000 C 
BRANCH  11  12
ATOM     12  C   UNL     1      51.263   5.959  20.739  0.00  0.00    +0.000 C 
BRANCH  12  13
ATOM     13  N   UNL     1      52.564   5.618  20.133  0.00  0.00    +0.000 NA
ATOM     14  C   UNL     1      52.950   6.634  19.138  0.00  0.00    +0.000 C 
ATOM     15  C   UNL     1      52.339   6.149  17.836  0.00  0.00    +0.000 C 
ATOM     16  C   UNL     1      52.566   4.654  17.904  0.00  0.00    +0.000 C 
ATOM     17  C   UNL     1      52.619   4.340  19.398  0.00  0.00    +0.000 C 
ENDBRANCH  12  13
ENDBRANCH  11  12
ENDBRANCH   8  11
ENDBRANCH   5   8
ENDBRANCH   1   2
BRANCH   1  20
ATOM     18  O   UNL     1      48.084   6.683  12.219  0.00  0.00    +0.000 OA
ATOM     19  C   UNL     1      47.156   6.419  12.983  0.00  0.00    +0.000 C 
ATOM     20  N   UNL     1      47.324   6.363  14.344  0.00  0.00    +0.000 N 
ATOM     21  H   UNL     1      46.593   5.999  14.939  0.00  0.00    +0.000 HD
BRANCH  19  22
ATOM     22  C   UNL     1      45.797   6.191  12.499  0.00  0.00    +0.000 A 
ATOM     23  C   UNL     1      44.974   7.191  12.001  0.00  0.00    +0.000 A 
ATOM     24  S   UNL     1      43.493   6.589  11.388  0.00  0.00    +0.000 S 
ATOM     25  C   UNL     1      43.917   4.983  11.771  0.00  0.00    +0.000 A 
ATOM     26  N   UNL     1      43.080   3.946  11.488  0.00  0.00    +0.000 NA
ATOM     27  C   UNL     1      43.548   2.788  11.821  0.00  0.00    +0.000 A 
ATOM     28  N   UNL     1      44.766   2.572  12.414  0.00  0.00    +0.000 N 
ATOM     29  C   UNL     1      45.603   3.593  12.802  0.00  0.00    +0.000 A 
ATOM     30  O   UNL     1      46.582   3.363  13.498  0.00  0.00    +0.000 OA
ATOM     31  C   UNL     1      45.154   4.913  12.379  0.00  0.00    +0.000 A 
ATOM     32  H   UNL     1      45.051   1.649  12.700  0.00  0.00    +0.000 HD
ENDBRANCH  19  22
ENDBRANCH   1  20
TORSDOF 8
ENDMDL
MODEL 9
REMARK VINA RESULT:    -6.419      2.680      3.471
REMARK INTER + INTRA:         -10.463
REMARK INTER:                  -9.347
REMARK INTRA:                  -1.116
REMARK UNBOUND:                -1.230
REMARK  Name = 
REMARK  8 active torsions:
REMARK  status: ('A' for Active; 'I' for Inactive)
REMARK    1  A    between atoms: C_2  and  C_20
REMARK    2  A    between atoms: N_3  and  C_4
REMARK    3  A    between atoms: C_4  and  C_5
REMARK    4  A    between atoms: C_8  and  C_9
REMARK    5  A    between atoms: C_9  and  O_10
REMARK    6  A    between atoms: C_9  and  C_11
REMARK    7  A    between atoms: C_11  and  C_12
REMARK    8  A    between atoms: C_12  and  N_13
REMARK                            x       y       z     vdW  Elec       q    Type
REMARK                         _______ _______ _______ _____ _____    ______ ____
ROOT
ATOM      1  C   UNL     1      49.790   8.116  13.968  0.00  0.00    +0.000 C 
ENDROOT
BRANCH   1   2
ATOM      2  C   UNL     1      48.508   7.382  13.646  0.00  0.00    +0.000 A 
ATOM      3  C   UNL     1      47.385   8.090  13.241  0.00  0.00    +0.000 A 
ATOM      4  C   UNL     1      46.216   7.393  12.972  0.00  0.00    +0.000 A 
ATOM      5  C   UNL     1      46.186   5.997  13.067  0.00  0.00    +0.000 A 
ATOM      6  C   UNL     1      47.359   5.374  13.481  0.00  0.00    +0.000 A 
ATOM      7  N   UNL     1      48.508   6.030  13.780  0.00  0.00    +0.000 NA
BRANCH   5   8
ATOM      8  C   UNL     1      44.959   5.182  12.740  0.00  0.00    +0.000 C 
BRANCH   8   9
ATOM      9  O   UNL     1      43.815   5.881  13.237  0.00  0.00    +0.000 OA
ATOM     10  H   UNL     1      43.769   5.724  14.196  0.00  0.00    +0.000 HD
ENDBRANCH   8   9
BRANCH   8  11
ATOM     11  C   UNL     1      44.745   4.919  11.240  0.00  0.00    +0.000 C 
BRANCH  11  12
ATOM     12  C   UNL     1      44.835   3.436  10.853  0.00  0.00    +0.000 C 
BRANCH  12  13
ATOM     13  N   UNL     1      44.261   3.136   9.528  0.00  0.00    +0.000 NA
ATOM     14  C   UNL     1      44.683   1.798   9.075  0.00  0.00    +0.000 C 
ATOM     15  C   UNL     1      45.987   2.036   8.336  0.00  0.00    +0.000 C 
ATOM     16  C   UNL     1      45.710   3.323   7.588  0.00  0.00    +0.000 C 
ATOM     17  C   UNL     1      44.658   4.040   8.431  0.00  0.00    +0.000 C 
ENDBRANCH  12  13
ENDBRANCH  11  12
ENDBRANCH   8  11
ENDBRANCH   5   8
ENDBRANCH   1   2
BRANCH   1  20
ATOM     18  O   UNL     1      51.118   8.689  16.321  0.00  0.00    +0.000 OA
ATOM     19  C   UNL     1      51.390   7.632  15.752  0.00  0.00    +0.000 C 
ATOM     20  N   UNL     1      50.805   7.272  14.565  0.00  0.00    +0.000 N 
ATOM     21  H   UNL     1      50.927   6.340  14.192  0.00  0.00    +0.000 HD
BRANCH  19  22
ATOM     22  C   UNL     1      52.391   6.707  16.277  0.00  0.00    +0.000 A 
ATOM     23  C   UNL     1      53.759   6.925  16.208  0.00  0.00    +0.000 A 
ATOM     24  S   UNL     1      54.666   5.727  17.029  0.00  0.00    +0.000 S 
ATOM     25  C   UNL     1      53.254   4.894  17.496  0.00  0.00    +0.000 A 
ATOM     26  N   UNL     1      53.321   3.761  18.252  0.00  0.00    +0.000 NA
ATOM     27  C   UNL     1      52.168   3.255  18.541  0.00  0.00    +0.000 A 
ATOM     28  N   UNL     1      50.960   3.767  18.141  0.00  0.00    +0.000 N 
ATOM     29  C   UNL     1      50.846   4.852  17.302  0.00  0.00    +0.000 A 
ATOM     30  O   UNL     1      49.764   5.153  16.818  0.00  0.00    +0.000 OA
ATOM     31  C   UNL     1      52.116   5.504  17.011  0.00  0.00    +0.000 A 
ATOM     32  H   UNL     1      50.096   3.293  18.352  0.00  0.00    +0.000 HD
ENDBRANCH  19  22
ENDBRANCH   1  20
TORSDOF 8
ENDMDL
