MODEL 1
REMARK VINA RESULT:    -8.192      0.000      0.000
REMARK INTER + INTRA:         -13.608
REMARK INTER:                 -12.263
REMARK INTRA:                  -1.345
REMARK UNBOUND:                -1.345
REMARK  Name = 
REMARK  11 active torsions:
REMARK  status: ('A' for Active; 'I' for Inactive)
REMARK    1  A    between atoms: C_1  and  O_2
REMARK    2  A    between atoms: O_2  and  C_3
REMARK    3  A    between atoms: C_10  and  C_11
REMARK    4  A    between atoms: N_13  and  C_14
REMARK    5  A    between atoms: C_14  and  C_15
REMARK    6  A    between atoms: C_18  and  N_19
REMARK    7  A    between atoms: N_19  and  C_20
REMARK    8  A    between atoms: N_19  and  C_21
REMARK    9  A    between atoms: C_21  and  C_22
REMARK   10  A    between atoms: C_22  and  O_23
REMARK   11  A    between atoms: C_22  and  C_24
REMARK                            x       y       z     vdW  Elec       q    Type
REMARK                         _______ _______ _______ _____ _____    ______ ____
ROOT
ATOM      1  C   UNL     1      47.371   6.197  13.287  0.00  0.00    +0.000 A 
ATOM      2  C   UNL     1      46.520   5.202  13.772  0.00  0.00    +0.000 A 
ATOM      3  C   UNL     1      45.421   4.772  13.018  0.00  0.00    +0.000 A 
ATOM      4  C   UNL     1      45.126   5.303  11.751  0.00  0.00    +0.000 A 
ATOM      5  C   UNL     1      46.010   6.281  11.270  0.00  0.00    +0.000 A 
ATOM      6  C   UNL     1      47.117   6.718  12.016  0.00  0.00    +0.000 A 
ENDROOT
BRANCH   4   7
ATOM      7  N   UNL     1      43.999   4.913  11.044  0.00  0.00    +0.000 N 
ATOM      8  C   UNL     1      42.675   5.389  11.426  0.00  0.00    +0.000 C 
BRANCH   7   9
ATOM      9  C   UNL     1      44.106   4.201   9.751  0.00  0.00    +0.000 C 
BRANCH   9  10
ATOM     10  C   UNL     1      44.842   2.835   9.853  0.00  0.00    +0.000 C 
BRANCH  10  11
ATOM     11  C   UNL     1      45.661   2.563   8.600  0.00  0.00    +0.000 A 
ATOM     12  C   UNL     1      45.895   3.583   7.679  0.00  0.00    +0.000 A 
ATOM     13  C   UNL     1      46.654   3.309   6.543  0.00  0.00    +0.000 A 
ATOM     14  C   UNL     1      47.170   2.030   6.360  0.00  0.00    +0.000 A 
ATOM     15  C   UNL     1      46.919   1.080   7.332  0.00  0.00    +0.000 A 
ATOM     16  N   UNL     1      46.186   1.320   8.442  0.00  0.00    +0.000 NA
ENDBRANCH  10  11
BRANCH  10  17
ATOM     17  O   UNL     1      43.940   1.735  10.039  0.00  0.00    +0.000 OA
ATOM     18  H   UNL     1      43.923   1.570  10.998  0.00  0.00    +0.000 HD
ENDBRANCH  10  17
ENDBRANCH   9  10
ENDBRANCH   7   9
ENDBRANCH   4   7
BRANCH   1  19
ATOM     19  C   UNL     1      48.547   6.670  14.098  0.00  0.00    +0.000 C 
BRANCH  19  22
ATOM     20  C   UNL     1      49.102   6.361  16.473  0.00  0.00    +0.000 C 
ATOM     21  O   UNL     1      50.216   5.928  16.187  0.00  0.00    +0.000 OA
ATOM     22  N   UNL     1      48.218   6.738  15.500  0.00  0.00    +0.000 N 
ATOM     23  H   UNL     1      47.295   7.072  15.748  0.00  0.00    +0.000 HD
BRANCH  20  31
ATOM     24  C   UNL     1      47.748   8.963  18.289  0.00  0.00    +0.000 A 
ATOM     25  N   UNL     1      47.279   9.802  19.235  0.00  0.00    +0.000 NA
ATOM     26  C   UNL     1      47.156   9.340  20.483  0.00  0.00    +0.000 A 
ATOM     27  N   UNL     1      47.439   8.116  20.914  0.00  0.00    +0.000 NA
ATOM     28  C   UNL     1      47.910   7.313  19.945  0.00  0.00    +0.000 A 
ATOM     29  S   UNL     1      48.316   5.707  20.317  0.00  0.00    +0.000 S 
ATOM     30  C   UNL     1      48.801   5.408  18.717  0.00  0.00    +0.000 A 
ATOM     31  C   UNL     1      48.673   6.506  17.875  0.00  0.00    +0.000 A 
ATOM     32  C   UNL     1      48.115   7.642  18.608  0.00  0.00    +0.000 A 
BRANCH  24  34
ATOM     33  C   UNL     1      49.089  10.105  16.728  0.00  0.00    +0.000 C 
ATOM     34  O   UNL     1      47.861   9.430  16.996  0.00  0.00    +0.000 OA
ENDBRANCH  24  34
ENDBRANCH  20  31
ENDBRANCH  19  22
ENDBRANCH   1  19
TORSDOF 9
ENDMDL
MODEL 2
REMARK VINA RESULT:    -7.378      3.222      4.748
REMARK INTER + INTRA:         -12.389
REMARK INTER:                 -11.367
REMARK INTRA:                  -1.023
REMARK UNBOUND:                -1.345
REMARK  Name = 
REMARK  11 active torsions:
REMARK  status: ('A' for Active; 'I' for Inactive)
REMARK    1  A    between atoms: C_1  and  O_2
REMARK    2  A    between atoms: O_2  and  C_3
REMARK    3  A    between atoms: C_10  and  C_11
REMARK    4  A    between atoms: N_13  and  C_14
REMARK    5  A    between atoms: C_14  and  C_15
REMARK    6  A    between atoms: C_18  and  N_19
REMARK    7  A    between atoms: N_19  and  C_20
REMARK    8  A    between atoms: N_19  and  C_21
REMARK    9  A    between atoms: C_21  and  C_22
REMARK   10  A    between atoms: C_22  and  O_23
REMARK   11  A    between atoms: C_22  and  C_24
REMARK                            x       y       z     vdW  Elec       q    Type
REMARK                         _______ _______ _______ _____ _____    ______ ____
ROOT
ATOM      1  C   UNL     1      48.743   6.549  15.087  0.00  0.00    +0.000 A 
ATOM      2  C   UNL     1      48.608   6.977  13.764  0.00  0.00    +0.000 A 
ATOM      3  C   UNL     1      47.701   6.350  12.901  0.00  0.00    +0.000 A 
ATOM      4  C   UNL     1      46.885   5.283  13.314  0.00  0.00    +0.000 A 
ATOM      5  C   UNL     1      47.016   4.889  14.654  0.00  0.00    +0.000 A 
ATOM      6  C   UNL     1      47.920   5.511  15.530  0.00  0.00    +0.000 A 
ENDROOT
BRANCH   4   7
ATOM      7  N   UNL     1      46.038   4.632  12.430  0.00  0.00    +0.000 N 
ATOM      8  C   UNL     1      45.501   3.313  12.743  0.00  0.00    +0.000 C 
BRANCH   7   9
ATOM      9  C   UNL     1      45.459   5.330  11.260  0.00  0.00    +0.000 C 
BRANCH   9  10
ATOM     10  C   UNL     1      44.494   4.444  10.423  0.00  0.00    +0.000 C 
BRANCH  10  11
ATOM     11  C   UNL     1      45.242   3.727   9.308  0.00  0.00    +0.000 A 
ATOM     12  C   UNL     1      45.892   4.458   8.316  0.00  0.00    +0.000 A 
ATOM     13  C   UNL     1      46.575   3.778   7.310  0.00  0.00    +0.000 A 
ATOM     14  C   UNL     1      46.603   2.387   7.325  0.00  0.00    +0.000 A 
ATOM     15  C   UNL     1      45.958   1.734   8.358  0.00  0.00    +0.000 A 
ATOM     16  N   UNL     1      45.289   2.370   9.345  0.00  0.00    +0.000 NA
ENDBRANCH  10  11
BRANCH  10  17
ATOM     17  O   UNL     1      43.429   5.198   9.827  0.00  0.00    +0.000 OA
ATOM     18  H   UNL     1      43.294   5.966  10.410  0.00  0.00    +0.000 HD
ENDBRANCH  10  17
ENDBRANCH   9  10
ENDBRANCH   7   9
ENDBRANCH   4   7
BRANCH   1  19
ATOM     19  C   UNL     1      49.724   7.212  16.016  0.00  0.00    +0.000 C 
BRANCH  19  22
ATOM     20  C   UNL     1      50.679   5.781  17.771  0.00  0.00    +0.000 C 
ATOM     21  O   UNL     1      49.822   6.143  18.574  0.00  0.00    +0.000 OA
ATOM     22  N   UNL     1      50.705   6.270  16.494  0.00  0.00    +0.000 N 
ATOM     23  H   UNL     1      51.429   5.980  15.850  0.00  0.00    +0.000 HD
BRANCH  20  31
ATOM     24  C   UNL     1      51.003   2.381  17.287  0.00  0.00    +0.000 A 
ATOM     25  N   UNL     1      51.356   1.079  17.296  0.00  0.00    +0.000 NA
ATOM     26  C   UNL     1      52.489   0.736  17.915  0.00  0.00    +0.000 A 
ATOM     27  N   UNL     1      53.339   1.549  18.534  0.00  0.00    +0.000 NA
ATOM     28  C   UNL     1      52.950   2.834  18.509  0.00  0.00    +0.000 A 
ATOM     29  S   UNL     1      53.924   4.014  19.246  0.00  0.00    +0.000 S 
ATOM     30  C   UNL     1      52.828   5.245  18.835  0.00  0.00    +0.000 A 
ATOM     31  C   UNL     1      51.710   4.796  18.142  0.00  0.00    +0.000 A 
ATOM     32  C   UNL     1      51.796   3.351  17.927  0.00  0.00    +0.000 A 
BRANCH  24  34
ATOM     33  C   UNL     1      48.681   2.722  17.460  0.00  0.00    +0.000 C 
ATOM     34  O   UNL     1      49.843   2.742  16.633  0.00  0.00    +0.000 OA
ENDBRANCH  24  34
ENDBRANCH  20  31
ENDBRANCH  19  22
ENDBRANCH   1  19
TORSDOF 9
ENDMDL
MODEL 3
REMARK VINA RESULT:    -7.363      2.826      3.488
REMARK INTER + INTRA:         -12.366
REMARK INTER:                 -11.422
REMARK INTRA:                  -0.944
REMARK UNBOUND:                -1.345
REMARK  Name = 
REMARK  11 active torsions:
REMARK  status: ('A' for Active; 'I' for Inactive)
REMARK    1  A    between atoms: C_1  and  O_2
REMARK    2  A    between atoms: O_2  and  C_3
REMARK    3  A    between atoms: C_10  and  C_11
REMARK    4  A    between atoms: N_13  and  C_14
REMARK    5  A    between atoms: C_14  and  C_15
REMARK    6  A    between atoms: C_18  and  N_19
REMARK    7  A    between atoms: N_19  and  C_20
REMARK    8  A    between atoms: N_19  and  C_21
REMARK    9  A    between atoms: C_21  and  C_22
REMARK   10  A    between atoms: C_22  and  O_23
REMARK   11  A    between atoms: C_22  and  C_24
REMARK                            x       y       z     vdW  Elec       q    Type
REMARK                         _______ _______ _______ _____ _____    ______ ____
ROOT
ATOM      1  C   UNL     1      47.687   6.998  12.943  0.00  0.00    +0.000 A 
ATOM      2  C   UNL     1      47.510   5.801  13.642  0.00  0.00    +0.000 A 
ATOM      3  C   UNL     1      46.408   4.978  13.381  0.00  0.00    +0.000 A 
ATOM      4  C   UNL     1      45.442   5.301  12.411  0.00  0.00    +0.000 A 
ATOM      5  C   UNL     1      45.654   6.493  11.702  0.00  0.00    +0.000 A 
ATOM      6  C   UNL     1      46.757   7.325  11.953  0.00  0.00    +0.000 A 
ENDROOT
BRANCH   4   7
ATOM      7  N   UNL     1      44.323   4.508  12.209  0.00  0.00    +0.000 N 
ATOM      8  C   UNL     1      43.000   4.963  12.620  0.00  0.00    +0.000 C 
BRANCH   7   9
ATOM      9  C   UNL     1      44.381   3.292  11.369  0.00  0.00    +0.000 C 
BRANCH   9  10
ATOM     10  C   UNL     1      43.933   3.530   9.899  0.00  0.00    +0.000 C 
BRANCH  10  11
ATOM     11  C   UNL     1      45.019   3.104   8.922  0.00  0.00    +0.000 A 
ATOM     12  C   UNL     1      45.640   4.049   8.108  0.00  0.00    +0.000 A 
ATOM     13  C   UNL     1      46.637   3.635   7.227  0.00  0.00    +0.000 A 
ATOM     14  C   UNL     1      46.998   2.292   7.189  0.00  0.00    +0.000 A 
ATOM     15  C   UNL     1      46.356   1.420   8.047  0.00  0.00    +0.000 A 
ATOM     16  N   UNL     1      45.386   1.796   8.911  0.00  0.00    +0.000 NA
ENDBRANCH  10  11
BRANCH  10  17
ATOM     17  O   UNL     1      43.614   4.904   9.634  0.00  0.00    +0.000 OA
ATOM     18  H   UNL     1      43.812   5.040   8.692  0.00  0.00    +0.000 HD
ENDBRANCH  10  17
ENDBRANCH   9  10
ENDBRANCH   7   9
ENDBRANCH   4   7
BRANCH   1  19
ATOM     19  C   UNL     1      48.864   7.891  13.228  0.00  0.00    +0.000 C 
BRANCH  19  22
ATOM     20  C   UNL     1      50.535   7.865  15.030  0.00  0.00    +0.000 C 
ATOM     21  O   UNL     1      50.363   9.063  15.247  0.00  0.00    +0.000 OA
ATOM     22  N   UNL     1      49.842   7.217  14.045  0.00  0.00    +0.000 N 
ATOM     23  H   UNL     1      50.009   6.236  13.862  0.00  0.00    +0.000 HD
BRANCH  20  31
ATOM     24  C   UNL     1      50.163   5.304  17.312  0.00  0.00    +0.000 A 
ATOM     25  N   UNL     1      50.310   4.357  18.262  0.00  0.00    +0.000 NA
ATOM     26  C   UNL     1      51.544   4.082  18.693  0.00  0.00    +0.000 A 
ATOM     27  N   UNL     1      52.678   4.639  18.281  0.00  0.00    +0.000 NA
ATOM     28  C   UNL     1      52.490   5.580  17.342  0.00  0.00    +0.000 A 
ATOM     29  S   UNL     1      53.834   6.391  16.693  0.00  0.00    +0.000 S 
ATOM     30  C   UNL     1      52.841   7.339  15.693  0.00  0.00    +0.000 A 
ATOM     31  C   UNL     1      51.484   7.070  15.828  0.00  0.00    +0.000 A 
ATOM     32  C   UNL     1      51.277   5.997  16.801  0.00  0.00    +0.000 A 
BRANCH  24  34
ATOM     33  C   UNL     1      47.930   4.576  17.168  0.00  0.00    +0.000 C 
ATOM     34  O   UNL     1      48.893   5.580  16.851  0.00  0.00    +0.000 OA
ENDBRANCH  24  34
ENDBRANCH  20  31
ENDBRANCH  19  22
ENDBRANCH   1  19
TORSDOF 9
ENDMDL
MODEL 4
REMARK VINA RESULT:    -7.174      3.490      4.908
REMARK INTER + INTRA:         -12.084
REMARK INTER:                 -10.768
REMARK INTRA:                  -1.316
REMARK UNBOUND:                -1.345
REMARK  Name = 
REMARK  11 active torsions:
REMARK  status: ('A' for Active; 'I' for Inactive)
REMARK    1  A    between atoms: C_1  and  O_2
REMARK    2  A    between atoms: O_2  and  C_3
REMARK    3  A    between atoms: C_10  and  C_11
REMARK    4  A    between atoms: N_13  and  C_14
REMARK    5  A    between atoms: C_14  and  C_15
REMARK    6  A    between atoms: C_18  and  N_19
REMARK    7  A    between atoms: N_19  and  C_20
REMARK    8  A    between atoms: N_19  and  C_21
REMARK    9  A    between atoms: C_21  and  C_22
REMARK   10  A    between atoms: C_22  and  O_23
REMARK   11  A    between atoms: C_22  and  C_24
REMARK                            x       y       z     vdW  Elec       q    Type
REMARK                         _______ _______ _______ _____ _____    ______ ____
ROOT
ATOM      1  C   UNL     1      47.234   5.927  13.602  0.00  0.00    +0.000 A 
ATOM      2  C   UNL     1      46.444   4.811  13.885  0.00  0.00    +0.000 A 
ATOM      3  C   UNL     1      45.378   4.460  13.047  0.00  0.00    +0.000 A 
ATOM      4  C   UNL     1      45.058   5.195  11.891  0.00  0.00    +0.000 A 
ATOM      5  C   UNL     1      45.882   6.295  11.611  0.00  0.00    +0.000 A 
ATOM      6  C   UNL     1      46.956   6.655  12.443  0.00  0.00    +0.000 A 
ENDROOT
BRANCH   4   7
ATOM      7  N   UNL     1      43.961   4.873  11.107  0.00  0.00    +0.000 N 
ATOM      8  C   UNL     1      42.633   5.375  11.437  0.00  0.00    +0.000 C 
BRANCH   7   9
ATOM      9  C   UNL     1      44.120   4.216   9.791  0.00  0.00    +0.000 C 
BRANCH   9  10
ATOM     10  C   UNL     1      44.831   2.835   9.868  0.00  0.00    +0.000 C 
BRANCH  10  11
ATOM     11  C   UNL     1      45.643   2.570   8.608  0.00  0.00    +0.000 A 
ATOM     12  C   UNL     1      45.872   3.595   7.692  0.00  0.00    +0.000 A 
ATOM     13  C   UNL     1      46.624   3.327   6.550  0.00  0.00    +0.000 A 
ATOM     14  C   UNL     1      47.139   2.050   6.357  0.00  0.00    +0.000 A 
ATOM     15  C   UNL     1      46.893   1.094   7.324  0.00  0.00    +0.000 A 
ATOM     16  N   UNL     1      46.166   1.328   8.440  0.00  0.00    +0.000 NA
ENDBRANCH  10  11
BRANCH  10  17
ATOM     17  O   UNL     1      43.910   1.748  10.037  0.00  0.00    +0.000 OA
ATOM     18  H   UNL     1      43.746   1.690  10.994  0.00  0.00    +0.000 HD
ENDBRANCH  10  17
ENDBRANCH   9  10
ENDBRANCH   7   9
ENDBRANCH   4   7
BRANCH   1  19
ATOM     19  C   UNL     1      48.374   6.314  14.506  0.00  0.00    +0.000 C 
BRANCH  19  22
ATOM     20  C   UNL     1      50.319   7.814  14.431  0.00  0.00    +0.000 C 
ATOM     21  O   UNL     1      50.338   7.899  15.658  0.00  0.00    +0.000 OA
ATOM     22  N   UNL     1      49.376   7.060  13.788  0.00  0.00    +0.000 N 
ATOM     23  H   UNL     1      49.359   7.016  12.778  0.00  0.00    +0.000 HD
BRANCH  20  31
ATOM     24  C   UNL     1      50.101   9.885  11.681  0.00  0.00    +0.000 A 
ATOM     25  N   UNL     1      50.313  10.650  10.590  0.00  0.00    +0.000 NA
ATOM     26  C   UNL     1      51.576  10.918  10.245  0.00  0.00    +0.000 A 
ATOM     27  N   UNL     1      52.678  10.518  10.869  0.00  0.00    +0.000 NA
ATOM     28  C   UNL     1      52.425   9.754  11.944  0.00  0.00    +0.000 A 
ATOM     29  S   UNL     1      53.720   9.161  12.869  0.00  0.00    +0.000 S 
ATOM     30  C   UNL     1      52.661   8.352  13.922  0.00  0.00    +0.000 A 
ATOM     31  C   UNL     1      51.318   8.507  13.599  0.00  0.00    +0.000 A 
ATOM     32  C   UNL     1      51.177   9.368  12.426  0.00  0.00    +0.000 A 
BRANCH  24  34
ATOM     33  C   UNL     1      48.098  10.754  12.560  0.00  0.00    +0.000 C 
ATOM     34  O   UNL     1      48.799   9.620  12.053  0.00  0.00    +0.000 OA
ENDBRANCH  24  34
ENDBRANCH  20  31
ENDBRANCH  19  22
ENDBRANCH   1  19
TORSDOF 9
ENDMDL
MODEL 5
REMARK VINA RESULT:    -6.722      3.453      8.770
REMARK INTER + INTRA:         -11.406
REMARK INTER:                  -9.592
REMARK INTRA:                  -1.814
REMARK UNBOUND:                -1.345
REMARK  Name = 
REMARK  11 active torsions:
REMARK  status: ('A' for Active; 'I' for Inactive)
REMARK    1  A    between atoms: C_1  and  O_2
REMARK    2  A    between atoms: O_2  and  C_3
REMARK    3  A    between atoms: C_10  and  C_11
REMARK    4  A    between atoms: N_13  and  C_14
REMARK    5  A    between atoms: C_14  and  C_15
REMARK    6  A    between atoms: C_18  and  N_19
REMARK    7  A    between atoms: N_19  and  C_20
REMARK    8  A    between atoms: N_19  and  C_21
REMARK    9  A    between atoms: C_21  and  C_22
REMARK   10  A    between atoms: C_22  and  O_23
REMARK   11  A    between atoms: C_22  and  C_24
REMARK                            x       y       z     vdW  Elec       q    Type
REMARK                         _______ _______ _______ _____ _____    ______ ____
ROOT
ATOM      1  C   UNL     1      48.522   7.834  13.481  0.00  0.00    +0.000 A 
ATOM      2  C   UNL     1      49.044   6.688  14.086  0.00  0.00    +0.000 A 
ATOM      3  C   UNL     1      49.160   6.608  15.479  0.00  0.00    +0.000 A 
ATOM      4  C   UNL     1      48.757   7.653  16.329  0.00  0.00    +0.000 A 
ATOM      5  C   UNL     1      48.209   8.782  15.701  0.00  0.00    +0.000 A 
ATOM      6  C   UNL     1      48.085   8.873  14.305  0.00  0.00    +0.000 A 
ENDROOT
BRANCH   4   7
ATOM      7  N   UNL     1      48.937   7.583  17.702  0.00  0.00    +0.000 N 
ATOM      8  C   UNL     1      50.140   8.121  18.326  0.00  0.00    +0.000 C 
BRANCH   7   9
ATOM      9  C   UNL     1      47.835   7.185  18.606  0.00  0.00    +0.000 C 
BRANCH   9  10
ATOM     10  C   UNL     1      48.155   5.924  19.457  0.00  0.00    +0.000 C 
BRANCH  10  11
ATOM     11  C   UNL     1      48.437   4.722  18.566  0.00  0.00    +0.000 A 
ATOM     12  C   UNL     1      47.412   4.152  17.812  0.00  0.00    +0.000 A 
ATOM     13  C   UNL     1      47.698   3.057  17.000  0.00  0.00    +0.000 A 
ATOM     14  C   UNL     1      48.998   2.566  16.950  0.00  0.00    +0.000 A 
ATOM     15  C   UNL     1      49.965   3.202  17.705  0.00  0.00    +0.000 A 
ATOM     16  N   UNL     1      49.714   4.265  18.501  0.00  0.00    +0.000 NA
ENDBRANCH  10  11
BRANCH  10  17
ATOM     17  O   UNL     1      47.086   5.573  20.348  0.00  0.00    +0.000 OA
ATOM     18  H   UNL     1      47.028   4.602  20.316  0.00  0.00    +0.000 HD
ENDBRANCH  10  17
ENDBRANCH   9  10
ENDBRANCH   7   9
ENDBRANCH   4   7
BRANCH   1  19
ATOM     19  C   UNL     1      48.405   7.930  11.984  0.00  0.00    +0.000 C 
BRANCH  19  22
ATOM     20  C   UNL     1      46.281   6.856  11.371  0.00  0.00    +0.000 C 
ATOM     21  O   UNL     1      45.640   7.826  11.773  0.00  0.00    +0.000 OA
ATOM     22  N   UNL     1      47.646   6.827  11.450  0.00  0.00    +0.000 N 
ATOM     23  H   UNL     1      48.159   6.014  11.135  0.00  0.00    +0.000 HD
BRANCH  20  31
ATOM     24  C   UNL     1      44.442   4.245  12.676  0.00  0.00    +0.000 A 
ATOM     25  N   UNL     1      43.756   3.107  12.910  0.00  0.00    +0.000 NA
ATOM     26  C   UNL     1      43.457   2.325  11.868  0.00  0.00    +0.000 A 
ATOM     27  N   UNL     1      43.757   2.544  10.593  0.00  0.00    +0.000 NA
ATOM     28  C   UNL     1      44.446   3.681  10.402  0.00  0.00    +0.000 A 
ATOM     29  S   UNL     1      44.905   4.124   8.828  0.00  0.00    +0.000 S 
ATOM     30  C   UNL     1      45.677   5.526   9.396  0.00  0.00    +0.000 A 
ATOM     31  C   UNL     1      45.609   5.688  10.774  0.00  0.00    +0.000 A 
ATOM     32  C   UNL     1      44.849   4.592  11.375  0.00  0.00    +0.000 A 
BRANCH  24  34
ATOM     33  C   UNL     1      46.027   4.840  14.310  0.00  0.00    +0.000 C 
ATOM     34  O   UNL     1      44.737   5.065  13.746  0.00  0.00    +0.000 OA
ENDBRANCH  24  34
ENDBRANCH  20  31
ENDBRANCH  19  22
ENDBRANCH   1  19
TORSDOF 9
ENDMDL
MODEL 6
REMARK VINA RESULT:    -6.721      4.996      9.835
REMARK INTER + INTRA:         -11.406
REMARK INTER:                 -10.248
REMARK INTRA:                  -1.157
REMARK UNBOUND:                -1.345
REMARK  Name = 
REMARK  11 active torsions:
REMARK  status: ('A' for Active; 'I' for Inactive)
REMARK    1  A    between atoms: C_1  and  O_2
REMARK    2  A    between atoms: O_2  and  C_3
REMARK    3  A    between atoms: C_10  and  C_11
REMARK    4  A    between atoms: N_13  and  C_14
REMARK    5  A    between atoms: C_14  and  C_15
REMARK    6  A    between atoms: C_18  and  N_19
REMARK    7  A    between atoms: N_19  and  C_20
REMARK    8  A    between atoms: N_19  and  C_21
REMARK    9  A    between atoms: C_21  and  C_22
REMARK   10  A    between atoms: C_22  and  O_23
REMARK   11  A    between atoms: C_22  and  C_24
REMARK                            x       y       z     vdW  Elec       q    Type
REMARK                         _______ _______ _______ _____ _____    ______ ____
ROOT
ATOM      1  C   UNL     1      48.691   3.494  17.055  0.00  0.00    +0.000 A 
ATOM      2  C   UNL     1      49.228   4.744  17.368  0.00  0.00    +0.000 A 
ATOM      3  C   UNL     1      50.577   4.874  17.719  0.00  0.00    +0.000 A 
ATOM      4  C   UNL     1      51.451   3.774  17.765  0.00  0.00    +0.000 A 
ATOM      5  C   UNL     1      50.897   2.531  17.419  0.00  0.00    +0.000 A 
ATOM      6  C   UNL     1      49.546   2.389  17.062  0.00  0.00    +0.000 A 
ENDROOT
BRANCH   4   7
ATOM      7  N   UNL     1      52.768   3.908  18.176  0.00  0.00    +0.000 N 
ATOM      8  C   UNL     1      53.654   4.876  17.541  0.00  0.00    +0.000 C 
BRANCH   7   9
ATOM      9  C   UNL     1      53.261   3.259  19.411  0.00  0.00    +0.000 C 
BRANCH   9  10
ATOM     10  C   UNL     1      54.695   2.674  19.275  0.00  0.00    +0.000 C 
BRANCH  10  11
ATOM     11  C   UNL     1      54.692   1.417  18.417  0.00  0.00    +0.000 A 
ATOM     12  C   UNL     1      55.164   1.462  17.106  0.00  0.00    +0.000 A 
ATOM     13  C   UNL     1      55.157   0.296  16.344  0.00  0.00    +0.000 A 
ATOM     14  C   UNL     1      54.692  -0.887  16.910  0.00  0.00    +0.000 A 
ATOM     15  C   UNL     1      54.267  -0.857  18.225  0.00  0.00    +0.000 A 
ATOM     16  N   UNL     1      54.263   0.261  18.986  0.00  0.00    +0.000 NA
ENDBRANCH  10  11
BRANCH  10  17
ATOM     17  O   UNL     1      55.278   2.341  20.544  0.00  0.00    +0.000 OA
ATOM     18  H   UNL     1      54.943   3.008  21.168  0.00  0.00    +0.000 HD
ENDBRANCH  10  17
ENDBRANCH   9  10
ENDBRANCH   7   9
ENDBRANCH   4   7
BRANCH   1  19
ATOM     19  C   UNL     1      47.239   3.348  16.688  0.00  0.00    +0.000 C 
BRANCH  19  22
ATOM     20  C   UNL     1      46.844   4.271  14.444  0.00  0.00    +0.000 C 
ATOM     21  O   UNL     1      47.250   3.238  13.915  0.00  0.00    +0.000 OA
ATOM     22  N   UNL     1      46.817   4.406  15.805  0.00  0.00    +0.000 N 
ATOM     23  H   UNL     1      46.501   5.270  16.227  0.00  0.00    +0.000 HD
BRANCH  20  31
ATOM     24  C   UNL     1      43.981   4.818  12.598  0.00  0.00    +0.000 A 
ATOM     25  N   UNL     1      43.015   5.271  11.772  0.00  0.00    +0.000 NA
ATOM     26  C   UNL     1      43.172   6.477  11.219  0.00  0.00    +0.000 A 
ATOM     27  N   UNL     1      44.191   7.311  11.396  0.00  0.00    +0.000 NA
ATOM     28  C   UNL     1      45.135   6.822  12.217  0.00  0.00    +0.000 A 
ATOM     29  S   UNL     1      46.508   7.760  12.563  0.00  0.00    +0.000 S 
ATOM     30  C   UNL     1      47.152   6.539  13.552  0.00  0.00    +0.000 A 
ATOM     31  C   UNL     1      46.355   5.404  13.639  0.00  0.00    +0.000 A 
ATOM     32  C   UNL     1      45.133   5.585  12.856  0.00  0.00    +0.000 A 
BRANCH  24  34
ATOM     33  C   UNL     1      43.481   2.542  12.266  0.00  0.00    +0.000 C 
ATOM     34  O   UNL     1      43.815   3.581  13.185  0.00  0.00    +0.000 OA
ENDBRANCH  24  34
ENDBRANCH  20  31
ENDBRANCH  19  22
ENDBRANCH   1  19
TORSDOF 9
ENDMDL
MODEL 7
REMARK VINA RESULT:    -6.711      1.874      2.836
REMARK INTER + INTRA:         -11.391
REMARK INTER:                 -10.868
REMARK INTRA:                  -0.523
REMARK UNBOUND:                -1.345
REMARK  Name = 
REMARK  11 active torsions:
REMARK  status: ('A' for Active; 'I' for Inactive)
REMARK    1  A    between atoms: C_1  and  O_2
REMARK    2  A    between atoms: O_2  and  C_3
REMARK    3  A    between atoms: C_10  and  C_11
REMARK    4  A    between atoms: N_13  and  C_14
REMARK    5  A    between atoms: C_14  and  C_15
REMARK    6  A    between atoms: C_18  and  N_19
REMARK    7  A    between atoms: N_19  and  C_20
REMARK    8  A    between atoms: N_19  and  C_21
REMARK    9  A    between atoms: C_21  and  C_22
REMARK   10  A    between atoms: C_22  and  O_23
REMARK   11  A    between atoms: C_22  and  C_24
REMARK                            x       y       z     vdW  Elec       q    Type
REMARK                         _______ _______ _______ _____ _____    ______ ____
ROOT
ATOM      1  C   UNL     1      46.640   7.715  13.018  0.00  0.00    +0.000 A 
ATOM      2  C   UNL     1      45.399   7.732  12.377  0.00  0.00    +0.000 A 
ATOM      3  C   UNL     1      44.869   6.563  11.817  0.00  0.00    +0.000 A 
ATOM      4  C   UNL     1      45.540   5.329  11.878  0.00  0.00    +0.000 A 
ATOM      5  C   UNL     1      46.772   5.329  12.550  0.00  0.00    +0.000 A 
ATOM      6  C   UNL     1      47.312   6.495  13.118  0.00  0.00    +0.000 A 
ENDROOT
BRANCH   4   7
ATOM      7  N   UNL     1      45.032   4.195  11.263  0.00  0.00    +0.000 N 
ATOM      8  C   UNL     1      45.083   2.898  11.928  0.00  0.00    +0.000 C 
BRANCH   7   9
ATOM      9  C   UNL     1      44.217   4.284  10.032  0.00  0.00    +0.000 C 
BRANCH   9  10
ATOM     10  C   UNL     1      45.045   4.621   8.761  0.00  0.00    +0.000 C 
BRANCH  10  11
ATOM     11  C   UNL     1      45.801   3.397   8.263  0.00  0.00    +0.000 A 
ATOM     12  C   UNL     1      45.405   2.120   8.654  0.00  0.00    +0.000 A 
ATOM     13  C   UNL     1      46.109   1.016   8.179  0.00  0.00    +0.000 A 
ATOM     14  C   UNL     1      47.183   1.212   7.316  0.00  0.00    +0.000 A 
ATOM     15  C   UNL     1      47.498   2.508   6.952  0.00  0.00    +0.000 A 
ATOM     16  N   UNL     1      46.831   3.595   7.399  0.00  0.00    +0.000 NA
ENDBRANCH  10  11
BRANCH  10  17
ATOM     17  O   UNL     1      46.000   5.669   8.985  0.00  0.00    +0.000 OA
ATOM     18  H   UNL     1      46.817   5.377   8.544  0.00  0.00    +0.000 HD
ENDBRANCH  10  17
ENDBRANCH   9  10
ENDBRANCH   7   9
ENDBRANCH   4   7
BRANCH   1  19
ATOM     19  C   UNL     1      47.218   8.971  13.611  0.00  0.00    +0.000 C 
BRANCH  19  22
ATOM     20  C   UNL     1      48.203   9.528  15.792  0.00  0.00    +0.000 C 
ATOM     21  O   UNL     1      49.111  10.161  15.255  0.00  0.00    +0.000 OA
ATOM     22  N   UNL     1      47.238   8.905  15.050  0.00  0.00    +0.000 N 
ATOM     23  H   UNL     1      46.510   8.370  15.505  0.00  0.00    +0.000 HD
BRANCH  20  31
ATOM     24  C   UNL     1      48.358   6.887  18.006  0.00  0.00    +0.000 A 
ATOM     25  N   UNL     1      48.318   6.058  19.070  0.00  0.00    +0.000 NA
ATOM     26  C   UNL     1      48.104   6.591  20.277  0.00  0.00    +0.000 A 
ATOM     27  N   UNL     1      47.930   7.877  20.564  0.00  0.00    +0.000 NA
ATOM     28  C   UNL     1      47.969   8.668  19.479  0.00  0.00    +0.000 A 
ATOM     29  S   UNL     1      47.774  10.345  19.662  0.00  0.00    +0.000 S 
ATOM     30  C   UNL     1      47.914  10.593  17.987  0.00  0.00    +0.000 A 
ATOM     31  C   UNL     1      48.106   9.425  17.259  0.00  0.00    +0.000 A 
ATOM     32  C   UNL     1      48.162   8.272  18.158  0.00  0.00    +0.000 A 
BRANCH  24  34
ATOM     33  C   UNL     1      48.225   4.971  16.646  0.00  0.00    +0.000 C 
ATOM     34  O   UNL     1      48.596   6.344  16.761  0.00  0.00    +0.000 OA
ENDBRANCH  24  34
ENDBRANCH  20  31
ENDBRANCH  19  22
ENDBRANCH   1  19
TORSDOF 9
ENDMDL
MODEL 8
REMARK VINA RESULT:    -6.363      3.001      4.491
REMARK INTER + INTRA:         -10.870
REMARK INTER:                  -9.771
REMARK INTRA:                  -1.100
REMARK UNBOUND:                -1.345
REMARK  Name = 
REMARK  11 active torsions:
REMARK  status: ('A' for Active; 'I' for Inactive)
REMARK    1  A    between atoms: C_1  and  O_2
REMARK    2  A    between atoms: O_2  and  C_3
REMARK    3  A    between atoms: C_10  and  C_11
REMARK    4  A    between atoms: N_13  and  C_14
REMARK    5  A    between atoms: C_14  and  C_15
REMARK    6  A    between atoms: C_18  and  N_19
REMARK    7  A    between atoms: N_19  and  C_20
REMARK    8  A    between atoms: N_19  and  C_21
REMARK    9  A    between atoms: C_21  and  C_22
REMARK   10  A    between atoms: C_22  and  O_23
REMARK   11  A    between atoms: C_22  and  C_24
REMARK                            x       y       z     vdW  Elec       q    Type
REMARK                         _______ _______ _______ _____ _____    ______ ____
ROOT
ATOM      1  C   UNL     1      47.488   5.586  14.395  0.00  0.00    +0.000 A 
ATOM      2  C   UNL     1      46.980   4.293  14.245  0.00  0.00    +0.000 A 
ATOM      3  C   UNL     1      46.074   3.997  13.219  0.00  0.00    +0.000 A 
ATOM      4  C   UNL     1      45.643   4.965  12.295  0.00  0.00    +0.000 A 
ATOM      5  C   UNL     1      46.187   6.249  12.447  0.00  0.00    +0.000 A 
ATOM      6  C   UNL     1      47.098   6.558  13.471  0.00  0.00    +0.000 A 
ENDROOT
BRANCH   4   7
ATOM      7  N   UNL     1      44.697   4.672  11.324  0.00  0.00    +0.000 N 
ATOM      8  C   UNL     1      43.524   5.518  11.143  0.00  0.00    +0.000 C 
BRANCH   7   9
ATOM      9  C   UNL     1      44.948   3.645  10.289  0.00  0.00    +0.000 C 
BRANCH   9  10
ATOM     10  C   UNL     1      45.065   4.227   8.852  0.00  0.00    +0.000 C 
BRANCH  10  11
ATOM     11  C   UNL     1      45.865   3.297   7.951  0.00  0.00    +0.000 A 
ATOM     12  C   UNL     1      46.132   1.989   8.352  0.00  0.00    +0.000 A 
ATOM     13  C   UNL     1      46.861   1.156   7.506  0.00  0.00    +0.000 A 
ATOM     14  C   UNL     1      47.295   1.644   6.277  0.00  0.00    +0.000 A 
ATOM     15  C   UNL     1      46.968   2.943   5.939  0.00  0.00    +0.000 A 
ATOM     16  N   UNL     1      46.262   3.771   6.741  0.00  0.00    +0.000 NA
ENDBRANCH  10  11
BRANCH  10  17
ATOM     17  O   UNL     1      45.695   5.516   8.827  0.00  0.00    +0.000 OA
ATOM     18  H   UNL     1      44.967   6.162   8.821  0.00  0.00    +0.000 HD
ENDBRANCH  10  17
ENDBRANCH   9  10
ENDBRANCH   7   9
ENDBRANCH   4   7
BRANCH   1  19
ATOM     19  C   UNL     1      48.452   5.911  15.503  0.00  0.00    +0.000 C 
BRANCH  19  22
ATOM     20  C   UNL     1      49.178   8.246  15.756  0.00  0.00    +0.000 C 
ATOM     21  O   UNL     1      48.331   8.446  16.624  0.00  0.00    +0.000 OA
ATOM     22  N   UNL     1      49.295   7.026  15.149  0.00  0.00    +0.000 N 
ATOM     23  H   UNL     1      49.982   6.881  14.421  0.00  0.00    +0.000 HD
BRANCH  20  31
ATOM     24  C   UNL     1      50.583   9.126  12.731  0.00  0.00    +0.000 A 
ATOM     25  N   UNL     1      51.310   9.645  11.719  0.00  0.00    +0.000 NA
ATOM     26  C   UNL     1      52.130  10.664  11.990  0.00  0.00    +0.000 A 
ATOM     27  N   UNL     1      52.316  11.250  13.168  0.00  0.00    +0.000 NA
ATOM     28  C   UNL     1      51.582  10.701  14.150  0.00  0.00    +0.000 A 
ATOM     29  S   UNL     1      51.688  11.332  15.723  0.00  0.00    +0.000 S 
ATOM     30  C   UNL     1      50.582  10.184  16.310  0.00  0.00    +0.000 A 
ATOM     31  C   UNL     1      50.115   9.304  15.341  0.00  0.00    +0.000 A 
ATOM     32  C   UNL     1      50.699   9.631  14.039  0.00  0.00    +0.000 A 
BRANCH  24  34
ATOM     33  C   UNL     1      49.969   7.445  11.203  0.00  0.00    +0.000 C 
ATOM     34  O   UNL     1      49.721   8.086  12.453  0.00  0.00    +0.000 OA
ENDBRANCH  24  34
ENDBRANCH  20  31
ENDBRANCH  19  22
ENDBRANCH   1  19
TORSDOF 9
ENDMDL
