MODEL 1
REMARK VINA RESULT:    -8.418      0.000      0.000
REMARK INTER + INTRA:         -13.015
REMARK INTER:                 -11.863
REMARK INTRA:                  -1.152
REMARK UNBOUND:                -1.152
REMARK  Name = 
REMARK  8 active torsions:
REMARK  status: ('A' for Active; 'I' for Inactive)
REMARK    1  A    between atoms: C_1  and  C_2
REMARK    2  A    between atoms: C_2  and  N_3
REMARK    3  A    between atoms: C_2  and  C_25
REMARK    4  A    between atoms: N_3  and  C_4
REMARK    5  A    between atoms: C_4  and  C_5
REMARK    6  A    between atoms: C_8  and  C_9
REMARK    7  A    between atoms: C_9  and  N_10
REMARK    8  A    between atoms: C_11  and  C_13
REMARK                            x       y       z     vdW  Elec       q    Type
REMARK                         _______ _______ _______ _____ _____    ______ ____
ROOT
ATOM      1  C   UNL     1      44.658   5.572  10.961  0.00  0.00    +0.000 A 
ATOM      2  C   UNL     1      45.967   5.835  10.547  0.00  0.00    +0.000 A 
ATOM      3  C   UNL     1      46.781   6.672  11.307  0.00  0.00    +0.000 A 
ATOM      4  C   UNL     1      46.259   7.258  12.456  0.00  0.00    +0.000 A 
ATOM      5  N   UNL     1      44.998   7.006  12.891  0.00  0.00    +0.000 NA
ATOM      6  C   UNL     1      44.238   6.172  12.144  0.00  0.00    +0.000 A 
ENDROOT
BRANCH   1   7
ATOM      7  C   UNL     1      43.711   4.734  10.144  0.00  0.00    +0.000 C 
BRANCH   7   8
ATOM      8  N   UNL     1      44.273   4.367   8.846  0.00  0.00    +0.000 NA
ATOM      9  H   UNL     1      43.670   4.733   8.110  0.00  0.00    +0.000 HD
BRANCH   8  11
ATOM     10  C   UNL     1      44.406   2.145   9.983  0.00  0.00    +0.000 C 
ATOM     11  C   UNL     1      44.393   2.913   8.655  0.00  0.00    +0.000 C 
BRANCH  11  12
ATOM     12  C   UNL     1      45.654   2.610   7.866  0.00  0.00    +0.000 A 
ATOM     13  C   UNL     1      46.227   3.544   6.995  0.00  0.00    +0.000 A 
ATOM     14  C   UNL     1      47.378   3.219   6.285  0.00  0.00    +0.000 A 
ATOM     15  C   UNL     1      47.927   1.961   6.468  0.00  0.00    +0.000 A 
ATOM     16  N   UNL     1      47.408   1.030   7.296  0.00  0.00    +0.000 NA
ATOM     17  C   UNL     1      46.288   1.376   7.974  0.00  0.00    +0.000 A 
ENDBRANCH  11  12
ENDBRANCH   8  11
ENDBRANCH   7   8
ENDBRANCH   1   7
BRANCH   4  18
ATOM     18  C   UNL     1      47.096   8.209  13.276  0.00  0.00    +0.000 C 
BRANCH  18  19
ATOM     19  N   UNL     1      47.481   7.644  14.548  0.00  0.00    +0.000 N 
ATOM     20  C   UNL     1      48.580   6.842  14.693  0.00  0.00    +0.000 C 
ATOM     21  O   UNL     1      49.307   6.557  13.743  0.00  0.00    +0.000 OA
ATOM     22  H   UNL     1      46.777   7.682  15.279  0.00  0.00    +0.000 HD
BRANCH  20  23
ATOM     23  C   UNL     1      48.894   6.396  16.056  0.00  0.00    +0.000 A 
ATOM     24  C   UNL     1      49.702   7.185  16.864  0.00  0.00    +0.000 A 
ATOM     25  S   UNL     1      49.947   6.546  18.425  0.00  0.00    +0.000 S 
ATOM     26  C   UNL     1      49.017   5.167  18.065  0.00  0.00    +0.000 A 
ATOM     27  N   UNL     1      48.850   4.180  18.985  0.00  0.00    +0.000 NA
ATOM     28  C   UNL     1      48.148   3.177  18.570  0.00  0.00    +0.000 A 
ATOM     29  N   UNL     1      47.590   3.081  17.322  0.00  0.00    +0.000 N 
ATOM     30  C   UNL     1      47.684   4.079  16.382  0.00  0.00    +0.000 A 
ATOM     31  O   UNL     1      47.091   4.002  15.312  0.00  0.00    +0.000 OA
ATOM     32  C   UNL     1      48.500   5.210  16.782  0.00  0.00    +0.000 A 
ATOM     33  H   UNL     1      47.028   2.282  17.066  0.00  0.00    +0.000 HD
ENDBRANCH  20  23
ENDBRANCH  18  19
ENDBRANCH   4  18
TORSDOF 7
ENDMDL
MODEL 2
REMARK VINA RESULT:    -7.878      2.390      3.100
REMARK INTER + INTRA:         -12.253
REMARK INTER:                 -11.219
REMARK INTRA:                  -1.035
REMARK UNBOUND:                -1.152
REMARK  Name = 
REMARK  8 active torsions:
REMARK  status: ('A' for Active; 'I' for Inactive)
REMARK    1  A    between atoms: C_1  and  C_2
REMARK    2  A    between atoms: C_2  and  N_3
REMARK    3  A    between atoms: C_2  and  C_25
REMARK    4  A    between atoms: N_3  and  C_4
REMARK    5  A    between atoms: C_4  and  C_5
REMARK    6  A    between atoms: C_8  and  C_9
REMARK    7  A    between atoms: C_9  and  N_10
REMARK    8  A    between atoms: C_11  and  C_13
REMARK                            x       y       z     vdW  Elec       q    Type
REMARK                         _______ _______ _______ _____ _____    ______ ____
ROOT
ATOM      1  C   UNL     1      45.728   5.616  11.673  0.00  0.00    +0.000 A 
ATOM      2  C   UNL     1      46.534   6.700  11.311  0.00  0.00    +0.000 A 
ATOM      3  C   UNL     1      47.586   7.089  12.137  0.00  0.00    +0.000 A 
ATOM      4  C   UNL     1      47.796   6.403  13.329  0.00  0.00    +0.000 A 
ATOM      5  N   UNL     1      47.041   5.337  13.696  0.00  0.00    +0.000 NA
ATOM      6  C   UNL     1      46.040   4.968  12.864  0.00  0.00    +0.000 A 
ENDROOT
BRANCH   1   7
ATOM      7  C   UNL     1      44.534   5.195  10.857  0.00  0.00    +0.000 C 
BRANCH   7   8
ATOM      8  N   UNL     1      44.897   4.842   9.486  0.00  0.00    +0.000 NA
ATOM      9  H   UNL     1      44.458   5.505   8.848  0.00  0.00    +0.000 HD
BRANCH   8  11
ATOM     10  C   UNL     1      44.073   2.632  10.312  0.00  0.00    +0.000 C 
ATOM     11  C   UNL     1      44.467   3.488   9.102  0.00  0.00    +0.000 C 
BRANCH  11  12
ATOM     12  C   UNL     1      45.577   2.808   8.322  0.00  0.00    +0.000 A 
ATOM     13  C   UNL     1      46.372   3.503   7.403  0.00  0.00    +0.000 A 
ATOM     14  C   UNL     1      47.373   2.836   6.703  0.00  0.00    +0.000 A 
ATOM     15  C   UNL     1      47.550   1.485   6.945  0.00  0.00    +0.000 A 
ATOM     16  N   UNL     1      46.807   0.775   7.820  0.00  0.00    +0.000 NA
ATOM     17  C   UNL     1      45.841   1.452   8.486  0.00  0.00    +0.000 A 
ENDBRANCH  11  12
ENDBRANCH   8  11
ENDBRANCH   7   8
ENDBRANCH   1   7
BRANCH   4  18
ATOM     18  C   UNL     1      48.895   6.829  14.271  0.00  0.00    +0.000 C 
BRANCH  18  19
ATOM     19  N   UNL     1      48.423   6.997  15.625  0.00  0.00    +0.000 N 
ATOM     20  C   UNL     1      48.949   6.300  16.678  0.00  0.00    +0.000 C 
ATOM     21  O   UNL     1      49.859   5.487  16.530  0.00  0.00    +0.000 OA
ATOM     22  H   UNL     1      47.537   7.483  15.727  0.00  0.00    +0.000 HD
BRANCH  20  23
ATOM     23  C   UNL     1      48.423   6.622  18.011  0.00  0.00    +0.000 A 
ATOM     24  C   UNL     1      48.229   5.602  18.933  0.00  0.00    +0.000 A 
ATOM     25  S   UNL     1      47.644   6.140  20.440  0.00  0.00    +0.000 S 
ATOM     26  C   UNL     1      47.585   7.754  19.902  0.00  0.00    +0.000 A 
ATOM     27  N   UNL     1      47.133   8.745  20.716  0.00  0.00    +0.000 NA
ATOM     28  C   UNL     1      47.113   9.916  20.171  0.00  0.00    +0.000 A 
ATOM     29  N   UNL     1      47.516  10.185  18.890  0.00  0.00    +0.000 N 
ATOM     30  C   UNL     1      48.034   9.227  18.052  0.00  0.00    +0.000 A 
ATOM     31  O   UNL     1      48.476   9.521  16.946  0.00  0.00    +0.000 OA
ATOM     32  C   UNL     1      48.038   7.883  18.600  0.00  0.00    +0.000 A 
ATOM     33  H   UNL     1      47.500  11.128  18.529  0.00  0.00    +0.000 HD
ENDBRANCH  20  23
ENDBRANCH  18  19
ENDBRANCH   4  18
TORSDOF 7
ENDMDL
MODEL 3
REMARK VINA RESULT:    -7.872      1.563      1.787
REMARK INTER + INTRA:         -12.245
REMARK INTER:                 -11.092
REMARK INTRA:                  -1.152
REMARK UNBOUND:                -1.152
REMARK  Name = 
REMARK  8 active torsions:
REMARK  status: ('A' for Active; 'I' for Inactive)
REMARK    1  A    between atoms: C_1  and  C_2
REMARK    2  A    between atoms: C_2  and  N_3
REMARK    3  A    between atoms: C_2  and  C_25
REMARK    4  A    between atoms: N_3  and  C_4
REMARK    5  A    between atoms: C_4  and  C_5
REMARK    6  A    between atoms: C_8  and  C_9
REMARK    7  A    between atoms: C_9  and  N_10
REMARK    8  A    between atoms: C_11  and  C_13
REMARK                            x       y       z     vdW  Elec       q    Type
REMARK                         _______ _______ _______ _____ _____    ______ ____
ROOT
ATOM      1  C   UNL     1      45.246   5.602  11.593  0.00  0.00    +0.000 A 
ATOM      2  C   UNL     1      46.166   6.470  10.998  0.00  0.00    +0.000 A 
ATOM      3  C   UNL     1      47.274   6.909  11.719  0.00  0.00    +0.000 A 
ATOM      4  C   UNL     1      47.427   6.494  13.038  0.00  0.00    +0.000 A 
ATOM      5  N   UNL     1      46.559   5.637  13.635  0.00  0.00    +0.000 NA
ATOM      6  C   UNL     1      45.505   5.210  12.903  0.00  0.00    +0.000 A 
ENDROOT
BRANCH   1   7
ATOM      7  C   UNL     1      43.994   5.151  10.888  0.00  0.00    +0.000 C 
BRANCH   7   8
ATOM      8  N   UNL     1      44.253   4.733   9.512  0.00  0.00    +0.000 NA
ATOM      9  H   UNL     1      43.583   5.192   8.896  0.00  0.00    +0.000 HD
BRANCH   8  11
ATOM     10  C   UNL     1      44.023   2.514  10.638  0.00  0.00    +0.000 C 
ATOM     11  C   UNL     1      44.131   3.280   9.313  0.00  0.00    +0.000 C 
BRANCH  11  12
ATOM     12  C   UNL     1      45.322   2.778   8.517  0.00  0.00    +0.000 A 
ATOM     13  C   UNL     1      46.084   3.626   7.706  0.00  0.00    +0.000 A 
ATOM     14  C   UNL     1      47.161   3.120   6.986  0.00  0.00    +0.000 A 
ATOM     15  C   UNL     1      47.447   1.770   7.100  0.00  0.00    +0.000 A 
ATOM     16  N   UNL     1      46.740   0.916   7.869  0.00  0.00    +0.000 NA
ATOM     17  C   UNL     1      45.697   1.438   8.557  0.00  0.00    +0.000 A 
ENDBRANCH  11  12
ENDBRANCH   8  11
ENDBRANCH   7   8
ENDBRANCH   1   7
BRANCH   4  18
ATOM     18  C   UNL     1      48.588   6.989  13.864  0.00  0.00    +0.000 C 
BRANCH  18  19
ATOM     19  N   UNL     1      48.372   6.805  15.280  0.00  0.00    +0.000 N 
ATOM     20  C   UNL     1      49.019   7.553  16.225  0.00  0.00    +0.000 C 
ATOM     21  O   UNL     1      49.825   8.430  15.920  0.00  0.00    +0.000 OA
ATOM     22  H   UNL     1      47.894   5.950  15.546  0.00  0.00    +0.000 HD
BRANCH  20  23
ATOM     23  C   UNL     1      48.651   7.308  17.625  0.00  0.00    +0.000 A 
ATOM     24  C   UNL     1      48.105   8.340  18.378  0.00  0.00    +0.000 A 
ATOM     25  S   UNL     1      47.702   7.889  19.971  0.00  0.00    +0.000 S 
ATOM     26  C   UNL     1      48.283   6.308  19.729  0.00  0.00    +0.000 A 
ATOM     27  N   UNL     1      48.261   5.394  20.736  0.00  0.00    +0.000 NA
ATOM     28  C   UNL     1      48.761   4.244  20.425  0.00  0.00    +0.000 A 
ATOM     29  N   UNL     1      49.269   3.924  19.193  0.00  0.00    +0.000 N 
ATOM     30  C   UNL     1      49.259   4.796  18.131  0.00  0.00    +0.000 A 
ATOM     31  O   UNL     1      49.633   4.444  17.017  0.00  0.00    +0.000 OA
ATOM     32  C   UNL     1      48.748   6.118  18.439  0.00  0.00    +0.000 A 
ATOM     33  H   UNL     1      49.623   2.997  19.004  0.00  0.00    +0.000 HD
ENDBRANCH  20  23
ENDBRANCH  18  19
ENDBRANCH   4  18
TORSDOF 7
ENDMDL
MODEL 4
REMARK VINA RESULT:    -7.349      2.801      8.509
REMARK INTER + INTRA:         -11.509
REMARK INTER:                  -9.776
REMARK INTRA:                  -1.732
REMARK UNBOUND:                -1.152
REMARK  Name = 
REMARK  8 active torsions:
REMARK  status: ('A' for Active; 'I' for Inactive)
REMARK    1  A    between atoms: C_1  and  C_2
REMARK    2  A    between atoms: C_2  and  N_3
REMARK    3  A    between atoms: C_2  and  C_25
REMARK    4  A    between atoms: N_3  and  C_4
REMARK    5  A    between atoms: C_4  and  C_5
REMARK    6  A    between atoms: C_8  and  C_9
REMARK    7  A    between atoms: C_9  and  N_10
REMARK    8  A    between atoms: C_11  and  C_13
REMARK                            x       y       z     vdW  Elec       q    Type
REMARK                         _______ _______ _______ _____ _____    ______ ____
ROOT
ATOM      1  C   UNL     1      48.781   8.053  16.083  0.00  0.00    +0.000 A 
ATOM      2  C   UNL     1      49.252   6.964  15.342  0.00  0.00    +0.000 A 
ATOM      3  C   UNL     1      48.905   6.836  13.999  0.00  0.00    +0.000 A 
ATOM      4  C   UNL     1      48.067   7.787  13.426  0.00  0.00    +0.000 A 
ATOM      5  N   UNL     1      47.610   8.863  14.116  0.00  0.00    +0.000 NA
ATOM      6  C   UNL     1      47.981   8.973  15.413  0.00  0.00    +0.000 A 
ENDROOT
BRANCH   1   7
ATOM      7  C   UNL     1      49.063   8.205  17.554  0.00  0.00    +0.000 C 
BRANCH   7   8
ATOM      8  N   UNL     1      48.063   7.535  18.382  0.00  0.00    +0.000 NA
ATOM      9  H   UNL     1      47.677   8.210  19.043  0.00  0.00    +0.000 HD
BRANCH   8  11
ATOM     10  C   UNL     1      50.096   6.583  19.480  0.00  0.00    +0.000 C 
ATOM     11  C   UNL     1      48.608   6.406  19.152  0.00  0.00    +0.000 C 
BRANCH  11  12
ATOM     12  C   UNL     1      48.395   5.118  18.378  0.00  0.00    +0.000 A 
ATOM     13  C   UNL     1      49.448   4.243  18.089  0.00  0.00    +0.000 A 
ATOM     14  C   UNL     1      49.208   3.077  17.368  0.00  0.00    +0.000 A 
ATOM     15  C   UNL     1      47.912   2.820  16.955  0.00  0.00    +0.000 A 
ATOM     16  N   UNL     1      46.867   3.635  17.210  0.00  0.00    +0.000 NA
ATOM     17  C   UNL     1      47.132   4.761  17.914  0.00  0.00    +0.000 A 
ENDBRANCH  11  12
ENDBRANCH   8  11
ENDBRANCH   7   8
ENDBRANCH   1   7
BRANCH   4  18
ATOM     18  C   UNL     1      47.631   7.653  11.988  0.00  0.00    +0.000 C 
BRANCH  18  19
ATOM     19  N   UNL     1      46.899   6.432  11.748  0.00  0.00    +0.000 N 
ATOM     20  C   UNL     1      45.534   6.370  11.810  0.00  0.00    +0.000 C 
ATOM     21  O   UNL     1      44.850   7.356  12.075  0.00  0.00    +0.000 OA
ATOM     22  H   UNL     1      47.450   5.578  11.754  0.00  0.00    +0.000 HD
BRANCH  20  23
ATOM     23  C   UNL     1      44.917   5.080  11.473  0.00  0.00    +0.000 A 
ATOM     24  C   UNL     1      44.147   4.423  12.424  0.00  0.00    +0.000 A 
ATOM     25  S   UNL     1      43.476   2.957  11.871  0.00  0.00    +0.000 S 
ATOM     26  C   UNL     1      44.226   3.124  10.352  0.00  0.00    +0.000 A 
ATOM     27  N   UNL     1      44.082   2.169   9.395  0.00  0.00    +0.000 NA
ATOM     28  C   UNL     1      44.730   2.407   8.303  0.00  0.00    +0.000 A 
ATOM     29  N   UNL     1      45.498   3.519   8.079  0.00  0.00    +0.000 N 
ATOM     30  C   UNL     1      45.625   4.536   8.995  0.00  0.00    +0.000 A 
ATOM     31  O   UNL     1      46.240   5.562   8.724  0.00  0.00    +0.000 OA
ATOM     32  C   UNL     1      44.952   4.299  10.259  0.00  0.00    +0.000 A 
ATOM     33  H   UNL     1      45.959   3.660   7.193  0.00  0.00    +0.000 HD
ENDBRANCH  20  23
ENDBRANCH  18  19
ENDBRANCH   4  18
TORSDOF 7
ENDMDL
MODEL 5
REMARK VINA RESULT:    -7.241      3.216      8.112
REMARK INTER + INTRA:         -11.356
REMARK INTER:                  -9.840
REMARK INTRA:                  -1.516
REMARK UNBOUND:                -1.152
REMARK  Name = 
REMARK  8 active torsions:
REMARK  status: ('A' for Active; 'I' for Inactive)
REMARK    1  A    between atoms: C_1  and  C_2
REMARK    2  A    between atoms: C_2  and  N_3
REMARK    3  A    between atoms: C_2  and  C_25
REMARK    4  A    between atoms: N_3  and  C_4
REMARK    5  A    between atoms: C_4  and  C_5
REMARK    6  A    between atoms: C_8  and  C_9
REMARK    7  A    between atoms: C_9  and  N_10
REMARK    8  A    between atoms: C_11  and  C_13
REMARK                            x       y       z     vdW  Elec       q    Type
REMARK                         _______ _______ _______ _____ _____    ______ ____
ROOT
ATOM      1  C   UNL     1      49.004   7.751  16.408  0.00  0.00    +0.000 A 
ATOM      2  C   UNL     1      48.330   8.865  15.899  0.00  0.00    +0.000 A 
ATOM      3  C   UNL     1      48.098   8.970  14.529  0.00  0.00    +0.000 A 
ATOM      4  C   UNL     1      48.571   7.969  13.687  0.00  0.00    +0.000 A 
ATOM      5  N   UNL     1      49.212   6.868  14.156  0.00  0.00    +0.000 NA
ATOM      6  C   UNL     1      49.404   6.783  15.493  0.00  0.00    +0.000 A 
ENDROOT
BRANCH   1   7
ATOM      7  C   UNL     1      49.346   7.618  17.868  0.00  0.00    +0.000 C 
BRANCH   7   8
ATOM      8  N   UNL     1      48.300   6.929  18.622  0.00  0.00    +0.000 NA
ATOM      9  H   UNL     1      47.974   7.541  19.369  0.00  0.00    +0.000 HD
BRANCH   8  11
ATOM     10  C   UNL     1      50.217   5.738  19.695  0.00  0.00    +0.000 C 
ATOM     11  C   UNL     1      48.756   5.670  19.232  0.00  0.00    +0.000 C 
BRANCH  11  12
ATOM     12  C   UNL     1      48.576   4.535  18.242  0.00  0.00    +0.000 A 
ATOM     13  C   UNL     1      49.579   3.588  18.007  0.00  0.00    +0.000 A 
ATOM     14  C   UNL     1      49.373   2.568  17.083  0.00  0.00    +0.000 A 
ATOM     15  C   UNL     1      48.161   2.526  16.416  0.00  0.00    +0.000 A 
ATOM     16  N   UNL     1      47.166   3.417  16.610  0.00  0.00    +0.000 NA
ATOM     17  C   UNL     1      47.396   4.397  17.516  0.00  0.00    +0.000 A 
ENDBRANCH  11  12
ENDBRANCH   8  11
ENDBRANCH   7   8
ENDBRANCH   1   7
BRANCH   4  18
ATOM     18  C   UNL     1      48.381   8.075  12.194  0.00  0.00    +0.000 C 
BRANCH  18  19
ATOM     19  N   UNL     1      47.645   6.956  11.654  0.00  0.00    +0.000 N 
ATOM     20  C   UNL     1      46.288   6.983  11.484  0.00  0.00    +0.000 C 
ATOM     21  O   UNL     1      45.615   7.967  11.781  0.00  0.00    +0.000 OA
ATOM     22  H   UNL     1      48.146   6.073  11.620  0.00  0.00    +0.000 HD
BRANCH  20  23
ATOM     23  C   UNL     1      45.679   5.802  10.858  0.00  0.00    +0.000 A 
ATOM     24  C   UNL     1      45.834   5.596   9.493  0.00  0.00    +0.000 A 
ATOM     25  S   UNL     1      45.096   4.168   8.926  0.00  0.00    +0.000 S 
ATOM     26  C   UNL     1      44.504   3.794  10.477  0.00  0.00    +0.000 A 
ATOM     27  N   UNL     1      43.743   2.686  10.683  0.00  0.00    +0.000 NA
ATOM     28  C   UNL     1      43.333   2.539  11.900  0.00  0.00    +0.000 A 
ATOM     29  N   UNL     1      43.629   3.394  12.929  0.00  0.00    +0.000 N 
ATOM     30  C   UNL     1      44.441   4.493  12.779  0.00  0.00    +0.000 A 
ATOM     31  O   UNL     1      44.763   5.181  13.741  0.00  0.00    +0.000 OA
ATOM     32  C   UNL     1      44.892   4.729  11.420  0.00  0.00    +0.000 A 
ATOM     33  H   UNL     1      43.300   3.210  13.866  0.00  0.00    +0.000 HD
ENDBRANCH  20  23
ENDBRANCH  18  19
ENDBRANCH   4  18
TORSDOF 7
ENDMDL
MODEL 6
REMARK VINA RESULT:    -7.142      4.565      9.559
REMARK INTER + INTRA:         -11.216
REMARK INTER:                 -10.155
REMARK INTRA:                  -1.061
REMARK UNBOUND:                -1.152
REMARK  Name = 
REMARK  8 active torsions:
REMARK  status: ('A' for Active; 'I' for Inactive)
REMARK    1  A    between atoms: C_1  and  C_2
REMARK    2  A    between atoms: C_2  and  N_3
REMARK    3  A    between atoms: C_2  and  C_25
REMARK    4  A    between atoms: N_3  and  C_4
REMARK    5  A    between atoms: C_4  and  C_5
REMARK    6  A    between atoms: C_8  and  C_9
REMARK    7  A    between atoms: C_9  and  N_10
REMARK    8  A    between atoms: C_11  and  C_13
REMARK                            x       y       z     vdW  Elec       q    Type
REMARK                         _______ _______ _______ _____ _____    ______ ____
ROOT
ATOM      1  C   UNL     1      51.335   3.489  17.753  0.00  0.00    +0.000 A 
ATOM      2  C   UNL     1      50.763   2.276  17.359  0.00  0.00    +0.000 A 
ATOM      3  C   UNL     1      49.410   2.220  17.030  0.00  0.00    +0.000 A 
ATOM      4  C   UNL     1      48.644   3.378  17.131  0.00  0.00    +0.000 A 
ATOM      5  N   UNL     1      49.178   4.572  17.493  0.00  0.00    +0.000 NA
ATOM      6  C   UNL     1      50.498   4.600  17.785  0.00  0.00    +0.000 A 
ENDROOT
BRANCH   1   7
ATOM      7  C   UNL     1      52.773   3.595  18.188  0.00  0.00    +0.000 C 
BRANCH   7   8
ATOM      8  N   UNL     1      53.164   2.504  19.079  0.00  0.00    +0.000 NA
ATOM      9  H   UNL     1      52.976   2.781  20.042  0.00  0.00    +0.000 HD
BRANCH   8  11
ATOM     10  C   UNL     1      55.411   3.236  18.267  0.00  0.00    +0.000 C 
ATOM     11  C   UNL     1      54.589   2.152  18.976  0.00  0.00    +0.000 C 
BRANCH  11  12
ATOM     12  C   UNL     1      54.731   0.829  18.246  0.00  0.00    +0.000 A 
ATOM     13  C   UNL     1      54.520   0.715  16.868  0.00  0.00    +0.000 A 
ATOM     14  C   UNL     1      54.653  -0.520  16.242  0.00  0.00    +0.000 A 
ATOM     15  C   UNL     1      54.996  -1.613  17.019  0.00  0.00    +0.000 A 
ATOM     16  N   UNL     1      55.208  -1.549  18.350  0.00  0.00    +0.000 NA
ATOM     17  C   UNL     1      55.072  -0.334  18.931  0.00  0.00    +0.000 A 
ENDBRANCH  11  12
ENDBRANCH   8  11
ENDBRANCH   7   8
ENDBRANCH   1   7
BRANCH   4  18
ATOM     18  C   UNL     1      47.166   3.343  16.830  0.00  0.00    +0.000 C 
BRANCH  18  19
ATOM     19  N   UNL     1      46.780   4.341  15.860  0.00  0.00    +0.000 N 
ATOM     20  C   UNL     1      46.822   4.109  14.513  0.00  0.00    +0.000 C 
ATOM     21  O   UNL     1      47.192   3.033  14.049  0.00  0.00    +0.000 OA
ATOM     22  H   UNL     1      46.693   5.289  16.213  0.00  0.00    +0.000 HD
BRANCH  20  23
ATOM     23  C   UNL     1      46.333   5.187  13.643  0.00  0.00    +0.000 A 
ATOM     24  C   UNL     1      47.122   6.312  13.441  0.00  0.00    +0.000 A 
ATOM     25  S   UNL     1      46.430   7.456  12.384  0.00  0.00    +0.000 S 
ATOM     26  C   UNL     1      45.028   6.510  12.191  0.00  0.00    +0.000 A 
ATOM     27  N   UNL     1      43.997   6.941  11.416  0.00  0.00    +0.000 NA
ATOM     28  C   UNL     1      42.984   6.140  11.382  0.00  0.00    +0.000 A 
ATOM     29  N   UNL     1      42.916   4.942  12.044  0.00  0.00    +0.000 N 
ATOM     30  C   UNL     1      43.955   4.441  12.791  0.00  0.00    +0.000 A 
ATOM     31  O   UNL     1      43.896   3.322  13.289  0.00  0.00    +0.000 OA
ATOM     32  C   UNL     1      45.102   5.322  12.898  0.00  0.00    +0.000 A 
ATOM     33  H   UNL     1      42.104   4.348  11.957  0.00  0.00    +0.000 HD
ENDBRANCH  20  23
ENDBRANCH  18  19
ENDBRANCH   4  18
TORSDOF 7
ENDMDL
MODEL 7
REMARK VINA RESULT:    -7.109      3.148      4.457
REMARK INTER + INTRA:         -11.170
REMARK INTER:                 -10.083
REMARK INTRA:                  -1.087
REMARK UNBOUND:                -1.152
REMARK  Name = 
REMARK  8 active torsions:
REMARK  status: ('A' for Active; 'I' for Inactive)
REMARK    1  A    between atoms: C_1  and  C_2
REMARK    2  A    between atoms: C_2  and  N_3
REMARK    3  A    between atoms: C_2  and  C_25
REMARK    4  A    between atoms: N_3  and  C_4
REMARK    5  A    between atoms: C_4  and  C_5
REMARK    6  A    between atoms: C_8  and  C_9
REMARK    7  A    between atoms: C_9  and  N_10
REMARK    8  A    between atoms: C_11  and  C_13
REMARK                            x       y       z     vdW  Elec       q    Type
REMARK                         _______ _______ _______ _____ _____    ______ ____
ROOT
ATOM      1  C   UNL     1      47.161   5.288  14.045  0.00  0.00    +0.000 A 
ATOM      2  C   UNL     1      47.114   4.461  15.171  0.00  0.00    +0.000 A 
ATOM      3  C   UNL     1      47.811   4.815  16.323  0.00  0.00    +0.000 A 
ATOM      4  C   UNL     1      48.571   5.981  16.319  0.00  0.00    +0.000 A 
ATOM      5  N   UNL     1      48.620   6.812  15.246  0.00  0.00    +0.000 NA
ATOM      6  C   UNL     1      47.914   6.453  14.149  0.00  0.00    +0.000 A 
ENDROOT
BRANCH   1   7
ATOM      7  C   UNL     1      46.486   4.921  12.750  0.00  0.00    +0.000 C 
BRANCH   7   8
ATOM      8  N   UNL     1      45.047   4.725  12.911  0.00  0.00    +0.000 NA
ATOM      9  H   UNL     1      44.861   3.729  13.028  0.00  0.00    +0.000 HD
BRANCH   8  11
ATOM     10  C   UNL     1      42.753   5.181  12.031  0.00  0.00    +0.000 C 
ATOM     11  C   UNL     1      44.263   5.200  11.761  0.00  0.00    +0.000 C 
BRANCH  11  12
ATOM     12  C   UNL     1      44.584   4.352  10.545  0.00  0.00    +0.000 A 
ATOM     13  C   UNL     1      45.235   4.878   9.423  0.00  0.00    +0.000 A 
ATOM     14  C   UNL     1      45.502   4.065   8.326  0.00  0.00    +0.000 A 
ATOM     15  C   UNL     1      45.107   2.739   8.384  0.00  0.00    +0.000 A 
ATOM     16  N   UNL     1      44.476   2.190   9.443  0.00  0.00    +0.000 NA
ATOM     17  C   UNL     1      44.231   3.006  10.496  0.00  0.00    +0.000 A 
ENDBRANCH  11  12
ENDBRANCH   8  11
ENDBRANCH   7   8
ENDBRANCH   1   7
BRANCH   4  18
ATOM     18  C   UNL     1      49.379   6.371  17.532  0.00  0.00    +0.000 C 
BRANCH  18  19
ATOM     19  N   UNL     1      50.350   5.364  17.890  0.00  0.00    +0.000 N 
ATOM     20  C   UNL     1      51.613   5.343  17.365  0.00  0.00    +0.000 C 
ATOM     21  O   UNL     1      51.994   6.184  16.554  0.00  0.00    +0.000 OA
ATOM     22  H   UNL     1      49.984   4.549  18.372  0.00  0.00    +0.000 HD
BRANCH  20  23
ATOM     23  C   UNL     1      52.520   4.305  17.871  0.00  0.00    +0.000 A 
ATOM     24  C   UNL     1      53.713   4.677  18.476  0.00  0.00    +0.000 A 
ATOM     25  S   UNL     1      54.639   3.361  19.038  0.00  0.00    +0.000 S 
ATOM     26  C   UNL     1      53.498   2.240  18.455  0.00  0.00    +0.000 A 
ATOM     27  N   UNL     1      53.705   0.903  18.587  0.00  0.00    +0.000 NA
ATOM     28  C   UNL     1      52.776   0.166  18.073  0.00  0.00    +0.000 A 
ATOM     29  N   UNL     1      51.655   0.649  17.450  0.00  0.00    +0.000 N 
ATOM     30  C   UNL     1      51.377   1.991  17.345  0.00  0.00    +0.000 A 
ATOM     31  O   UNL     1      50.318   2.385  16.869  0.00  0.00    +0.000 OA
ATOM     32  C   UNL     1      52.411   2.864  17.869  0.00  0.00    +0.000 A 
ATOM     33  H   UNL     1      50.951   0.020  17.091  0.00  0.00    +0.000 HD
ENDBRANCH  20  23
ENDBRANCH  18  19
ENDBRANCH   4  18
TORSDOF 7
ENDMDL
MODEL 8
REMARK VINA RESULT:    -6.761      3.666      8.010
REMARK INTER + INTRA:         -10.680
REMARK INTER:                  -8.697
REMARK INTRA:                  -1.983
REMARK UNBOUND:                -1.152
REMARK  Name = 
REMARK  8 active torsions:
REMARK  status: ('A' for Active; 'I' for Inactive)
REMARK    1  A    between atoms: C_1  and  C_2
REMARK    2  A    between atoms: C_2  and  N_3
REMARK    3  A    between atoms: C_2  and  C_25
REMARK    4  A    between atoms: N_3  and  C_4
REMARK    5  A    between atoms: C_4  and  C_5
REMARK    6  A    between atoms: C_8  and  C_9
REMARK    7  A    between atoms: C_9  and  N_10
REMARK    8  A    between atoms: C_11  and  C_13
REMARK                            x       y       z     vdW  Elec       q    Type
REMARK                         _______ _______ _______ _____ _____    ______ ____
ROOT
ATOM      1  C   UNL     1      51.301   6.879  17.283  0.00  0.00    +0.000 A 
ATOM      2  C   UNL     1      51.319   7.053  15.896  0.00  0.00    +0.000 A 
ATOM      3  C   UNL     1      50.351   7.844  15.282  0.00  0.00    +0.000 A 
ATOM      4  C   UNL     1      49.360   8.425  16.067  0.00  0.00    +0.000 A 
ATOM      5  N   UNL     1      49.328   8.289  17.417  0.00  0.00    +0.000 NA
ATOM      6  C   UNL     1      50.295   7.533  17.988  0.00  0.00    +0.000 A 
ENDROOT
BRANCH   1   7
ATOM      7  C   UNL     1      52.278   5.980  17.993  0.00  0.00    +0.000 C 
BRANCH   7   8
ATOM      8  N   UNL     1      51.620   5.094  18.951  0.00  0.00    +0.000 NA
ATOM      9  H   UNL     1      52.050   5.221  19.867  0.00  0.00    +0.000 HD
BRANCH   8  11
ATOM     10  C   UNL     1      52.993   3.359  17.789  0.00  0.00    +0.000 C 
ATOM     11  C   UNL     1      51.724   3.670  18.593  0.00  0.00    +0.000 C 
BRANCH  11  12
ATOM     12  C   UNL     1      50.495   3.255  17.807  0.00  0.00    +0.000 A 
ATOM     13  C   UNL     1      49.273   3.927  17.931  0.00  0.00    +0.000 A 
ATOM     14  C   UNL     1      48.168   3.506  17.197  0.00  0.00    +0.000 A 
ATOM     15  C   UNL     1      48.320   2.418  16.354  0.00  0.00    +0.000 A 
ATOM     16  N   UNL     1      49.477   1.740  16.205  0.00  0.00    +0.000 NA
ATOM     17  C   UNL     1      50.534   2.174  16.932  0.00  0.00    +0.000 A 
ENDBRANCH  11  12
ENDBRANCH   8  11
ENDBRANCH   7   8
ENDBRANCH   1   7
BRANCH   4  18
ATOM     18  C   UNL     1      48.266   9.247  15.430  0.00  0.00    +0.000 C 
BRANCH  18  19
ATOM     19  N   UNL     1      47.307   8.431  14.724  0.00  0.00    +0.000 N 
ATOM     20  C   UNL     1      47.247   8.385  13.358  0.00  0.00    +0.000 C 
ATOM     21  O   UNL     1      48.011   9.038  12.651  0.00  0.00    +0.000 OA
ATOM     22  H   UNL     1      46.537   8.073  15.282  0.00  0.00    +0.000 HD
BRANCH  20  23
ATOM     23  C   UNL     1      46.269   7.458  12.773  0.00  0.00    +0.000 A 
ATOM     24  C   UNL     1      45.239   7.958  11.989  0.00  0.00    +0.000 A 
ATOM     25  S   UNL     1      44.208   6.756  11.358  0.00  0.00    +0.000 S 
ATOM     26  C   UNL     1      45.077   5.522  12.147  0.00  0.00    +0.000 A 
ATOM     27  N   UNL     1      44.689   4.223  12.046  0.00  0.00    +0.000 NA
ATOM     28  C   UNL     1      45.417   3.395  12.719  0.00  0.00    +0.000 A 
ATOM     29  N   UNL     1      46.505   3.750  13.473  0.00  0.00    +0.000 N 
ATOM     30  C   UNL     1      46.966   5.042  13.558  0.00  0.00    +0.000 A 
ATOM     31  O   UNL     1      47.999   5.309  14.163  0.00  0.00    +0.000 OA
ATOM     32  C   UNL     1      46.157   6.020  12.855  0.00  0.00    +0.000 A 
ATOM     33  H   UNL     1      47.050   3.051  13.957  0.00  0.00    +0.000 HD
ENDBRANCH  20  23
ENDBRANCH  18  19
ENDBRANCH   4  18
TORSDOF 7
ENDMDL
MODEL 9
REMARK VINA RESULT:    -6.722      3.633      4.821
REMARK INTER + INTRA:         -10.625
REMARK INTER:                  -9.472
REMARK INTRA:                  -1.152
REMARK UNBOUND:                -1.152
REMARK  Name = 
REMARK  8 active torsions:
REMARK  status: ('A' for Active; 'I' for Inactive)
REMARK    1  A    between atoms: C_1  and  C_2
REMARK    2  A    between atoms: C_2  and  N_3
REMARK    3  A    between atoms: C_2  and  C_25
REMARK    4  A    between atoms: N_3  and  C_4
REMARK    5  A    between atoms: C_4  and  C_5
REMARK    6  A    between atoms: C_8  and  C_9
REMARK    7  A    between atoms: C_9  and  N_10
REMARK    8  A    between atoms: C_11  and  C_13
REMARK                            x       y       z     vdW  Elec       q    Type
REMARK                         _______ _______ _______ _____ _____    ______ ____
ROOT
ATOM      1  C   UNL     1      45.001   5.903  11.541  0.00  0.00    +0.000 A 
ATOM      2  C   UNL     1      45.869   5.217  12.394  0.00  0.00    +0.000 A 
ATOM      3  C   UNL     1      46.808   5.922  13.144  0.00  0.00    +0.000 A 
ATOM      4  C   UNL     1      46.881   7.304  13.004  0.00  0.00    +0.000 A 
ATOM      5  N   UNL     1      46.038   7.998  12.197  0.00  0.00    +0.000 NA
ATOM      6  C   UNL     1      45.123   7.289  11.498  0.00  0.00    +0.000 A 
ENDROOT
BRANCH   1   7
ATOM      7  C   UNL     1      44.015   5.190  10.653  0.00  0.00    +0.000 C 
BRANCH   7   8
ATOM      8  N   UNL     1      44.612   4.774   9.385  0.00  0.00    +0.000 NA
ATOM      9  H   UNL     1      44.214   5.336   8.634  0.00  0.00    +0.000 HD
BRANCH   8  11
ATOM     10  C   UNL     1      44.179   2.499  10.324  0.00  0.00    +0.000 C 
ATOM     11  C   UNL     1      44.374   3.357   9.068  0.00  0.00    +0.000 C 
BRANCH  11  12
ATOM     12  C   UNL     1      45.532   2.822   8.246  0.00  0.00    +0.000 A 
ATOM     13  C   UNL     1      46.207   3.615   7.311  0.00  0.00    +0.000 A 
ATOM     14  C   UNL     1      47.258   3.080   6.573  0.00  0.00    +0.000 A 
ATOM     15  C   UNL     1      47.605   1.758   6.793  0.00  0.00    +0.000 A 
ATOM     16  N   UNL     1      46.982   0.957   7.683  0.00  0.00    +0.000 NA
ATOM     17  C   UNL     1      45.963   1.506   8.387  0.00  0.00    +0.000 A 
ENDBRANCH  11  12
ENDBRANCH   8  11
ENDBRANCH   7   8
ENDBRANCH   1   7
BRANCH   4  18
ATOM     18  C   UNL     1      47.918   8.094  13.763  0.00  0.00    +0.000 C 
BRANCH  18  19
ATOM     19  N   UNL     1      49.254   7.867  13.266  0.00  0.00    +0.000 N 
ATOM     20  C   UNL     1      49.765   8.548  12.195  0.00  0.00    +0.000 C 
ATOM     21  O   UNL     1      49.112   9.398  11.594  0.00  0.00    +0.000 OA
ATOM     22  H   UNL     1      49.712   7.024  13.600  0.00  0.00    +0.000 HD
BRANCH  20  23
ATOM     23  C   UNL     1      51.162   8.267  11.841  0.00  0.00    +0.000 A 
ATOM     24  C   UNL     1      51.449   7.658  10.627  0.00  0.00    +0.000 A 
ATOM     25  S   UNL     1      53.115   7.429  10.350  0.00  0.00    +0.000 S 
ATOM     26  C   UNL     1      53.514   8.097  11.864  0.00  0.00    +0.000 A 
ATOM     27  N   UNL     1      54.808   8.171  12.275  0.00  0.00    +0.000 NA
ATOM     28  C   UNL     1      54.966   8.670  13.456  0.00  0.00    +0.000 A 
ATOM     29  N   UNL     1      53.945   9.112  14.256  0.00  0.00    +0.000 N 
ATOM     30  C   UNL     1      52.629   9.110  13.860  0.00  0.00    +0.000 A 
ATOM     31  O   UNL     1      51.754   9.603  14.562  0.00  0.00    +0.000 OA
ATOM     32  C   UNL     1      52.392   8.518  12.557  0.00  0.00    +0.000 A 
ATOM     33  H   UNL     1      54.136   9.517  15.162  0.00  0.00    +0.000 HD
ENDBRANCH  20  23
ENDBRANCH  18  19
ENDBRANCH   4  18
TORSDOF 7
ENDMDL
