MODEL 1
REMARK VINA RESULT:    -6.534      0.000      0.000
REMARK INTER + INTRA:         -10.921
REMARK INTER:                  -9.590
REMARK INTRA:                  -1.331
REMARK UNBOUND:                -1.331
REMARK  Name = 
REMARK  11 active torsions:
REMARK  status: ('A' for Active; 'I' for Inactive)
REMARK    1  A    between atoms: C_1  and  O_2
REMARK    2  A    between atoms: O_2  and  C_3
REMARK    3  A    between atoms: C_3  and  C_5
REMARK    4  A    between atoms: C_6  and  C_7
REMARK    5  A    between atoms: C_10  and  C_11
REMARK    6  A    between atoms: C_11  and  C_12
REMARK    7  A    between atoms: C_11  and  C_13
REMARK    8  A    between atoms: C_11  and  C_14
REMARK    9  A    between atoms: C_14  and  O_15
REMARK   10  A    between atoms: O_15  and  C_16
REMARK   11  A    between atoms: C_19  and  C_20
REMARK                            x       y       z     vdW  Elec       q    Type
REMARK                         _______ _______ _______ _____ _____    ______ ____
ROOT
ATOM      1  C   UNL     1      43.696   4.535  12.580  0.00  0.00    +0.000 C 
ATOM      2  C   UNL     1      43.038   4.192  13.927  0.00  0.00    +0.000 C 
ATOM      3  C   UNL     1      42.696   5.347  11.715  0.00  0.00    +0.000 C 
ENDROOT
BRANCH   1   7
ATOM      4  C   UNL     1      47.320   6.973  13.062  0.00  0.00    +0.000 A 
ATOM      5  C   UNL     1      47.374   5.586  13.185  0.00  0.00    +0.000 A 
ATOM      6  C   UNL     1      46.225   4.810  13.039  0.00  0.00    +0.000 A 
ATOM      7  C   UNL     1      44.968   5.386  12.788  0.00  0.00    +0.000 A 
ATOM      8  C   UNL     1      44.917   6.787  12.705  0.00  0.00    +0.000 A 
ATOM      9  C   UNL     1      46.075   7.568  12.838  0.00  0.00    +0.000 A 
BRANCH   4  11
ATOM     10  C   UNL     1      49.644   7.378  13.825  0.00  0.00    +0.000 C 
ATOM     11  C   UNL     1      48.516   7.805  13.236  0.00  0.00    +0.000 C 
BRANCH  10  12
ATOM     12  C   UNL     1      50.771   8.314  14.006  0.00  0.00    +0.000 C 
ATOM     13  O   UNL     1      51.466   8.385  15.003  0.00  0.00    +0.000 OA
BRANCH  12  15
ATOM     14  C   UNL     1      51.853   8.510  11.962  0.00  0.00    +0.000 C 
ATOM     15  O   UNL     1      50.899   9.050  12.875  0.00  0.00    +0.000 OA
ENDBRANCH  12  15
ENDBRANCH  10  12
ENDBRANCH   4  11
ENDBRANCH   1   7
BRANCH   1  16
ATOM     16  C   UNL     1      43.962   3.215  11.800  0.00  0.00    +0.000 C 
BRANCH  16  17
ATOM     17  O   UNL     1      43.574   3.300  10.425  0.00  0.00    +0.000 OA
BRANCH  17  18
ATOM     18  C   UNL     1      44.552   3.203   9.473  0.00  0.00    +0.000 A 
ATOM     19  C   UNL     1      44.760   1.900   9.007  0.00  0.00    +0.000 A 
ATOM     20  N   UNL     1      45.677   1.538   8.072  0.00  0.00    +0.000 NA
ATOM     21  C   UNL     1      46.442   2.541   7.574  0.00  0.00    +0.000 A 
ATOM     22  C   UNL     1      46.338   3.856   7.977  0.00  0.00    +0.000 A 
ATOM     23  C   UNL     1      45.398   4.186   8.951  0.00  0.00    +0.000 A 
ATOM     24 CL   UNL     1      45.488   5.838   9.454  0.00  0.00    +0.000 Cl
BRANCH  21  25
ATOM     25  C   UNL     1      47.486   2.196   6.559  0.00  0.00    +0.000 C 
ATOM     26  N   UNL     1      47.423   2.873   5.377  0.00  0.00    +0.000 N 
ATOM     27  O   UNL     1      48.340   1.344   6.770  0.00  0.00    +0.000 OA
ATOM     28  H   UNL     1      46.694   3.559   5.223  0.00  0.00    +0.000 HD
ATOM     29  H   UNL     1      48.092   2.653   4.651  0.00  0.00    +0.000 HD
ENDBRANCH  21  25
ENDBRANCH  17  18
ENDBRANCH  16  17
ENDBRANCH   1  16
TORSDOF 8
ENDMDL
MODEL 2
REMARK VINA RESULT:    -6.263      5.966      7.527
REMARK INTER + INTRA:         -10.523
REMARK INTER:                  -9.723
REMARK INTRA:                  -0.799
REMARK UNBOUND:                -1.331
REMARK  Name = 
REMARK  11 active torsions:
REMARK  status: ('A' for Active; 'I' for Inactive)
REMARK    1  A    between atoms: C_1  and  O_2
REMARK    2  A    between atoms: O_2  and  C_3
REMARK    3  A    between atoms: C_3  and  C_5
REMARK    4  A    between atoms: C_6  and  C_7
REMARK    5  A    between atoms: C_10  and  C_11
REMARK    6  A    between atoms: C_11  and  C_12
REMARK    7  A    between atoms: C_11  and  C_13
REMARK    8  A    between atoms: C_11  and  C_14
REMARK    9  A    between atoms: C_14  and  O_15
REMARK   10  A    between atoms: O_15  and  C_16
REMARK   11  A    between atoms: C_19  and  C_20
REMARK                            x       y       z     vdW  Elec       q    Type
REMARK                         _______ _______ _______ _____ _____    ______ ____
ROOT
ATOM      1  C   UNL     1      48.490   5.058  17.104  0.00  0.00    +0.000 C 
ATOM      2  C   UNL     1      47.697   5.328  18.395  0.00  0.00    +0.000 C 
ATOM      3  C   UNL     1      49.013   6.403  16.537  0.00  0.00    +0.000 C 
ENDROOT
BRANCH   1   7
ATOM      4  C   UNL     1      51.976   2.476  17.796  0.00  0.00    +0.000 A 
ATOM      5  C   UNL     1      50.752   1.930  17.414  0.00  0.00    +0.000 A 
ATOM      6  C   UNL     1      49.643   2.747  17.200  0.00  0.00    +0.000 A 
ATOM      7  C   UNL     1      49.699   4.139  17.381  0.00  0.00    +0.000 A 
ATOM      8  C   UNL     1      50.927   4.674  17.804  0.00  0.00    +0.000 A 
ATOM      9  C   UNL     1      52.049   3.855  18.007  0.00  0.00    +0.000 A 
BRANCH   4  11
ATOM     10  C   UNL     1      53.176   0.306  17.820  0.00  0.00    +0.000 C 
ATOM     11  C   UNL     1      53.148   1.628  18.048  0.00  0.00    +0.000 C 
BRANCH  10  12
ATOM     12  C   UNL     1      54.385  -0.469  18.164  0.00  0.00    +0.000 C 
ATOM     13  O   UNL     1      55.090  -1.056  17.364  0.00  0.00    +0.000 OA
BRANCH  12  15
ATOM     14  C   UNL     1      55.059  -1.608  20.072  0.00  0.00    +0.000 C 
ATOM     15  O   UNL     1      54.570  -0.392  19.505  0.00  0.00    +0.000 OA
ENDBRANCH  12  15
ENDBRANCH  10  12
ENDBRANCH   4  11
ENDBRANCH   1   7
BRANCH   1  16
ATOM     16  C   UNL     1      47.519   4.489  16.029  0.00  0.00    +0.000 C 
BRANCH  16  17
ATOM     17  O   UNL     1      47.778   5.012  14.723  0.00  0.00    +0.000 OA
BRANCH  17  18
ATOM     18  C   UNL     1      46.790   4.910  13.781  0.00  0.00    +0.000 A 
ATOM     19  C   UNL     1      46.453   3.591  13.455  0.00  0.00    +0.000 A 
ATOM     20  N   UNL     1      45.513   3.224  12.546  0.00  0.00    +0.000 NA
ATOM     21  C   UNL     1      44.872   4.238  11.913  0.00  0.00    +0.000 A 
ATOM     22  C   UNL     1      45.141   5.572  12.140  0.00  0.00    +0.000 A 
ATOM     23  C   UNL     1      46.124   5.910  13.067  0.00  0.00    +0.000 A 
ATOM     24 CL   UNL     1      46.444   7.608  13.132  0.00  0.00    +0.000 Cl
BRANCH  21  25
ATOM     25  C   UNL     1      43.845   3.890  10.883  0.00  0.00    +0.000 C 
ATOM     26  N   UNL     1      43.840   4.659   9.755  0.00  0.00    +0.000 N 
ATOM     27  O   UNL     1      43.043   2.980  11.045  0.00  0.00    +0.000 OA
ATOM     28  H   UNL     1      44.503   5.418   9.655  0.00  0.00    +0.000 HD
ATOM     29  H   UNL     1      43.146   4.477   9.043  0.00  0.00    +0.000 HD
ENDBRANCH  21  25
ENDBRANCH  17  18
ENDBRANCH  16  17
ENDBRANCH   1  16
TORSDOF 8
ENDMDL
MODEL 3
REMARK VINA RESULT:    -6.039      3.446      7.734
REMARK INTER + INTRA:         -10.194
REMARK INTER:                  -9.486
REMARK INTRA:                  -0.708
REMARK UNBOUND:                -1.331
REMARK  Name = 
REMARK  11 active torsions:
REMARK  status: ('A' for Active; 'I' for Inactive)
REMARK    1  A    between atoms: C_1  and  O_2
REMARK    2  A    between atoms: O_2  and  C_3
REMARK    3  A    between atoms: C_3  and  C_5
REMARK    4  A    between atoms: C_6  and  C_7
REMARK    5  A    between atoms: C_10  and  C_11
REMARK    6  A    between atoms: C_11  and  C_12
REMARK    7  A    between atoms: C_11  and  C_13
REMARK    8  A    between atoms: C_11  and  C_14
REMARK    9  A    between atoms: C_14  and  O_15
REMARK   10  A    between atoms: O_15  and  C_16
REMARK   11  A    between atoms: C_19  and  C_20
REMARK                            x       y       z     vdW  Elec       q    Type
REMARK                         _______ _______ _______ _____ _____    ______ ____
ROOT
ATOM      1  C   UNL     1      43.710   5.878  12.073  0.00  0.00    +0.000 C 
ATOM      2  C   UNL     1      42.855   6.960  11.394  0.00  0.00    +0.000 C 
ATOM      3  C   UNL     1      42.853   5.142  13.136  0.00  0.00    +0.000 C 
ENDROOT
BRANCH   1   7
ATOM      4  C   UNL     1      45.216   2.904   9.212  0.00  0.00    +0.000 A 
ATOM      5  C   UNL     1      45.388   4.267   8.977  0.00  0.00    +0.000 A 
ATOM      6  C   UNL     1      44.906   5.213   9.881  0.00  0.00    +0.000 A 
ATOM      7  C   UNL     1      44.210   4.842  11.043  0.00  0.00    +0.000 A 
ATOM      8  C   UNL     1      44.008   3.467  11.250  0.00  0.00    +0.000 A 
ATOM      9  C   UNL     1      44.504   2.513  10.349  0.00  0.00    +0.000 A 
BRANCH   4  11
ATOM     10  C   UNL     1      46.920   1.915   7.706  0.00  0.00    +0.000 C 
ATOM     11  C   UNL     1      45.697   1.896   8.260  0.00  0.00    +0.000 C 
BRANCH  10  12
ATOM     12  C   UNL     1      47.286   0.887   6.711  0.00  0.00    +0.000 C 
ATOM     13  O   UNL     1      46.843  -0.246   6.681  0.00  0.00    +0.000 OA
BRANCH  12  15
ATOM     14  C   UNL     1      47.670   2.591   5.181  0.00  0.00    +0.000 C 
ATOM     15  O   UNL     1      48.175   1.432   5.845  0.00  0.00    +0.000 OA
ENDBRANCH  12  15
ENDBRANCH  10  12
ENDBRANCH   4  11
ENDBRANCH   1   7
BRANCH   1  16
ATOM     16  C   UNL     1      44.864   6.568  12.858  0.00  0.00    +0.000 C 
BRANCH  16  17
ATOM     17  O   UNL     1      46.115   5.891  12.707  0.00  0.00    +0.000 OA
BRANCH  17  18
ATOM     18  C   UNL     1      47.076   6.093  13.661  0.00  0.00    +0.000 A 
ATOM     19  C   UNL     1      47.282   4.992  14.499  0.00  0.00    +0.000 A 
ATOM     20  N   UNL     1      48.171   4.943  15.525  0.00  0.00    +0.000 NA
ATOM     21  C   UNL     1      48.896   6.070  15.735  0.00  0.00    +0.000 A 
ATOM     22  C   UNL     1      48.758   7.220  14.985  0.00  0.00    +0.000 A 
ATOM     23  C   UNL     1      47.824   7.238  13.952  0.00  0.00    +0.000 A 
ATOM     24 CL   UNL     1      47.665   8.788  13.203  0.00  0.00    +0.000 Cl
BRANCH  21  25
ATOM     25  C   UNL     1      49.872   6.081  16.870  0.00  0.00    +0.000 C 
ATOM     26  N   UNL     1      49.607   6.958  17.882  0.00  0.00    +0.000 N 
ATOM     27  O   UNL     1      50.859   5.358  16.884  0.00  0.00    +0.000 OA
ATOM     28  H   UNL     1      48.793   7.558  17.834  0.00  0.00    +0.000 HD
ATOM     29  H   UNL     1      50.255   7.019  18.656  0.00  0.00    +0.000 HD
ENDBRANCH  21  25
ENDBRANCH  17  18
ENDBRANCH  16  17
ENDBRANCH   1  16
TORSDOF 8
ENDMDL
MODEL 4
REMARK VINA RESULT:    -6.000      4.392      8.569
REMARK INTER + INTRA:         -10.137
REMARK INTER:                  -8.971
REMARK INTRA:                  -1.165
REMARK UNBOUND:                -1.331
REMARK  Name = 
REMARK  11 active torsions:
REMARK  status: ('A' for Active; 'I' for Inactive)
REMARK    1  A    between atoms: C_1  and  O_2
REMARK    2  A    between atoms: O_2  and  C_3
REMARK    3  A    between atoms: C_3  and  C_5
REMARK    4  A    between atoms: C_6  and  C_7
REMARK    5  A    between atoms: C_10  and  C_11
REMARK    6  A    between atoms: C_11  and  C_12
REMARK    7  A    between atoms: C_11  and  C_13
REMARK    8  A    between atoms: C_11  and  C_14
REMARK    9  A    between atoms: C_14  and  O_15
REMARK   10  A    between atoms: O_15  and  C_16
REMARK   11  A    between atoms: C_19  and  C_20
REMARK                            x       y       z     vdW  Elec       q    Type
REMARK                         _______ _______ _______ _____ _____    ______ ____
ROOT
ATOM      1  C   UNL     1      48.886   9.524  13.834  0.00  0.00    +0.000 C 
ATOM      2  C   UNL     1      50.336   9.163  13.468  0.00  0.00    +0.000 C 
ATOM      3  C   UNL     1      48.585  10.970  13.361  0.00  0.00    +0.000 C 
ENDROOT
BRANCH   1   7
ATOM      4  C   UNL     1      46.065   6.850  11.786  0.00  0.00    +0.000 A 
ATOM      5  C   UNL     1      45.605   7.839  12.654  0.00  0.00    +0.000 A 
ATOM      6  C   UNL     1      46.499   8.685  13.310  0.00  0.00    +0.000 A 
ATOM      7  C   UNL     1      47.889   8.565  13.149  0.00  0.00    +0.000 A 
ATOM      8  C   UNL     1      48.343   7.540  12.303  0.00  0.00    +0.000 A 
ATOM      9  C   UNL     1      47.445   6.696  11.630  0.00  0.00    +0.000 A 
BRANCH   4  11
ATOM     10  C   UNL     1      44.683   4.797  11.646  0.00  0.00    +0.000 C 
ATOM     11  C   UNL     1      45.139   5.937  11.105  0.00  0.00    +0.000 C 
BRANCH  10  12
ATOM     12  C   UNL     1      43.802   3.915  10.854  0.00  0.00    +0.000 C 
ATOM     13  O   UNL     1      43.024   3.103  11.321  0.00  0.00    +0.000 OA
BRANCH  12  15
ATOM     14  C   UNL     1      44.576   3.090   8.827  0.00  0.00    +0.000 C 
ATOM     15  O   UNL     1      44.001   4.184   9.541  0.00  0.00    +0.000 OA
ENDBRANCH  12  15
ENDBRANCH  10  12
ENDBRANCH   4  11
ENDBRANCH   1   7
BRANCH   1  16
ATOM     16  C   UNL     1      48.750   9.545  15.385  0.00  0.00    +0.000 C 
BRANCH  16  17
ATOM     17  O   UNL     1      49.659   8.648  16.029  0.00  0.00    +0.000 OA
BRANCH  17  18
ATOM     18  C   UNL     1      49.144   7.532  16.633  0.00  0.00    +0.000 A 
ATOM     19  C   UNL     1      49.183   6.386  15.830  0.00  0.00    +0.000 A 
ATOM     20  N   UNL     1      48.726   5.159  16.193  0.00  0.00    +0.000 NA
ATOM     21  C   UNL     1      48.188   5.071  17.435  0.00  0.00    +0.000 A 
ATOM     22  C   UNL     1      48.079   6.140  18.300  0.00  0.00    +0.000 A 
ATOM     23  C   UNL     1      48.542   7.387  17.886  0.00  0.00    +0.000 A 
ATOM     24 CL   UNL     1      48.203   8.650  19.017  0.00  0.00    +0.000 Cl
BRANCH  21  25
ATOM     25  C   UNL     1      47.646   3.748  17.877  0.00  0.00    +0.000 C 
ATOM     26  N   UNL     1      48.281   3.160  18.932  0.00  0.00    +0.000 N 
ATOM     27  O   UNL     1      46.696   3.215  17.317  0.00  0.00    +0.000 OA
ATOM     28  H   UNL     1      49.076   3.615  19.364  0.00  0.00    +0.000 HD
ATOM     29  H   UNL     1      47.966   2.252  19.247  0.00  0.00    +0.000 HD
ENDBRANCH  21  25
ENDBRANCH  17  18
ENDBRANCH  16  17
ENDBRANCH   1  16
TORSDOF 8
ENDMDL
MODEL 5
REMARK VINA RESULT:    -5.581      4.485      8.528
REMARK INTER + INTRA:          -9.523
REMARK INTER:                  -8.379
REMARK INTRA:                  -1.144
REMARK UNBOUND:                -1.331
REMARK  Name = 
REMARK  11 active torsions:
REMARK  status: ('A' for Active; 'I' for Inactive)
REMARK    1  A    between atoms: C_1  and  O_2
REMARK    2  A    between atoms: O_2  and  C_3
REMARK    3  A    between atoms: C_3  and  C_5
REMARK    4  A    between atoms: C_6  and  C_7
REMARK    5  A    between atoms: C_10  and  C_11
REMARK    6  A    between atoms: C_11  and  C_12
REMARK    7  A    between atoms: C_11  and  C_13
REMARK    8  A    between atoms: C_11  and  C_14
REMARK    9  A    between atoms: C_14  and  O_15
REMARK   10  A    between atoms: O_15  and  C_16
REMARK   11  A    between atoms: C_19  and  C_20
REMARK                            x       y       z     vdW  Elec       q    Type
REMARK                         _______ _______ _______ _____ _____    ______ ____
ROOT
ATOM      1  C   UNL     1      49.807   9.040  13.075  0.00  0.00    +0.000 C 
ATOM      2  C   UNL     1      50.604   9.247  11.776  0.00  0.00    +0.000 C 
ATOM      3  C   UNL     1      49.613  10.409  13.778  0.00  0.00    +0.000 C 
ENDROOT
BRANCH   1   7
ATOM      4  C   UNL     1      45.842   7.295  12.341  0.00  0.00    +0.000 A 
ATOM      5  C   UNL     1      46.992   6.679  11.851  0.00  0.00    +0.000 A 
ATOM      6  C   UNL     1      48.251   7.234  12.078  0.00  0.00    +0.000 A 
ATOM      7  C   UNL     1      48.416   8.439  12.780  0.00  0.00    +0.000 A 
ATOM      8  C   UNL     1      47.247   9.072  13.234  0.00  0.00    +0.000 A 
ATOM      9  C   UNL     1      45.980   8.509  13.020  0.00  0.00    +0.000 A 
BRANCH   4  11
ATOM     10  C   UNL     1      44.261   5.424  11.956  0.00  0.00    +0.000 C 
ATOM     11  C   UNL     1      44.508   6.737  12.092  0.00  0.00    +0.000 C 
BRANCH  10  12
ATOM     12  C   UNL     1      42.892   4.968  11.645  0.00  0.00    +0.000 C 
ATOM     13  O   UNL     1      41.890   5.654  11.734  0.00  0.00    +0.000 OA
BRANCH  12  15
ATOM     14  C   UNL     1      43.635   2.830  12.162  0.00  0.00    +0.000 C 
ATOM     15  O   UNL     1      42.957   3.677  11.235  0.00  0.00    +0.000 OA
ENDBRANCH  12  15
ENDBRANCH  10  12
ENDBRANCH   4  11
ENDBRANCH   1   7
BRANCH   1  16
ATOM     16  C   UNL     1      50.655   8.174  14.052  0.00  0.00    +0.000 C 
BRANCH  16  17
ATOM     17  O   UNL     1      50.112   8.146  15.375  0.00  0.00    +0.000 OA
BRANCH  17  18
ATOM     18  C   UNL     1      49.973   6.931  15.989  0.00  0.00    +0.000 A 
ATOM     19  C   UNL     1      48.739   6.316  15.753  0.00  0.00    +0.000 A 
ATOM     20  N   UNL     1      48.353   5.113  16.254  0.00  0.00    +0.000 NA
ATOM     21  C   UNL     1      49.255   4.487  17.051  0.00  0.00    +0.000 A 
ATOM     22  C   UNL     1      50.490   5.012  17.368  0.00  0.00    +0.000 A 
ATOM     23  C   UNL     1      50.844   6.255  16.850  0.00  0.00    +0.000 A 
ATOM     24 CL   UNL     1      52.355   6.841  17.453  0.00  0.00    +0.000 Cl
BRANCH  21  25
ATOM     25  C   UNL     1      48.872   3.171  17.652  0.00  0.00    +0.000 C 
ATOM     26  N   UNL     1      48.438   3.204  18.945  0.00  0.00    +0.000 N 
ATOM     27  O   UNL     1      48.957   2.122  17.027  0.00  0.00    +0.000 OA
ATOM     28  H   UNL     1      48.396   4.084  19.444  0.00  0.00    +0.000 HD
ATOM     29  H   UNL     1      48.195   2.335  19.400  0.00  0.00    +0.000 HD
ENDBRANCH  21  25
ENDBRANCH  17  18
ENDBRANCH  16  17
ENDBRANCH   1  16
TORSDOF 8
ENDMDL
MODEL 6
REMARK VINA RESULT:    -5.563      5.620      9.011
REMARK INTER + INTRA:          -9.496
REMARK INTER:                  -8.481
REMARK INTRA:                  -1.015
REMARK UNBOUND:                -1.331
REMARK  Name = 
REMARK  11 active torsions:
REMARK  status: ('A' for Active; 'I' for Inactive)
REMARK    1  A    between atoms: C_1  and  O_2
REMARK    2  A    between atoms: O_2  and  C_3
REMARK    3  A    between atoms: C_3  and  C_5
REMARK    4  A    between atoms: C_6  and  C_7
REMARK    5  A    between atoms: C_10  and  C_11
REMARK    6  A    between atoms: C_11  and  C_12
REMARK    7  A    between atoms: C_11  and  C_13
REMARK    8  A    between atoms: C_11  and  C_14
REMARK    9  A    between atoms: C_14  and  O_15
REMARK   10  A    between atoms: O_15  and  C_16
REMARK   11  A    between atoms: C_19  and  C_20
REMARK                            x       y       z     vdW  Elec       q    Type
REMARK                         _______ _______ _______ _____ _____    ______ ____
ROOT
ATOM      1  C   UNL     1      49.384   6.965  16.623  0.00  0.00    +0.000 C 
ATOM      2  C   UNL     1      50.011   8.368  16.546  0.00  0.00    +0.000 C 
ATOM      3  C   UNL     1      48.485   6.876  17.884  0.00  0.00    +0.000 C 
ENDROOT
BRANCH   1   7
ATOM      4  C   UNL     1      46.992   6.092  13.043  0.00  0.00    +0.000 A 
ATOM      5  C   UNL     1      47.593   7.338  13.210  0.00  0.00    +0.000 A 
ATOM      6  C   UNL     1      48.348   7.620  14.348  0.00  0.00    +0.000 A 
ATOM      7  C   UNL     1      48.514   6.681  15.379  0.00  0.00    +0.000 A 
ATOM      8  C   UNL     1      47.872   5.442  15.219  0.00  0.00    +0.000 A 
ATOM      9  C   UNL     1      47.123   5.151  14.068  0.00  0.00    +0.000 A 
BRANCH   4  11
ATOM     10  C   UNL     1      45.320   4.755  11.792  0.00  0.00    +0.000 C 
ATOM     11  C   UNL     1      46.176   5.787  11.862  0.00  0.00    +0.000 C 
BRANCH  10  12
ATOM     12  C   UNL     1      44.590   4.497  10.534  0.00  0.00    +0.000 C 
ATOM     13  O   UNL     1      45.041   4.668   9.417  0.00  0.00    +0.000 OA
BRANCH  12  15
ATOM     14  C   UNL     1      43.387   2.994  11.832  0.00  0.00    +0.000 C 
ATOM     15  O   UNL     1      43.358   4.027  10.848  0.00  0.00    +0.000 OA
ENDBRANCH  12  15
ENDBRANCH  10  12
ENDBRANCH   4  11
ENDBRANCH   1   7
BRANCH   1  16
ATOM     16  C   UNL     1      50.518   5.919  16.832  0.00  0.00    +0.000 C 
BRANCH  16  17
ATOM     17  O   UNL     1      50.186   4.938  17.819  0.00  0.00    +0.000 OA
BRANCH  17  18
ATOM     18  C   UNL     1      50.841   3.737  17.778  0.00  0.00    +0.000 A 
ATOM     19  C   UNL     1      52.162   3.797  18.235  0.00  0.00    +0.000 A 
ATOM     20  N   UNL     1      53.022   2.746  18.287  0.00  0.00    +0.000 NA
ATOM     21  C   UNL     1      52.536   1.560  17.845  0.00  0.00    +0.000 A 
ATOM     22  C   UNL     1      51.258   1.392  17.352  0.00  0.00    +0.000 A 
ATOM     23  C   UNL     1      50.410   2.496  17.299  0.00  0.00    +0.000 A 
ATOM     24 CL   UNL     1      48.900   2.160  16.526  0.00  0.00    +0.000 Cl
BRANCH  21  25
ATOM     25  C   UNL     1      53.448   0.375  17.855  0.00  0.00    +0.000 C 
ATOM     26  N   UNL     1      53.732  -0.177  16.639  0.00  0.00    +0.000 N 
ATOM     27  O   UNL     1      53.905  -0.086  18.893  0.00  0.00    +0.000 OA
ATOM     28  H   UNL     1      53.325   0.214  15.797  0.00  0.00    +0.000 HD
ATOM     29  H   UNL     1      54.322  -0.996  16.600  0.00  0.00    +0.000 HD
ENDBRANCH  21  25
ENDBRANCH  17  18
ENDBRANCH  16  17
ENDBRANCH   1  16
TORSDOF 8
ENDMDL
MODEL 7
REMARK VINA RESULT:    -5.181      6.264      9.238
REMARK INTER + INTRA:          -8.936
REMARK INTER:                  -8.117
REMARK INTRA:                  -0.819
REMARK UNBOUND:                -1.331
REMARK  Name = 
REMARK  11 active torsions:
REMARK  status: ('A' for Active; 'I' for Inactive)
REMARK    1  A    between atoms: C_1  and  O_2
REMARK    2  A    between atoms: O_2  and  C_3
REMARK    3  A    between atoms: C_3  and  C_5
REMARK    4  A    between atoms: C_6  and  C_7
REMARK    5  A    between atoms: C_10  and  C_11
REMARK    6  A    between atoms: C_11  and  C_12
REMARK    7  A    between atoms: C_11  and  C_13
REMARK    8  A    between atoms: C_11  and  C_14
REMARK    9  A    between atoms: C_14  and  O_15
REMARK   10  A    between atoms: O_15  and  C_16
REMARK   11  A    between atoms: C_19  and  C_20
REMARK                            x       y       z     vdW  Elec       q    Type
REMARK                         _______ _______ _______ _____ _____    ______ ____
ROOT
ATOM      1  C   UNL     1      49.093   5.369  17.447  0.00  0.00    +0.000 C 
ATOM      2  C   UNL     1      49.028   6.695  18.225  0.00  0.00    +0.000 C 
ATOM      3  C   UNL     1      48.393   4.259  18.273  0.00  0.00    +0.000 C 
ENDROOT
BRANCH   1   7
ATOM      4  C   UNL     1      47.123   5.641  13.529  0.00  0.00    +0.000 A 
ATOM      5  C   UNL     1      48.007   6.633  13.951  0.00  0.00    +0.000 A 
ATOM      6  C   UNL     1      48.629   6.552  15.197  0.00  0.00    +0.000 A 
ATOM      7  C   UNL     1      48.378   5.493  16.085  0.00  0.00    +0.000 A 
ATOM      8  C   UNL     1      47.456   4.520  15.665  0.00  0.00    +0.000 A 
ATOM      9  C   UNL     1      46.839   4.592  14.407  0.00  0.00    +0.000 A 
BRANCH   4  11
ATOM     10  C   UNL     1      45.431   4.920  11.867  0.00  0.00    +0.000 C 
ATOM     11  C   UNL     1      46.443   5.723  12.231  0.00  0.00    +0.000 C 
BRANCH  10  12
ATOM     12  C   UNL     1      44.854   5.042  10.514  0.00  0.00    +0.000 C 
ATOM     13  O   UNL     1      45.498   5.115   9.483  0.00  0.00    +0.000 OA
BRANCH  12  15
ATOM     14  C   UNL     1      43.037   4.325  11.770  0.00  0.00    +0.000 C 
ATOM     15  O   UNL     1      43.502   5.041  10.626  0.00  0.00    +0.000 OA
ENDBRANCH  12  15
ENDBRANCH  10  12
ENDBRANCH   4  11
ENDBRANCH   1   7
BRANCH   1  16
ATOM     16  C   UNL     1      50.583   4.934  17.321  0.00  0.00    +0.000 C 
BRANCH  16  17
ATOM     17  O   UNL     1      50.984   4.040  18.362  0.00  0.00    +0.000 OA
BRANCH  17  18
ATOM     18  C   UNL     1      51.928   3.092  18.069  0.00  0.00    +0.000 A 
ATOM     19  C   UNL     1      51.391   1.879  17.624  0.00  0.00    +0.000 A 
ATOM     20  N   UNL     1      52.114   0.781  17.278  0.00  0.00    +0.000 NA
ATOM     21  C   UNL     1      53.460   0.898  17.393  0.00  0.00    +0.000 A 
ATOM     22  C   UNL     1      54.093   2.039  17.843  0.00  0.00    +0.000 A 
ATOM     23  C   UNL     1      53.318   3.138  18.205  0.00  0.00    +0.000 A 
ATOM     24 CL   UNL     1      54.244   4.431  18.883  0.00  0.00    +0.000 Cl
BRANCH  21  25
ATOM     25  C   UNL     1      54.304  -0.289  17.052  0.00  0.00    +0.000 C 
ATOM     26  N   UNL     1      54.145  -0.798  15.796  0.00  0.00    +0.000 N 
ATOM     27  O   UNL     1      55.082  -0.786  17.855  0.00  0.00    +0.000 OA
ATOM     28  H   UNL     1      53.480  -0.378  15.158  0.00  0.00    +0.000 HD
ATOM     29  H   UNL     1      54.675  -1.617  15.530  0.00  0.00    +0.000 HD
ENDBRANCH  21  25
ENDBRANCH  17  18
ENDBRANCH  16  17
ENDBRANCH   1  16
TORSDOF 8
ENDMDL
MODEL 8
REMARK VINA RESULT:    -4.829      4.611      5.832
REMARK INTER + INTRA:          -8.418
REMARK INTER:                  -7.678
REMARK INTRA:                  -0.740
REMARK UNBOUND:                -1.331
REMARK  Name = 
REMARK  11 active torsions:
REMARK  status: ('A' for Active; 'I' for Inactive)
REMARK    1  A    between atoms: C_1  and  O_2
REMARK    2  A    between atoms: O_2  and  C_3
REMARK    3  A    between atoms: C_3  and  C_5
REMARK    4  A    between atoms: C_6  and  C_7
REMARK    5  A    between atoms: C_10  and  C_11
REMARK    6  A    between atoms: C_11  and  C_12
REMARK    7  A    between atoms: C_11  and  C_13
REMARK    8  A    between atoms: C_11  and  C_14
REMARK    9  A    between atoms: C_14  and  O_15
REMARK   10  A    between atoms: O_15  and  C_16
REMARK   11  A    between atoms: C_19  and  C_20
REMARK                            x       y       z     vdW  Elec       q    Type
REMARK                         _______ _______ _______ _____ _____    ______ ____
ROOT
ATOM      1  C   UNL     1      48.026   3.370  16.823  0.00  0.00    +0.000 C 
ATOM      2  C   UNL     1      49.353   2.617  17.019  0.00  0.00    +0.000 C 
ATOM      3  C   UNL     1      46.870   2.533  17.429  0.00  0.00    +0.000 C 
ENDROOT
BRANCH   1   7
ATOM      4  C   UNL     1      48.026   7.300  18.787  0.00  0.00    +0.000 A 
ATOM      5  C   UNL     1      48.858   7.050  17.697  0.00  0.00    +0.000 A 
ATOM      6  C   UNL     1      48.864   5.802  17.076  0.00  0.00    +0.000 A 
ATOM      7  C   UNL     1      48.061   4.742  17.530  0.00  0.00    +0.000 A 
ATOM      8  C   UNL     1      47.255   4.994  18.653  0.00  0.00    +0.000 A 
ATOM      9  C   UNL     1      47.237   6.253  19.271  0.00  0.00    +0.000 A 
BRANCH   4  11
ATOM     10  C   UNL     1      48.893   9.587  19.194  0.00  0.00    +0.000 C 
ATOM     11  C   UNL     1      48.024   8.601  19.466  0.00  0.00    +0.000 C 
BRANCH  10  12
ATOM     12  C   UNL     1      48.846  10.838  19.978  0.00  0.00    +0.000 C 
ATOM     13  O   UNL     1      49.689  11.190  20.783  0.00  0.00    +0.000 OA
BRANCH  12  15
ATOM     14  C   UNL     1      47.483  11.512  18.223  0.00  0.00    +0.000 C 
ATOM     15  O   UNL     1      47.725  11.516  19.630  0.00  0.00    +0.000 OA
ENDBRANCH  12  15
ENDBRANCH  10  12
ENDBRANCH   4  11
ENDBRANCH   1   7
BRANCH   1  16
ATOM     16  C   UNL     1      47.726   3.472  15.299  0.00  0.00    +0.000 C 
BRANCH  16  17
ATOM     17  O   UNL     1      46.490   4.138  15.024  0.00  0.00    +0.000 OA
BRANCH  17  18
ATOM     18  C   UNL     1      46.228   4.501  13.731  0.00  0.00    +0.000 A 
ATOM     19  C   UNL     1      45.599   3.503  12.979  0.00  0.00    +0.000 A 
ATOM     20  N   UNL     1      45.243   3.612  11.673  0.00  0.00    +0.000 NA
ATOM     21  C   UNL     1      45.541   4.792  11.074  0.00  0.00    +0.000 A 
ATOM     22  C   UNL     1      46.180   5.835  11.713  0.00  0.00    +0.000 A 
ATOM     23  C   UNL     1      46.546   5.679  13.048  0.00  0.00    +0.000 A 
ATOM     24 CL   UNL     1      47.463   7.010  13.663  0.00  0.00    +0.000 Cl
BRANCH  21  25
ATOM     25  C   UNL     1      45.195   4.958   9.628  0.00  0.00    +0.000 C 
ATOM     26  N   UNL     1      43.943   4.558   9.260  0.00  0.00    +0.000 N 
ATOM     27  O   UNL     1      45.992   5.411   8.816  0.00  0.00    +0.000 OA
ATOM     28  H   UNL     1      43.311   4.169   9.949  0.00  0.00    +0.000 HD
ATOM     29  H   UNL     1      43.675   4.626   8.287  0.00  0.00    +0.000 HD
ENDBRANCH  21  25
ENDBRANCH  17  18
ENDBRANCH  16  17
ENDBRANCH   1  16
TORSDOF 8
ENDMDL
MODEL 9
REMARK VINA RESULT:    -4.288     11.117     12.839
REMARK INTER + INTRA:          -7.625
REMARK INTER:                  -6.085
REMARK INTRA:                  -1.540
REMARK UNBOUND:                -1.331
REMARK  Name = 
REMARK  11 active torsions:
REMARK  status: ('A' for Active; 'I' for Inactive)
REMARK    1  A    between atoms: C_1  and  O_2
REMARK    2  A    between atoms: O_2  and  C_3
REMARK    3  A    between atoms: C_3  and  C_5
REMARK    4  A    between atoms: C_6  and  C_7
REMARK    5  A    between atoms: C_10  and  C_11
REMARK    6  A    between atoms: C_11  and  C_12
REMARK    7  A    between atoms: C_11  and  C_13
REMARK    8  A    between atoms: C_11  and  C_14
REMARK    9  A    between atoms: C_14  and  O_15
REMARK   10  A    between atoms: O_15  and  C_16
REMARK   11  A    between atoms: C_19  and  C_20
REMARK                            x       y       z     vdW  Elec       q    Type
REMARK                         _______ _______ _______ _____ _____    ______ ____
ROOT
ATOM      1  C   UNL     1      38.256  -2.724  13.983  0.00  0.00    +0.000 C 
ATOM      2  C   UNL     1      38.978  -2.786  12.626  0.00  0.00    +0.000 C 
ATOM      3  C   UNL     1      37.074  -3.728  13.979  0.00  0.00    +0.000 C 
ENDROOT
BRANCH   1   7
ATOM      4  C   UNL     1      41.058  -3.818  17.185  0.00  0.00    +0.000 A 
ATOM      5  C   UNL     1      39.955  -4.622  16.900  0.00  0.00    +0.000 A 
ATOM      6  C   UNL     1      39.061  -4.273  15.888  0.00  0.00    +0.000 A 
ATOM      7  C   UNL     1      39.213  -3.097  15.135  0.00  0.00    +0.000 A 
ATOM      8  C   UNL     1      40.306  -2.275  15.458  0.00  0.00    +0.000 A 
ATOM      9  C   UNL     1      41.215  -2.631  16.466  0.00  0.00    +0.000 A 
BRANCH   4  11
ATOM     10  C   UNL     1      43.266  -4.538  18.053  0.00  0.00    +0.000 C 
ATOM     11  C   UNL     1      41.996  -4.158  18.262  0.00  0.00    +0.000 C 
BRANCH  10  12
ATOM     12  C   UNL     1      44.112  -4.919  19.202  0.00  0.00    +0.000 C 
ATOM     13  O   UNL     1      44.121  -4.353  20.280  0.00  0.00    +0.000 OA
BRANCH  12  15
ATOM     14  C   UNL     1      46.140  -5.661  18.350  0.00  0.00    +0.000 C 
ATOM     15  O   UNL     1      44.846  -6.002  18.849  0.00  0.00    +0.000 OA
ENDBRANCH  12  15
ENDBRANCH  10  12
ENDBRANCH   4  11
ENDBRANCH   1   7
BRANCH   1  16
ATOM     16  C   UNL     1      37.618  -1.314  14.148  0.00  0.00    +0.000 C 
BRANCH  16  17
ATOM     17  O   UNL     1      36.976  -1.145  15.416  0.00  0.00    +0.000 OA
BRANCH  17  18
ATOM     18  C   UNL     1      37.454  -0.176  16.255  0.00  0.00    +0.000 A 
ATOM     19  C   UNL     1      37.470   1.104  15.691  0.00  0.00    +0.000 A 
ATOM     20  N   UNL     1      37.904   2.231  16.313  0.00  0.00    +0.000 NA
ATOM     21  C   UNL     1      38.362   2.069  17.580  0.00  0.00    +0.000 A 
ATOM     22  C   UNL     1      38.413   0.851  18.225  0.00  0.00    +0.000 A 
ATOM     23  C   UNL     1      37.975  -0.285  17.548  0.00  0.00    +0.000 A 
ATOM     24 CL   UNL     1      38.237  -1.748  18.431  0.00  0.00    +0.000 Cl
BRANCH  21  25
ATOM     25  C   UNL     1      38.878   3.273  18.304  0.00  0.00    +0.000 C 
ATOM     26  N   UNL     1      39.141   4.369  17.535  0.00  0.00    +0.000 N 
ATOM     27  O   UNL     1      39.068   3.272  19.513  0.00  0.00    +0.000 OA
ATOM     28  H   UNL     1      38.993   4.335  16.534  0.00  0.00    +0.000 HD
ATOM     29  H   UNL     1      39.518   5.196  17.978  0.00  0.00    +0.000 HD
ENDBRANCH  21  25
ENDBRANCH  17  18
ENDBRANCH  16  17
ENDBRANCH   1  16
TORSDOF 8
ENDMDL
