MODEL 1
REMARK VINA RESULT:    -9.007      0.000      0.000
REMARK INTER + INTRA:         -12.238
REMARK INTER:                 -11.640
REMARK INTRA:                  -0.598
REMARK UNBOUND:                -0.598
REMARK  Name = 
REMARK  5 active torsions:
REMARK  status: ('A' for Active; 'I' for Inactive)
REMARK    1  A    between atoms: C_2  and  C_4
REMARK    2  A    between atoms: N_8  and  C_9
REMARK    3  A    between atoms: C_9  and  C_10
REMARK    4  A    between atoms: C_10  and  C_11
REMARK    5  A    between atoms: N_16  and  C_17
REMARK                            x       y       z     vdW  Elec       q    Type
REMARK                         _______ _______ _______ _____ _____    ______ ____
ROOT
ATOM      1  C   UNL     1      43.546   4.821  11.062  0.00  0.00    +0.000 C 
ENDROOT
BRANCH   1   6
ATOM      2  C   UNL     1      46.427   2.336   7.708  0.00  0.00    +0.000 A 
ATOM      3  C   UNL     1      45.626   1.835   8.728  0.00  0.00    +0.000 A 
ATOM      4  C   UNL     1      44.759   2.698   9.398  0.00  0.00    +0.000 A 
ATOM      5  C   UNL     1      44.725   4.049   9.061  0.00  0.00    +0.000 A 
ATOM      6  N   UNL     1      43.845   4.952   9.640  0.00  0.00    +0.000 N 
ATOM      7  N   UNL     1      45.515   4.551   8.092  0.00  0.00    +0.000 NA
ATOM      8  C   UNL     1      46.349   3.695   7.441  0.00  0.00    +0.000 A 
ATOM      9  H   UNL     1      44.130   5.876   9.326  0.00  0.00    +0.000 HD
BRANCH   2  11
ATOM     10  N   UNL     1      48.508   2.064   6.485  0.00  0.00    +0.000 N 
ATOM     11  C   UNL     1      47.343   1.489   6.918  0.00  0.00    +0.000 C 
ATOM     12  O   UNL     1      47.092   0.314   6.690  0.00  0.00    +0.000 OA
ATOM     13  H   UNL     1      49.173   1.446   6.035  0.00  0.00    +0.000 HD
ATOM     14  H   UNL     1      48.862   2.932   6.858  0.00  0.00    +0.000 HD
ENDBRANCH   2  11
ENDBRANCH   1   6
BRANCH   1  15
ATOM     15  C   UNL     1      43.963   6.088  11.821  0.00  0.00    +0.000 C 
BRANCH  15  16
ATOM     16  C   UNL     1      45.297   5.915  12.506  0.00  0.00    +0.000 A 
ATOM     17  C   UNL     1      46.476   6.418  11.962  0.00  0.00    +0.000 A 
ATOM     18  C   UNL     1      47.667   6.161  12.629  0.00  0.00    +0.000 A 
ATOM     19  N   UNL     1      47.765   5.442  13.774  0.00  0.00    +0.000 NA
ATOM     20  C   UNL     1      46.620   4.974  14.309  0.00  0.00    +0.000 A 
ATOM     21  N   UNL     1      46.632   4.217  15.498  0.00  0.00    +0.000 N 
ATOM     22  C   UNL     1      45.383   5.191  13.700  0.00  0.00    +0.000 A 
ATOM     23  H   UNL     1      46.023   4.672  16.173  0.00  0.00    +0.000 HD
BRANCH  21  24
ATOM     24  C   UNL     1      47.816   3.651  16.087  0.00  0.00    +0.000 C 
ATOM     25  C   UNL     1      47.495   2.847  17.357  0.00  0.00    +0.000 C 
ATOM     26  O   UNL     1      48.417   3.635  18.145  0.00  0.00    +0.000 OA
ATOM     27  C   UNL     1      48.623   4.545  17.032  0.00  0.00    +0.000 C 
ENDBRANCH  21  24
ENDBRANCH  15  16
ENDBRANCH   1  15
TORSDOF 5
ENDMDL
MODEL 2
REMARK VINA RESULT:    -8.681      2.454      3.667
REMARK INTER + INTRA:         -11.816
REMARK INTER:                 -11.048
REMARK INTRA:                  -0.767
REMARK UNBOUND:                -0.598
REMARK  Name = 
REMARK  5 active torsions:
REMARK  status: ('A' for Active; 'I' for Inactive)
REMARK    1  A    between atoms: C_2  and  C_4
REMARK    2  A    between atoms: N_8  and  C_9
REMARK    3  A    between atoms: C_9  and  C_10
REMARK    4  A    between atoms: C_10  and  C_11
REMARK    5  A    between atoms: N_16  and  C_17
REMARK                            x       y       z     vdW  Elec       q    Type
REMARK                         _______ _______ _______ _____ _____    ______ ____
ROOT
ATOM      1  C   UNL     1      43.428   4.471  11.273  0.00  0.00    +0.000 C 
ENDROOT
BRANCH   1   6
ATOM      2  C   UNL     1      46.442   2.466   7.720  0.00  0.00    +0.000 A 
ATOM      3  C   UNL     1      45.637   1.830   8.659  0.00  0.00    +0.000 A 
ATOM      4  C   UNL     1      44.733   2.586   9.404  0.00  0.00    +0.000 A 
ATOM      5  C   UNL     1      44.666   3.965   9.223  0.00  0.00    +0.000 A 
ATOM      6  N   UNL     1      43.750   4.772   9.882  0.00  0.00    +0.000 N 
ATOM      7  N   UNL     1      45.459   4.597   8.335  0.00  0.00    +0.000 NA
ATOM      8  C   UNL     1      46.329   3.843   7.609  0.00  0.00    +0.000 A 
ATOM      9  H   UNL     1      44.012   5.734   9.682  0.00  0.00    +0.000 HD
BRANCH   2  11
ATOM     10  N   UNL     1      48.512   2.421   6.450  0.00  0.00    +0.000 N 
ATOM     11  C   UNL     1      47.397   1.740   6.859  0.00  0.00    +0.000 C 
ATOM     12  O   UNL     1      47.220   0.569   6.552  0.00  0.00    +0.000 OA
ATOM     13  H   UNL     1      49.207   1.883   5.947  0.00  0.00    +0.000 HD
ATOM     14  H   UNL     1      48.814   3.284   6.878  0.00  0.00    +0.000 HD
ENDBRANCH   2  11
ENDBRANCH   1   6
BRANCH   1  15
ATOM     15  C   UNL     1      43.791   5.654  12.180  0.00  0.00    +0.000 C 
BRANCH  15  16
ATOM     16  C   UNL     1      45.261   5.665  12.524  0.00  0.00    +0.000 A 
ATOM     17  C   UNL     1      45.801   4.811  13.482  0.00  0.00    +0.000 A 
ATOM     18  C   UNL     1      47.153   4.930  13.778  0.00  0.00    +0.000 A 
ATOM     19  N   UNL     1      47.987   5.832  13.205  0.00  0.00    +0.000 NA
ATOM     20  C   UNL     1      47.466   6.644  12.264  0.00  0.00    +0.000 A 
ATOM     21  N   UNL     1      48.264   7.611  11.618  0.00  0.00    +0.000 N 
ATOM     22  C   UNL     1      46.118   6.585  11.908  0.00  0.00    +0.000 A 
ATOM     23  H   UNL     1      48.208   7.453  10.615  0.00  0.00    +0.000 HD
BRANCH  21  24
ATOM     24  C   UNL     1      49.573   8.009  12.062  0.00  0.00    +0.000 C 
ATOM     25  C   UNL     1      49.913   9.443  11.626  0.00  0.00    +0.000 C 
ATOM     26  O   UNL     1      51.120   9.004  10.961  0.00  0.00    +0.000 OA
ATOM     27  C   UNL     1      50.761   7.614  11.181  0.00  0.00    +0.000 C 
ENDBRANCH  21  24
ENDBRANCH  15  16
ENDBRANCH   1  15
TORSDOF 5
ENDMDL
MODEL 3
REMARK VINA RESULT:    -8.660      1.740      2.164
REMARK INTER + INTRA:         -11.789
REMARK INTER:                 -11.058
REMARK INTRA:                  -0.732
REMARK UNBOUND:                -0.598
REMARK  Name = 
REMARK  5 active torsions:
REMARK  status: ('A' for Active; 'I' for Inactive)
REMARK    1  A    between atoms: C_2  and  C_4
REMARK    2  A    between atoms: N_8  and  C_9
REMARK    3  A    between atoms: C_9  and  C_10
REMARK    4  A    between atoms: C_10  and  C_11
REMARK    5  A    between atoms: N_16  and  C_17
REMARK                            x       y       z     vdW  Elec       q    Type
REMARK                         _______ _______ _______ _____ _____    ______ ____
ROOT
ATOM      1  C   UNL     1      43.380   4.489  11.191  0.00  0.00    +0.000 C 
ENDROOT
BRANCH   1   6
ATOM      2  C   UNL     1      46.474   2.495   7.702  0.00  0.00    +0.000 A 
ATOM      3  C   UNL     1      45.669   1.857   8.638  0.00  0.00    +0.000 A 
ATOM      4  C   UNL     1      44.742   2.606   9.362  0.00  0.00    +0.000 A 
ATOM      5  C   UNL     1      44.653   3.981   9.163  0.00  0.00    +0.000 A 
ATOM      6  N   UNL     1      43.714   4.779   9.801  0.00  0.00    +0.000 N 
ATOM      7  N   UNL     1      45.446   4.616   8.278  0.00  0.00    +0.000 NA
ATOM      8  C   UNL     1      46.339   3.869   7.572  0.00  0.00    +0.000 A 
ATOM      9  H   UNL     1      43.963   5.743   9.592  0.00  0.00    +0.000 HD
BRANCH   2  11
ATOM     10  N   UNL     1      48.561   2.472   6.459  0.00  0.00    +0.000 N 
ATOM     11  C   UNL     1      47.453   1.776   6.862  0.00  0.00    +0.000 C 
ATOM     12  O   UNL     1      47.301   0.598   6.568  0.00  0.00    +0.000 OA
ATOM     13  H   UNL     1      49.272   1.940   5.972  0.00  0.00    +0.000 HD
ATOM     14  H   UNL     1      48.842   3.345   6.880  0.00  0.00    +0.000 HD
ENDBRANCH   2  11
ENDBRANCH   1   6
BRANCH   1  15
ATOM     15  C   UNL     1      43.912   5.592  12.116  0.00  0.00    +0.000 C 
BRANCH  15  16
ATOM     16  C   UNL     1      45.214   5.194  12.769  0.00  0.00    +0.000 A 
ATOM     17  C   UNL     1      45.613   3.864  12.867  0.00  0.00    +0.000 A 
ATOM     18  C   UNL     1      46.797   3.583  13.537  0.00  0.00    +0.000 A 
ATOM     19  N   UNL     1      47.590   4.517  14.117  0.00  0.00    +0.000 NA
ATOM     20  C   UNL     1      47.211   5.806  14.003  0.00  0.00    +0.000 A 
ATOM     21  N   UNL     1      47.978   6.840  14.576  0.00  0.00    +0.000 N 
ATOM     22  C   UNL     1      46.037   6.169  13.344  0.00  0.00    +0.000 A 
ATOM     23  H   UNL     1      48.219   7.503  13.843  0.00  0.00    +0.000 HD
BRANCH  21  24
ATOM     24  C   UNL     1      49.035   6.633  15.530  0.00  0.00    +0.000 C 
ATOM     25  C   UNL     1      48.965   7.640  16.689  0.00  0.00    +0.000 C 
ATOM     26  O   UNL     1      50.322   8.083  16.446  0.00  0.00    +0.000 OA
ATOM     27  C   UNL     1      50.386   7.289  15.232  0.00  0.00    +0.000 C 
ENDBRANCH  21  24
ENDBRANCH  15  16
ENDBRANCH   1  15
TORSDOF 5
ENDMDL
MODEL 4
REMARK VINA RESULT:    -7.958      2.633      3.108
REMARK INTER + INTRA:         -10.881
REMARK INTER:                 -10.058
REMARK INTRA:                  -0.823
REMARK UNBOUND:                -0.598
REMARK  Name = 
REMARK  5 active torsions:
REMARK  status: ('A' for Active; 'I' for Inactive)
REMARK    1  A    between atoms: C_2  and  C_4
REMARK    2  A    between atoms: N_8  and  C_9
REMARK    3  A    between atoms: C_9  and  C_10
REMARK    4  A    between atoms: C_10  and  C_11
REMARK    5  A    between atoms: N_16  and  C_17
REMARK                            x       y       z     vdW  Elec       q    Type
REMARK                         _______ _______ _______ _____ _____    ______ ____
ROOT
ATOM      1  C   UNL     1      43.231   3.396  11.172  0.00  0.00    +0.000 C 
ENDROOT
BRANCH   1   6
ATOM      2  C   UNL     1      46.504   2.810   7.342  0.00  0.00    +0.000 A 
ATOM      3  C   UNL     1      46.001   3.978   7.904  0.00  0.00    +0.000 A 
ATOM      4  C   UNL     1      45.268   3.902   9.088  0.00  0.00    +0.000 A 
ATOM      5  C   UNL     1      45.025   2.663   9.676  0.00  0.00    +0.000 A 
ATOM      6  N   UNL     1      44.360   2.517  10.885  0.00  0.00    +0.000 N 
ATOM      7  N   UNL     1      45.485   1.522   9.127  0.00  0.00    +0.000 NA
ATOM      8  C   UNL     1      46.207   1.614   7.977  0.00  0.00    +0.000 A 
ATOM      9  H   UNL     1      44.193   1.521  11.006  0.00  0.00    +0.000 HD
BRANCH   2  11
ATOM     10  N   UNL     1      48.657   2.517   6.254  0.00  0.00    +0.000 N 
ATOM     11  C   UNL     1      47.325   2.799   6.114  0.00  0.00    +0.000 C 
ATOM     12  O   UNL     1      46.831   2.998   5.012  0.00  0.00    +0.000 OA
ATOM     13  H   UNL     1      49.186   2.411   5.397  0.00  0.00    +0.000 HD
ATOM     14  H   UNL     1      49.044   2.107   7.092  0.00  0.00    +0.000 HD
ENDBRANCH   2  11
ENDBRANCH   1   6
BRANCH   1  15
ATOM     15  C   UNL     1      43.409   4.076  12.535  0.00  0.00    +0.000 C 
BRANCH  15  16
ATOM     16  C   UNL     1      44.179   5.370  12.419  0.00  0.00    +0.000 A 
ATOM     17  C   UNL     1      43.841   6.349  11.488  0.00  0.00    +0.000 A 
ATOM     18  C   UNL     1      44.640   7.482  11.409  0.00  0.00    +0.000 A 
ATOM     19  N   UNL     1      45.740   7.699  12.170  0.00  0.00    +0.000 NA
ATOM     20  C   UNL     1      46.054   6.759  13.084  0.00  0.00    +0.000 A 
ATOM     21  N   UNL     1      47.182   6.906  13.917  0.00  0.00    +0.000 N 
ATOM     22  C   UNL     1      45.300   5.594  13.227  0.00  0.00    +0.000 A 
ATOM     23  H   UNL     1      46.875   6.845  14.884  0.00  0.00    +0.000 HD
BRANCH  21  24
ATOM     24  C   UNL     1      48.223   7.877  13.707  0.00  0.00    +0.000 C 
ATOM     25  C   UNL     1      49.408   7.285  12.928  0.00  0.00    +0.000 C 
ATOM     26  O   UNL     1      50.339   7.655  13.972  0.00  0.00    +0.000 OA
ATOM     27  C   UNL     1      49.244   8.062  14.834  0.00  0.00    +0.000 C 
ENDBRANCH  21  24
ENDBRANCH  15  16
ENDBRANCH   1  15
TORSDOF 5
ENDMDL
MODEL 5
REMARK VINA RESULT:    -7.341      1.547      8.292
REMARK INTER + INTRA:         -10.085
REMARK INTER:                  -9.650
REMARK INTRA:                  -0.435
REMARK UNBOUND:                -0.598
REMARK  Name = 
REMARK  5 active torsions:
REMARK  status: ('A' for Active; 'I' for Inactive)
REMARK    1  A    between atoms: C_2  and  C_4
REMARK    2  A    between atoms: N_8  and  C_9
REMARK    3  A    between atoms: C_9  and  C_10
REMARK    4  A    between atoms: C_10  and  C_11
REMARK    5  A    between atoms: N_16  and  C_17
REMARK                            x       y       z     vdW  Elec       q    Type
REMARK                         _______ _______ _______ _____ _____    ______ ____
ROOT
ATOM      1  C   UNL     1      45.603   5.878  13.039  0.00  0.00    +0.000 C 
ENDROOT
BRANCH   1   6
ATOM      2  C   UNL     1      48.504   4.507  16.968  0.00  0.00    +0.000 A 
ATOM      3  C   UNL     1      47.450   3.828  16.367  0.00  0.00    +0.000 A 
ATOM      4  C   UNL     1      46.928   4.306  15.166  0.00  0.00    +0.000 A 
ATOM      5  C   UNL     1      47.445   5.468  14.598  0.00  0.00    +0.000 A 
ATOM      6  N   UNL     1      47.020   5.967  13.375  0.00  0.00    +0.000 N 
ATOM      7  N   UNL     1      48.449   6.150  15.183  0.00  0.00    +0.000 NA
ATOM      8  C   UNL     1      48.954   5.664  16.351  0.00  0.00    +0.000 A 
ATOM      9  H   UNL     1      47.448   6.884  13.271  0.00  0.00    +0.000 HD
BRANCH   2  11
ATOM     10  N   UNL     1      48.418   3.214  19.022  0.00  0.00    +0.000 N 
ATOM     11  C   UNL     1      49.144   4.050  18.218  0.00  0.00    +0.000 C 
ATOM     12  O   UNL     1      50.288   4.374  18.507  0.00  0.00    +0.000 OA
ATOM     13  H   UNL     1      48.904   2.826  19.822  0.00  0.00    +0.000 HD
ATOM     14  H   UNL     1      47.590   2.731  18.705  0.00  0.00    +0.000 HD
ENDBRANCH   2  11
ENDBRANCH   1   6
BRANCH   1  15
ATOM     15  C   UNL     1      45.365   6.300  11.583  0.00  0.00    +0.000 C 
BRANCH  15  16
ATOM     16  C   UNL     1      45.093   5.110  10.694  0.00  0.00    +0.000 A 
ATOM     17  C   UNL     1      44.251   4.073  11.086  0.00  0.00    +0.000 A 
ATOM     18  C   UNL     1      44.104   2.989  10.230  0.00  0.00    +0.000 A 
ATOM     19  N   UNL     1      44.735   2.863   9.037  0.00  0.00    +0.000 NA
ATOM     20  C   UNL     1      45.534   3.878   8.651  0.00  0.00    +0.000 A 
ATOM     21  N   UNL     1      46.228   3.828   7.425  0.00  0.00    +0.000 N 
ATOM     22  C   UNL     1      45.732   5.002   9.453  0.00  0.00    +0.000 A 
ATOM     23  H   UNL     1      45.978   4.651   6.883  0.00  0.00    +0.000 HD
BRANCH  21  24
ATOM     24  C   UNL     1      46.378   2.640   6.626  0.00  0.00    +0.000 C 
ATOM     25  C   UNL     1      47.452   1.701   7.196  0.00  0.00    +0.000 C 
ATOM     26  O   UNL     1      48.179   1.699   5.945  0.00  0.00    +0.000 OA
ATOM     27  C   UNL     1      47.305   2.728   5.411  0.00  0.00    +0.000 C 
ENDBRANCH  21  24
ENDBRANCH  15  16
ENDBRANCH   1  15
TORSDOF 5
ENDMDL
MODEL 6
REMARK VINA RESULT:    -6.653      4.309      6.504
REMARK INTER + INTRA:          -9.196
REMARK INTER:                  -8.812
REMARK INTRA:                  -0.384
REMARK UNBOUND:                -0.598
REMARK  Name = 
REMARK  5 active torsions:
REMARK  status: ('A' for Active; 'I' for Inactive)
REMARK    1  A    between atoms: C_2  and  C_4
REMARK    2  A    between atoms: N_8  and  C_9
REMARK    3  A    between atoms: C_9  and  C_10
REMARK    4  A    between atoms: C_10  and  C_11
REMARK    5  A    between atoms: N_16  and  C_17
REMARK                            x       y       z     vdW  Elec       q    Type
REMARK                         _______ _______ _______ _____ _____    ______ ____
ROOT
ATOM      1  C   UNL     1      47.492   3.905  15.876  0.00  0.00    +0.000 C 
ENDROOT
BRANCH   1   6
ATOM      2  C   UNL     1      44.636   4.762  11.773  0.00  0.00    +0.000 A 
ATOM      3  C   UNL     1      45.235   5.670  12.639  0.00  0.00    +0.000 A 
ATOM      4  C   UNL     1      46.149   5.207  13.585  0.00  0.00    +0.000 A 
ATOM      5  C   UNL     1      46.429   3.845  13.672  0.00  0.00    +0.000 A 
ATOM      6  N   UNL     1      47.371   3.321  14.544  0.00  0.00    +0.000 N 
ATOM      7  N   UNL     1      45.836   2.952  12.856  0.00  0.00    +0.000 NA
ATOM      8  C   UNL     1      44.954   3.422  11.931  0.00  0.00    +0.000 A 
ATOM      9  H   UNL     1      47.271   2.310  14.507  0.00  0.00    +0.000 HD
BRANCH   2  11
ATOM     10  N   UNL     1      43.941   4.717   9.446  0.00  0.00    +0.000 N 
ATOM     11  C   UNL     1      43.690   5.167  10.714  0.00  0.00    +0.000 C 
ATOM     12  O   UNL     1      42.703   5.846  10.963  0.00  0.00    +0.000 OA
ATOM     13  H   UNL     1      43.231   4.915   8.751  0.00  0.00    +0.000 HD
ATOM     14  H   UNL     1      44.585   3.965   9.249  0.00  0.00    +0.000 HD
ENDBRANCH   2  11
ENDBRANCH   1   6
BRANCH   1  15
ATOM     15  C   UNL     1      47.880   2.833  16.903  0.00  0.00    +0.000 C 
BRANCH  15  16
ATOM     16  C   UNL     1      49.337   2.928  17.287  0.00  0.00    +0.000 A 
ATOM     17  C   UNL     1      49.904   4.114  17.744  0.00  0.00    +0.000 A 
ATOM     18  C   UNL     1      51.266   4.127  18.017  0.00  0.00    +0.000 A 
ATOM     19  N   UNL     1      52.090   3.063  17.859  0.00  0.00    +0.000 NA
ATOM     20  C   UNL     1      51.534   1.910  17.436  0.00  0.00    +0.000 A 
ATOM     21  N   UNL     1      52.320   0.754  17.245  0.00  0.00    +0.000 N 
ATOM     22  C   UNL     1      50.174   1.815  17.142  0.00  0.00    +0.000 A 
ATOM     23  H   UNL     1      51.926   0.004  17.807  0.00  0.00    +0.000 HD
BRANCH  21  24
ATOM     24  C   UNL     1      53.758   0.749  17.209  0.00  0.00    +0.000 C 
ATOM     25  C   UNL     1      54.315  -0.632  16.829  0.00  0.00    +0.000 C 
ATOM     26  O   UNL     1      55.116  -0.691  18.032  0.00  0.00    +0.000 OA
ATOM     27  C   UNL     1      54.490   0.519  18.534  0.00  0.00    +0.000 C 
ENDBRANCH  21  24
ENDBRANCH  15  16
ENDBRANCH   1  15
TORSDOF 5
ENDMDL
MODEL 7
REMARK VINA RESULT:    -6.504      3.264      8.071
REMARK INTER + INTRA:          -9.003
REMARK INTER:                  -8.414
REMARK INTRA:                  -0.589
REMARK UNBOUND:                -0.598
REMARK  Name = 
REMARK  5 active torsions:
REMARK  status: ('A' for Active; 'I' for Inactive)
REMARK    1  A    between atoms: C_2  and  C_4
REMARK    2  A    between atoms: N_8  and  C_9
REMARK    3  A    between atoms: C_9  and  C_10
REMARK    4  A    between atoms: C_10  and  C_11
REMARK    5  A    between atoms: N_16  and  C_17
REMARK                            x       y       z     vdW  Elec       q    Type
REMARK                         _______ _______ _______ _____ _____    ______ ____
ROOT
ATOM      1  C   UNL     1      48.679   6.946  16.243  0.00  0.00    +0.000 C 
ENDROOT
BRANCH   1   6
ATOM      2  C   UNL     1      51.147   2.681  17.445  0.00  0.00    +0.000 A 
ATOM      3  C   UNL     1      51.513   4.005  17.660  0.00  0.00    +0.000 A 
ATOM      4  C   UNL     1      50.580   5.015  17.429  0.00  0.00    +0.000 A 
ATOM      5  C   UNL     1      49.309   4.692  16.961  0.00  0.00    +0.000 A 
ATOM      6  N   UNL     1      48.310   5.636  16.769  0.00  0.00    +0.000 N 
ATOM      7  N   UNL     1      48.951   3.415  16.724  0.00  0.00    +0.000 NA
ATOM      8  C   UNL     1      49.870   2.441  16.963  0.00  0.00    +0.000 A 
ATOM      9  H   UNL     1      47.549   5.161  16.292  0.00  0.00    +0.000 HD
BRANCH   2  11
ATOM     10  N   UNL     1      51.487   0.369  18.107  0.00  0.00    +0.000 N 
ATOM     11  C   UNL     1      52.057   1.546  17.702  0.00  0.00    +0.000 C 
ATOM     12  O   UNL     1      53.263   1.640  17.526  0.00  0.00    +0.000 OA
ATOM     13  H   UNL     1      52.107  -0.429  18.180  0.00  0.00    +0.000 HD
ATOM     14  H   UNL     1      50.499   0.181  18.020  0.00  0.00    +0.000 HD
ENDBRANCH   2  11
ENDBRANCH   1   6
BRANCH   1  15
ATOM     15  C   UNL     1      49.029   6.850  14.752  0.00  0.00    +0.000 C 
BRANCH  15  16
ATOM     16  C   UNL     1      47.802   6.971  13.881  0.00  0.00    +0.000 A 
ATOM     17  C   UNL     1      47.129   8.179  13.719  0.00  0.00    +0.000 A 
ATOM     18  C   UNL     1      45.974   8.187  12.947  0.00  0.00    +0.000 A 
ATOM     19  N   UNL     1      45.447   7.092  12.346  0.00  0.00    +0.000 NA
ATOM     20  C   UNL     1      46.112   5.929  12.488  0.00  0.00    +0.000 A 
ATOM     21  N   UNL     1      45.632   4.742  11.895  0.00  0.00    +0.000 N 
ATOM     22  C   UNL     1      47.280   5.839  13.245  0.00  0.00    +0.000 A 
ATOM     23  H   UNL     1      46.366   4.363  11.302  0.00  0.00    +0.000 HD
BRANCH  21  24
ATOM     24  C   UNL     1      44.313   4.588  11.343  0.00  0.00    +0.000 C 
ATOM     25  C   UNL     1      43.352   3.919  12.339  0.00  0.00    +0.000 C 
ATOM     26  O   UNL     1      43.028   2.872  11.394  0.00  0.00    +0.000 OA
ATOM     27  C   UNL     1      44.055   3.347  10.483  0.00  0.00    +0.000 C 
ENDBRANCH  21  24
ENDBRANCH  15  16
ENDBRANCH   1  15
TORSDOF 5
ENDMDL
MODEL 8
REMARK VINA RESULT:    -6.442      3.122      8.142
REMARK INTER + INTRA:          -8.923
REMARK INTER:                  -8.568
REMARK INTRA:                  -0.355
REMARK UNBOUND:                -0.598
REMARK  Name = 
REMARK  5 active torsions:
REMARK  status: ('A' for Active; 'I' for Inactive)
REMARK    1  A    between atoms: C_2  and  C_4
REMARK    2  A    between atoms: N_8  and  C_9
REMARK    3  A    between atoms: C_9  and  C_10
REMARK    4  A    between atoms: C_10  and  C_11
REMARK    5  A    between atoms: N_16  and  C_17
REMARK                            x       y       z     vdW  Elec       q    Type
REMARK                         _______ _______ _______ _____ _____    ______ ____
ROOT
ATOM      1  C   UNL     1      46.271   6.583  11.245  0.00  0.00    +0.000 C 
ENDROOT
BRANCH   1   6
ATOM      2  C   UNL     1      50.596   8.234  13.317  0.00  0.00    +0.000 A 
ATOM      3  C   UNL     1      50.042   8.526  12.075  0.00  0.00    +0.000 A 
ATOM      4  C   UNL     1      48.738   8.117  11.799  0.00  0.00    +0.000 A 
ATOM      5  C   UNL     1      48.018   7.400  12.751  0.00  0.00    +0.000 A 
ATOM      6  N   UNL     1      46.697   7.016  12.571  0.00  0.00    +0.000 N 
ATOM      7  N   UNL     1      48.553   7.088  13.948  0.00  0.00    +0.000 NA
ATOM      8  C   UNL     1      49.824   7.502  14.206  0.00  0.00    +0.000 A 
ATOM      9  H   UNL     1      46.469   6.392  13.341  0.00  0.00    +0.000 HD
BRANCH   2  11
ATOM     10  N   UNL     1      52.831   7.683  14.093  0.00  0.00    +0.000 N 
ATOM     11  C   UNL     1      51.954   8.662  13.710  0.00  0.00    +0.000 C 
ATOM     12  O   UNL     1      52.293   9.836  13.663  0.00  0.00    +0.000 OA
ATOM     13  H   UNL     1      53.786   7.977  14.260  0.00  0.00    +0.000 HD
ATOM     14  H   UNL     1      52.674   6.704  13.906  0.00  0.00    +0.000 HD
ENDBRANCH   2  11
ENDBRANCH   1   6
BRANCH   1  15
ATOM     15  C   UNL     1      44.890   5.917  11.312  0.00  0.00    +0.000 C 
BRANCH  15  16
ATOM     16  C   UNL     1      44.818   4.690  10.435  0.00  0.00    +0.000 A 
ATOM     17  C   UNL     1      44.158   3.532  10.839  0.00  0.00    +0.000 A 
ATOM     18  C   UNL     1      44.192   2.430   9.995  0.00  0.00    +0.000 A 
ATOM     19  N   UNL     1      44.836   2.398   8.803  0.00  0.00    +0.000 NA
ATOM     20  C   UNL     1      45.457   3.526   8.405  0.00  0.00    +0.000 A 
ATOM     21  N   UNL     1      46.150   3.578   7.178  0.00  0.00    +0.000 N 
ATOM     22  C   UNL     1      45.466   4.675   9.195  0.00  0.00    +0.000 A 
ATOM     23  H   UNL     1      45.769   4.343   6.628  0.00  0.00    +0.000 HD
BRANCH  21  24
ATOM     24  C   UNL     1      46.494   2.423   6.392  0.00  0.00    +0.000 C 
ATOM     25  C   UNL     1      47.643   1.622   7.024  0.00  0.00    +0.000 C 
ATOM     26  O   UNL     1      48.436   1.719   5.818  0.00  0.00    +0.000 OA
ATOM     27  C   UNL     1      47.472   2.633   5.232  0.00  0.00    +0.000 C 
ENDBRANCH  21  24
ENDBRANCH  15  16
ENDBRANCH   1  15
TORSDOF 5
ENDMDL
MODEL 9
REMARK VINA RESULT:    -6.226      3.077      7.533
REMARK INTER + INTRA:          -8.644
REMARK INTER:                  -8.071
REMARK INTRA:                  -0.573
REMARK UNBOUND:                -0.598
REMARK  Name = 
REMARK  5 active torsions:
REMARK  status: ('A' for Active; 'I' for Inactive)
REMARK    1  A    between atoms: C_2  and  C_4
REMARK    2  A    between atoms: N_8  and  C_9
REMARK    3  A    between atoms: C_9  and  C_10
REMARK    4  A    between atoms: C_10  and  C_11
REMARK    5  A    between atoms: N_16  and  C_17
REMARK                            x       y       z     vdW  Elec       q    Type
REMARK                         _______ _______ _______ _____ _____    ______ ____
ROOT
ATOM      1  C   UNL     1      46.607   5.351  13.642  0.00  0.00    +0.000 C 
ENDROOT
BRANCH   1   6
ATOM      2  C   UNL     1      50.541   8.236  12.253  0.00  0.00    +0.000 A 
ATOM      3  C   UNL     1      49.526   7.690  11.475  0.00  0.00    +0.000 A 
ATOM      4  C   UNL     1      48.430   7.099  12.103  0.00  0.00    +0.000 A 
ATOM      5  C   UNL     1      48.377   7.034  13.493  0.00  0.00    +0.000 A 
ATOM      6  N   UNL     1      47.292   6.519  14.187  0.00  0.00    +0.000 N 
ATOM      7  N   UNL     1      49.367   7.536  14.258  0.00  0.00    +0.000 NA
ATOM      8  C   UNL     1      50.425   8.119  13.630  0.00  0.00    +0.000 A 
ATOM      9  H   UNL     1      47.573   6.458  15.162  0.00  0.00    +0.000 HD
BRANCH   2  11
ATOM     10  N   UNL     1      51.498  10.112  11.043  0.00  0.00    +0.000 N 
ATOM     11  C   UNL     1      51.717   8.917  11.675  0.00  0.00    +0.000 C 
ATOM     12  O   UNL     1      52.843   8.455  11.787  0.00  0.00    +0.000 OA
ATOM     13  H   UNL     1      52.322  10.618  10.742  0.00  0.00    +0.000 HD
ATOM     14  H   UNL     1      50.644  10.639  11.148  0.00  0.00    +0.000 HD
ENDBRANCH   2  11
ENDBRANCH   1   6
BRANCH   1  15
ATOM     15  C   UNL     1      45.178   5.714  13.216  0.00  0.00    +0.000 C 
BRANCH  15  16
ATOM     16  C   UNL     1      44.680   4.816  12.109  0.00  0.00    +0.000 A 
ATOM     17  C   UNL     1      43.628   3.924  12.299  0.00  0.00    +0.000 A 
ATOM     18  C   UNL     1      43.274   3.093  11.243  0.00  0.00    +0.000 A 
ATOM     19  N   UNL     1      43.892   3.081  10.037  0.00  0.00    +0.000 NA
ATOM     20  C   UNL     1      44.897   3.959   9.849  0.00  0.00    +0.000 A 
ATOM     21  N   UNL     1      45.594   4.013   8.624  0.00  0.00    +0.000 N 
ATOM     22  C   UNL     1      45.310   4.829  10.859  0.00  0.00    +0.000 A 
ATOM     23  H   UNL     1      45.538   4.963   8.267  0.00  0.00    +0.000 HD
BRANCH  21  24
ATOM     24  C   UNL     1      45.506   3.009   7.598  0.00  0.00    +0.000 C 
ATOM     25  C   UNL     1      46.329   1.759   7.949  0.00  0.00    +0.000 C 
ATOM     26  O   UNL     1      47.080   1.850   6.716  0.00  0.00    +0.000 OA
ATOM     27  C   UNL     1      46.470   3.133   6.414  0.00  0.00    +0.000 C 
ENDBRANCH  21  24
ENDBRANCH  15  16
ENDBRANCH   1  15
TORSDOF 5
ENDMDL
