MODEL 1
REMARK VINA RESULT:    -7.446      0.000      0.000
REMARK INTER + INTRA:          -9.850
REMARK INTER:                  -9.405
REMARK INTRA:                  -0.446
REMARK UNBOUND:                -0.446
REMARK  Name = 
REMARK  5 active torsions:
REMARK  status: ('A' for Active; 'I' for Inactive)
REMARK    1  A    between atoms: N_1  and  C_2
REMARK    2  A    between atoms: C_2  and  C_3
REMARK    3  A    between atoms: C_3  and  C_4
REMARK    4  A    between atoms: C_9  and  C_10
REMARK    5  A    between atoms: C_10  and  N_11
REMARK                            x       y       z     vdW  Elec       q    Type
REMARK                         _______ _______ _______ _____ _____    ______ ____
ROOT
ATOM      1  C   UNL     1      45.003   4.686  12.163  0.00  0.00    +0.000 A 
ATOM      2  C   UNL     1      44.045   4.688  13.186  0.00  0.00    +0.000 A 
ATOM      3  C   UNL     1      42.742   5.087  12.930  0.00  0.00    +0.000 A 
ATOM      4  C   UNL     1      42.431   5.523  11.658  0.00  0.00    +0.000 A 
ATOM      5  N   UNL     1      43.320   5.541  10.640  0.00  0.00    +0.000 NA
ATOM      6  C   UNL     1      44.583   5.103  10.887  0.00  0.00    +0.000 A 
ENDROOT
BRANCH   1   7
ATOM      7  C   UNL     1      46.400   4.194  12.489  0.00  0.00    +0.000 C 
BRANCH   7   8
ATOM      8  C   UNL     1      46.776   4.382  13.969  0.00  0.00    +0.000 C 
BRANCH   8   9
ATOM      9  N   UNL     1      47.484   3.214  14.487  0.00  0.00    +0.000 NA
ATOM     10  H   UNL     1      46.821   2.455  14.642  0.00  0.00    +0.000 HD
ATOM     11  H   UNL     1      47.888   3.430  15.398  0.00  0.00    +0.000 HD
ENDBRANCH   8   9
ENDBRANCH   7   8
ENDBRANCH   1   7
BRANCH   6  12
ATOM     12  C   UNL     1      45.431   4.869   9.660  0.00  0.00    +0.000 C 
BRANCH  12  13
ATOM     13  N   UNL     1      45.034   3.789   8.740  0.00  0.00    +0.000 N 
ATOM     14  C   UNL     1      44.386   2.670   9.256  0.00  0.00    +0.000 A 
ATOM     15  C   UNL     1      45.230   1.602   9.036  0.00  0.00    +0.000 A 
ATOM     16  C   UNL     1      46.111   1.985   7.994  0.00  0.00    +0.000 A 
ATOM     17  C   UNL     1      47.094   1.336   7.233  0.00  0.00    +0.000 A 
ATOM     18  C   UNL     1      47.651   2.042   6.168  0.00  0.00    +0.000 A 
ATOM     19  C   UNL     1      47.268   3.363   5.963  0.00  0.00    +0.000 A 
ATOM     20  N   UNL     1      46.430   4.079   6.753  0.00  0.00    +0.000 NA
ATOM     21  C   UNL     1      45.868   3.336   7.729  0.00  0.00    +0.000 A 
ENDBRANCH  12  13
ENDBRANCH   6  12
TORSDOF 5
ENDMDL
MODEL 2
REMARK VINA RESULT:    -6.430      2.621      3.172
REMARK INTER + INTRA:          -8.567
REMARK INTER:                  -8.020
REMARK INTRA:                  -0.547
REMARK UNBOUND:                -0.446
REMARK  Name = 
REMARK  5 active torsions:
REMARK  status: ('A' for Active; 'I' for Inactive)
REMARK    1  A    between atoms: N_1  and  C_2
REMARK    2  A    between atoms: C_2  and  C_3
REMARK    3  A    between atoms: C_3  and  C_4
REMARK    4  A    between atoms: C_9  and  C_10
REMARK    5  A    between atoms: C_10  and  N_11
REMARK                            x       y       z     vdW  Elec       q    Type
REMARK                         _______ _______ _______ _____ _____    ______ ____
ROOT
ATOM      1  C   UNL     1      46.812   7.781  12.166  0.00  0.00    +0.000 A 
ATOM      2  C   UNL     1      46.790   9.179  12.281  0.00  0.00    +0.000 A 
ATOM      3  C   UNL     1      45.657   9.897  11.930  0.00  0.00    +0.000 A 
ATOM      4  C   UNL     1      44.575   9.204  11.425  0.00  0.00    +0.000 A 
ATOM      5  N   UNL     1      44.549   7.859  11.294  0.00  0.00    +0.000 NA
ATOM      6  C   UNL     1      45.646   7.158  11.685  0.00  0.00    +0.000 A 
ENDROOT
BRANCH   1   7
ATOM      7  C   UNL     1      48.060   7.044  12.609  0.00  0.00    +0.000 C 
BRANCH   7   8
ATOM      8  C   UNL     1      48.233   7.015  14.138  0.00  0.00    +0.000 C 
BRANCH   8   9
ATOM      9  N   UNL     1      47.841   5.720  14.690  0.00  0.00    +0.000 NA
ATOM     10  H   UNL     1      47.711   5.805  15.698  0.00  0.00    +0.000 HD
ATOM     11  H   UNL     1      48.592   5.044  14.554  0.00  0.00    +0.000 HD
ENDBRANCH   8   9
ENDBRANCH   7   8
ENDBRANCH   1   7
BRANCH   6  12
ATOM     12  C   UNL     1      45.447   5.665  11.793  0.00  0.00    +0.000 C 
BRANCH  12  13
ATOM     13  N   UNL     1      44.569   5.010  10.808  0.00  0.00    +0.000 N 
ATOM     14  C   UNL     1      43.522   4.215  11.265  0.00  0.00    +0.000 A 
ATOM     15  C   UNL     1      43.797   2.933  10.835  0.00  0.00    +0.000 A 
ATOM     16  C   UNL     1      44.702   3.052   9.750  0.00  0.00    +0.000 A 
ATOM     17  C   UNL     1      45.259   2.166   8.817  0.00  0.00    +0.000 A 
ATOM     18  C   UNL     1      46.015   2.714   7.783  0.00  0.00    +0.000 A 
ATOM     19  C   UNL     1      46.244   4.086   7.770  0.00  0.00    +0.000 A 
ATOM     20  N   UNL     1      45.848   4.965   8.724  0.00  0.00    +0.000 NA
ATOM     21  C   UNL     1      45.066   4.399   9.666  0.00  0.00    +0.000 A 
ENDBRANCH  12  13
ENDBRANCH   6  12
TORSDOF 5
ENDMDL
MODEL 3
REMARK VINA RESULT:    -6.044      1.698      2.071
REMARK INTER + INTRA:          -8.079
REMARK INTER:                  -8.989
REMARK INTRA:                   0.910
REMARK UNBOUND:                -0.446
REMARK  Name = 
REMARK  5 active torsions:
REMARK  status: ('A' for Active; 'I' for Inactive)
REMARK    1  A    between atoms: N_1  and  C_2
REMARK    2  A    between atoms: C_2  and  C_3
REMARK    3  A    between atoms: C_3  and  C_4
REMARK    4  A    between atoms: C_9  and  C_10
REMARK    5  A    between atoms: C_10  and  N_11
REMARK                            x       y       z     vdW  Elec       q    Type
REMARK                         _______ _______ _______ _____ _____    ______ ____
ROOT
ATOM      1  C   UNL     1      44.589   5.757  11.641  0.00  0.00    +0.000 A 
ATOM      2  C   UNL     1      44.046   5.571  12.920  0.00  0.00    +0.000 A 
ATOM      3  C   UNL     1      43.431   4.375  13.258  0.00  0.00    +0.000 A 
ATOM      4  C   UNL     1      43.329   3.398  12.290  0.00  0.00    +0.000 A 
ATOM      5  N   UNL     1      43.834   3.531  11.043  0.00  0.00    +0.000 NA
ATOM      6  C   UNL     1      44.478   4.687  10.734  0.00  0.00    +0.000 A 
ENDROOT
BRANCH   1   7
ATOM      7  C   UNL     1      45.292   7.067  11.342  0.00  0.00    +0.000 C 
BRANCH   7   8
ATOM      8  C   UNL     1      45.843   7.756  12.603  0.00  0.00    +0.000 C 
BRANCH   8   9
ATOM      9  N   UNL     1      45.138   9.007  12.872  0.00  0.00    +0.000 NA
ATOM     10  H   UNL     1      45.654   9.545  13.569  0.00  0.00    +0.000 HD
ATOM     11  H   UNL     1      44.226   8.808  13.282  0.00  0.00    +0.000 HD
ENDBRANCH   8   9
ENDBRANCH   7   8
ENDBRANCH   1   7
BRANCH   6  12
ATOM     12  C   UNL     1      45.267   4.657   9.447  0.00  0.00    +0.000 C 
BRANCH  12  13
ATOM     13  N   UNL     1      45.021   3.548   8.510  0.00  0.00    +0.000 N 
ATOM     14  C   UNL     1      44.492   2.357   9.001  0.00  0.00    +0.000 A 
ATOM     15  C   UNL     1      45.459   1.395   8.797  0.00  0.00    +0.000 A 
ATOM     16  C   UNL     1      46.317   1.886   7.782  0.00  0.00    +0.000 A 
ATOM     17  C   UNL     1      47.388   1.361   7.044  0.00  0.00    +0.000 A 
ATOM     18  C   UNL     1      47.888   2.136   6.000  0.00  0.00    +0.000 A 
ATOM     19  C   UNL     1      47.362   3.407   5.792  0.00  0.00    +0.000 A 
ATOM     20  N   UNL     1      46.427   4.014   6.564  0.00  0.00    +0.000 NA
ATOM     21  C   UNL     1      45.928   3.203   7.519  0.00  0.00    +0.000 A 
ENDBRANCH  12  13
ENDBRANCH   6  12
TORSDOF 5
ENDMDL
MODEL 4
REMARK VINA RESULT:    -5.894      3.202      5.912
REMARK INTER + INTRA:          -7.890
REMARK INTER:                  -7.442
REMARK INTRA:                  -0.448
REMARK UNBOUND:                -0.446
REMARK  Name = 
REMARK  5 active torsions:
REMARK  status: ('A' for Active; 'I' for Inactive)
REMARK    1  A    between atoms: N_1  and  C_2
REMARK    2  A    between atoms: C_2  and  C_3
REMARK    3  A    between atoms: C_3  and  C_4
REMARK    4  A    between atoms: C_9  and  C_10
REMARK    5  A    between atoms: C_10  and  N_11
REMARK                            x       y       z     vdW  Elec       q    Type
REMARK                         _______ _______ _______ _____ _____    ______ ____
ROOT
ATOM      1  C   UNL     1      44.889   4.728  10.594  0.00  0.00    +0.000 A 
ATOM      2  C   UNL     1      44.458   3.400  10.724  0.00  0.00    +0.000 A 
ATOM      3  C   UNL     1      43.698   3.010  11.817  0.00  0.00    +0.000 A 
ATOM      4  C   UNL     1      43.420   3.951  12.787  0.00  0.00    +0.000 A 
ATOM      5  N   UNL     1      43.815   5.241  12.708  0.00  0.00    +0.000 NA
ATOM      6  C   UNL     1      44.519   5.627  11.611  0.00  0.00    +0.000 A 
ENDROOT
BRANCH   1   7
ATOM      7  C   UNL     1      45.677   5.109   9.355  0.00  0.00    +0.000 C 
BRANCH   7   8
ATOM      8  C   UNL     1      45.545   4.081   8.217  0.00  0.00    +0.000 C 
BRANCH   8   9
ATOM      9  N   UNL     1      46.620   4.234   7.240  0.00  0.00    +0.000 NA
ATOM     10  H   UNL     1      46.271   3.998   6.311  0.00  0.00    +0.000 HD
ATOM     11  H   UNL     1      47.367   3.570   7.442  0.00  0.00    +0.000 HD
ENDBRANCH   8   9
ENDBRANCH   7   8
ENDBRANCH   1   7
BRANCH   6  12
ATOM     12  C   UNL     1      44.670   7.119  11.439  0.00  0.00    +0.000 C 
BRANCH  12  13
ATOM     13  N   UNL     1      45.521   7.844  12.398  0.00  0.00    +0.000 N 
ATOM     14  C   UNL     1      45.283   9.197  12.619  0.00  0.00    +0.000 A 
ATOM     15  C   UNL     1      46.409   9.862  12.181  0.00  0.00    +0.000 A 
ATOM     16  C   UNL     1      47.463   8.915  12.166  0.00  0.00    +0.000 A 
ATOM     17  C   UNL     1      48.847   8.969  11.950  0.00  0.00    +0.000 A 
ATOM     18  C   UNL     1      49.578   7.805  12.177  0.00  0.00    +0.000 A 
ATOM     19  C   UNL     1      48.901   6.641  12.526  0.00  0.00    +0.000 A 
ATOM     20  N   UNL     1      47.554   6.502  12.609  0.00  0.00    +0.000 NA
ATOM     21  C   UNL     1      46.896   7.668  12.446  0.00  0.00    +0.000 A 
ENDBRANCH  12  13
ENDBRANCH   6  12
TORSDOF 5
ENDMDL
MODEL 5
REMARK VINA RESULT:    -5.878      3.675      6.684
REMARK INTER + INTRA:          -7.869
REMARK INTER:                  -7.361
REMARK INTRA:                  -0.508
REMARK UNBOUND:                -0.446
REMARK  Name = 
REMARK  5 active torsions:
REMARK  status: ('A' for Active; 'I' for Inactive)
REMARK    1  A    between atoms: N_1  and  C_2
REMARK    2  A    between atoms: C_2  and  C_3
REMARK    3  A    between atoms: C_3  and  C_4
REMARK    4  A    between atoms: C_9  and  C_10
REMARK    5  A    between atoms: C_10  and  N_11
REMARK                            x       y       z     vdW  Elec       q    Type
REMARK                         _______ _______ _______ _____ _____    ______ ____
ROOT
ATOM      1  C   UNL     1      48.787   4.642  17.232  0.00  0.00    +0.000 A 
ATOM      2  C   UNL     1      49.980   4.115  17.746  0.00  0.00    +0.000 A 
ATOM      3  C   UNL     1      50.390   2.835  17.405  0.00  0.00    +0.000 A 
ATOM      4  C   UNL     1      49.571   2.084  16.587  0.00  0.00    +0.000 A 
ATOM      5  N   UNL     1      48.412   2.547  16.068  0.00  0.00    +0.000 NA
ATOM      6  C   UNL     1      48.041   3.820  16.368  0.00  0.00    +0.000 A 
ENDROOT
BRANCH   1   7
ATOM      7  C   UNL     1      48.413   6.065  17.600  0.00  0.00    +0.000 C 
BRANCH   7   8
ATOM      8  C   UNL     1      47.667   6.163  18.943  0.00  0.00    +0.000 C 
BRANCH   8   9
ATOM      9  N   UNL     1      46.394   5.449  18.894  0.00  0.00    +0.000 NA
ATOM     10  H   UNL     1      45.891   5.591  19.770  0.00  0.00    +0.000 HD
ATOM     11  H   UNL     1      46.563   4.446  18.821  0.00  0.00    +0.000 HD
ENDBRANCH   8   9
ENDBRANCH   7   8
ENDBRANCH   1   7
BRANCH   6  12
ATOM     12  C   UNL     1      46.911   4.371  15.533  0.00  0.00    +0.000 C 
BRANCH  12  13
ATOM     13  N   UNL     1      47.186   4.694  14.122  0.00  0.00    +0.000 N 
ATOM     14  C   UNL     1      47.766   5.921  13.814  0.00  0.00    +0.000 A 
ATOM     15  C   UNL     1      46.834   6.609  13.065  0.00  0.00    +0.000 A 
ATOM     16  C   UNL     1      45.945   5.643  12.532  0.00  0.00    +0.000 A 
ATOM     17  C   UNL     1      44.885   5.665  11.613  0.00  0.00    +0.000 A 
ATOM     18  C   UNL     1      44.343   4.439  11.230  0.00  0.00    +0.000 A 
ATOM     19  C   UNL     1      44.818   3.277  11.827  0.00  0.00    +0.000 A 
ATOM     20  N   UNL     1      45.739   3.214  12.820  0.00  0.00    +0.000 NA
ATOM     21  C   UNL     1      46.280   4.415  13.110  0.00  0.00    +0.000 A 
ENDBRANCH  12  13
ENDBRANCH   6  12
TORSDOF 5
ENDMDL
MODEL 6
REMARK VINA RESULT:    -5.798      2.800      5.829
REMARK INTER + INTRA:          -7.768
REMARK INTER:                  -7.513
REMARK INTRA:                  -0.255
REMARK UNBOUND:                -0.446
REMARK  Name = 
REMARK  5 active torsions:
REMARK  status: ('A' for Active; 'I' for Inactive)
REMARK    1  A    between atoms: N_1  and  C_2
REMARK    2  A    between atoms: C_2  and  C_3
REMARK    3  A    between atoms: C_3  and  C_4
REMARK    4  A    between atoms: C_9  and  C_10
REMARK    5  A    between atoms: C_10  and  N_11
REMARK                            x       y       z     vdW  Elec       q    Type
REMARK                         _______ _______ _______ _____ _____    ______ ____
ROOT
ATOM      1  C   UNL     1      44.384   4.002  10.359  0.00  0.00    +0.000 A 
ATOM      2  C   UNL     1      44.313   2.950   9.434  0.00  0.00    +0.000 A 
ATOM      3  C   UNL     1      45.063   2.986   8.267  0.00  0.00    +0.000 A 
ATOM      4  C   UNL     1      45.839   4.101   8.025  0.00  0.00    +0.000 A 
ATOM      5  N   UNL     1      45.939   5.139   8.884  0.00  0.00    +0.000 NA
ATOM      6  C   UNL     1      45.239   5.075  10.047  0.00  0.00    +0.000 A 
ENDROOT
BRANCH   1   7
ATOM      7  C   UNL     1      43.580   3.887  11.639  0.00  0.00    +0.000 C 
BRANCH   7   8
ATOM      8  C   UNL     1      42.647   5.088  11.874  0.00  0.00    +0.000 C 
BRANCH   8   9
ATOM      9  N   UNL     1      42.635   5.480  13.282  0.00  0.00    +0.000 NA
ATOM     10  H   UNL     1      43.560   5.331  13.684  0.00  0.00    +0.000 HD
ATOM     11  H   UNL     1      41.996   4.879  13.802  0.00  0.00    +0.000 HD
ENDBRANCH   8   9
ENDBRANCH   7   8
ENDBRANCH   1   7
BRANCH   6  12
ATOM     12  C   UNL     1      45.618   6.108  11.081  0.00  0.00    +0.000 C 
BRANCH  12  13
ATOM     13  N   UNL     1      46.805   5.850  11.914  0.00  0.00    +0.000 N 
ATOM     14  C   UNL     1      46.689   4.992  13.004  0.00  0.00    +0.000 A 
ATOM     15  C   UNL     1      46.930   5.759  14.125  0.00  0.00    +0.000 A 
ATOM     16  C   UNL     1      47.648   6.901  13.690  0.00  0.00    +0.000 A 
ATOM     17  C   UNL     1      48.287   7.975  14.325  0.00  0.00    +0.000 A 
ATOM     18  C   UNL     1      49.032   8.842  13.527  0.00  0.00    +0.000 A 
ATOM     19  C   UNL     1      49.042   8.648  12.150  0.00  0.00    +0.000 A 
ATOM     20  N   UNL     1      48.327   7.712  11.476  0.00  0.00    +0.000 NA
ATOM     21  C   UNL     1      47.677   6.860  12.293  0.00  0.00    +0.000 A 
ENDBRANCH  12  13
ENDBRANCH   6  12
TORSDOF 5
ENDMDL
MODEL 7
REMARK VINA RESULT:    -5.760      1.991      2.978
REMARK INTER + INTRA:          -7.720
REMARK INTER:                  -8.732
REMARK INTRA:                   1.012
REMARK UNBOUND:                -0.446
REMARK  Name = 
REMARK  5 active torsions:
REMARK  status: ('A' for Active; 'I' for Inactive)
REMARK    1  A    between atoms: N_1  and  C_2
REMARK    2  A    between atoms: C_2  and  C_3
REMARK    3  A    between atoms: C_3  and  C_4
REMARK    4  A    between atoms: C_9  and  C_10
REMARK    5  A    between atoms: C_10  and  N_11
REMARK                            x       y       z     vdW  Elec       q    Type
REMARK                         _______ _______ _______ _____ _____    ______ ____
ROOT
ATOM      1  C   UNL     1      46.472   6.359  12.528  0.00  0.00    +0.000 A 
ATOM      2  C   UNL     1      47.024   5.872  13.722  0.00  0.00    +0.000 A 
ATOM      3  C   UNL     1      46.904   4.533  14.059  0.00  0.00    +0.000 A 
ATOM      4  C   UNL     1      46.191   3.708  13.212  0.00  0.00    +0.000 A 
ATOM      5  N   UNL     1      45.639   4.131  12.053  0.00  0.00    +0.000 NA
ATOM      6  C   UNL     1      45.802   5.435  11.706  0.00  0.00    +0.000 A 
ENDROOT
BRANCH   1   7
ATOM      7  C   UNL     1      46.676   7.823  12.188  0.00  0.00    +0.000 C 
BRANCH   7   8
ATOM      8  C   UNL     1      45.666   8.750  12.886  0.00  0.00    +0.000 C 
BRANCH   8   9
ATOM      9  N   UNL     1      44.536   9.057  12.011  0.00  0.00    +0.000 NA
ATOM     10  H   UNL     1      44.799   8.879  11.042  0.00  0.00    +0.000 HD
ATOM     11  H   UNL     1      44.314  10.050  12.069  0.00  0.00    +0.000 HD
ENDBRANCH   8   9
ENDBRANCH   7   8
ENDBRANCH   1   7
BRANCH   6  12
ATOM     12  C   UNL     1      45.429   5.771  10.282  0.00  0.00    +0.000 C 
BRANCH  12  13
ATOM     13  N   UNL     1      44.743   4.739   9.485  0.00  0.00    +0.000 N 
ATOM     14  C   UNL     1      43.783   3.941  10.100  0.00  0.00    +0.000 A 
ATOM     15  C   UNL     1      44.274   2.653  10.064  0.00  0.00    +0.000 A 
ATOM     16  C   UNL     1      45.245   2.614   9.033  0.00  0.00    +0.000 A 
ATOM     17  C   UNL     1      46.002   1.608   8.416  0.00  0.00    +0.000 A 
ATOM     18  C   UNL     1      46.761   1.967   7.304  0.00  0.00    +0.000 A 
ATOM     19  C   UNL     1      46.793   3.301   6.912  0.00  0.00    +0.000 A 
ATOM     20  N   UNL     1      46.194   4.332   7.559  0.00  0.00    +0.000 NA
ATOM     21  C   UNL     1      45.420   3.928   8.587  0.00  0.00    +0.000 A 
ENDBRANCH  12  13
ENDBRANCH   6  12
TORSDOF 5
ENDMDL
MODEL 8
REMARK VINA RESULT:    -5.588      4.350      7.178
REMARK INTER + INTRA:          -7.503
REMARK INTER:                  -6.880
REMARK INTRA:                  -0.623
REMARK UNBOUND:                -0.446
REMARK  Name = 
REMARK  5 active torsions:
REMARK  status: ('A' for Active; 'I' for Inactive)
REMARK    1  A    between atoms: N_1  and  C_2
REMARK    2  A    between atoms: C_2  and  C_3
REMARK    3  A    between atoms: C_3  and  C_4
REMARK    4  A    between atoms: C_9  and  C_10
REMARK    5  A    between atoms: C_10  and  N_11
REMARK                            x       y       z     vdW  Elec       q    Type
REMARK                         _______ _______ _______ _____ _____    ______ ____
ROOT
ATOM      1  C   UNL     1      45.495   6.050  12.277  0.00  0.00    +0.000 A 
ATOM      2  C   UNL     1      44.142   6.205  11.943  0.00  0.00    +0.000 A 
ATOM      3  C   UNL     1      43.207   5.257  12.332  0.00  0.00    +0.000 A 
ATOM      4  C   UNL     1      43.653   4.142  13.012  0.00  0.00    +0.000 A 
ATOM      5  N   UNL     1      44.946   3.947  13.354  0.00  0.00    +0.000 NA
ATOM      6  C   UNL     1      45.849   4.904  13.011  0.00  0.00    +0.000 A 
ENDROOT
BRANCH   1   7
ATOM      7  C   UNL     1      46.465   7.141  11.867  0.00  0.00    +0.000 C 
BRANCH   7   8
ATOM      8  C   UNL     1      45.958   8.555  12.201  0.00  0.00    +0.000 C 
BRANCH   8   9
ATOM      9  N   UNL     1      46.146   8.864  13.617  0.00  0.00    +0.000 NA
ATOM     10  H   UNL     1      46.625   8.088  14.073  0.00  0.00    +0.000 HD
ATOM     11  H   UNL     1      45.240   8.950  14.076  0.00  0.00    +0.000 HD
ENDBRANCH   8   9
ENDBRANCH   7   8
ENDBRANCH   1   7
BRANCH   6  12
ATOM     12  C   UNL     1      47.201   4.775  13.672  0.00  0.00    +0.000 C 
BRANCH  12  13
ATOM     13  N   UNL     1      47.373   5.352  15.016  0.00  0.00    +0.000 N 
ATOM     14  C   UNL     1      48.195   6.465  15.169  0.00  0.00    +0.000 A 
ATOM     15  C   UNL     1      49.243   6.061  15.969  0.00  0.00    +0.000 A 
ATOM     16  C   UNL     1      48.804   4.908  16.666  0.00  0.00    +0.000 A 
ATOM     17  C   UNL     1      49.323   4.109  17.695  0.00  0.00    +0.000 A 
ATOM     18  C   UNL     1      48.493   3.122  18.222  0.00  0.00    +0.000 A 
ATOM     19  C   UNL     1      47.237   2.927  17.659  0.00  0.00    +0.000 A 
ATOM     20  N   UNL     1      46.744   3.576  16.574  0.00  0.00    +0.000 NA
ATOM     21  C   UNL     1      47.555   4.563  16.142  0.00  0.00    +0.000 A 
ENDBRANCH  12  13
ENDBRANCH   6  12
TORSDOF 5
ENDMDL
MODEL 9
REMARK VINA RESULT:    -5.344      4.349      7.029
REMARK INTER + INTRA:          -7.195
REMARK INTER:                  -6.301
REMARK INTRA:                  -0.894
REMARK UNBOUND:                -0.446
REMARK  Name = 
REMARK  5 active torsions:
REMARK  status: ('A' for Active; 'I' for Inactive)
REMARK    1  A    between atoms: N_1  and  C_2
REMARK    2  A    between atoms: C_2  and  C_3
REMARK    3  A    between atoms: C_3  and  C_4
REMARK    4  A    between atoms: C_9  and  C_10
REMARK    5  A    between atoms: C_10  and  N_11
REMARK                            x       y       z     vdW  Elec       q    Type
REMARK                         _______ _______ _______ _____ _____    ______ ____
ROOT
ATOM      1  C   UNL     1      49.003   5.306  16.958  0.00  0.00    +0.000 A 
ATOM      2  C   UNL     1      49.933   4.959  17.948  0.00  0.00    +0.000 A 
ATOM      3  C   UNL     1      51.220   5.475  17.917  0.00  0.00    +0.000 A 
ATOM      4  C   UNL     1      51.568   6.298  16.866  0.00  0.00    +0.000 A 
ATOM      5  N   UNL     1      50.708   6.659  15.888  0.00  0.00    +0.000 NA
ATOM      6  C   UNL     1      49.435   6.188  15.951  0.00  0.00    +0.000 A 
ENDROOT
BRANCH   1   7
ATOM      7  C   UNL     1      47.596   4.750  17.068  0.00  0.00    +0.000 C 
BRANCH   7   8
ATOM      8  C   UNL     1      47.514   3.248  16.742  0.00  0.00    +0.000 C 
BRANCH   8   9
ATOM      9  N   UNL     1      47.835   2.993  15.340  0.00  0.00    +0.000 NA
ATOM     10  H   UNL     1      48.818   2.734  15.258  0.00  0.00    +0.000 HD
ATOM     11  H   UNL     1      47.718   3.848  14.797  0.00  0.00    +0.000 HD
ENDBRANCH   8   9
ENDBRANCH   7   8
ENDBRANCH   1   7
BRANCH   6  12
ATOM     12  C   UNL     1      48.457   6.856  15.013  0.00  0.00    +0.000 C 
BRANCH  12  13
ATOM     13  N   UNL     1      48.318   6.308  13.653  0.00  0.00    +0.000 N 
ATOM     14  C   UNL     1      48.987   6.934  12.605  0.00  0.00    +0.000 A 
ATOM     15  C   UNL     1      48.010   7.417  11.759  0.00  0.00    +0.000 A 
ATOM     16  C   UNL     1      46.832   6.678  12.033  0.00  0.00    +0.000 A 
ATOM     17  C   UNL     1      45.557   6.589  11.456  0.00  0.00    +0.000 A 
ATOM     18  C   UNL     1      44.700   5.603  11.943  0.00  0.00    +0.000 A 
ATOM     19  C   UNL     1      45.115   4.820  13.014  0.00  0.00    +0.000 A 
ATOM     20  N   UNL     1      46.278   4.961  13.697  0.00  0.00    +0.000 NA
ATOM     21  C   UNL     1      47.099   5.880  13.149  0.00  0.00    +0.000 A 
ENDBRANCH  12  13
ENDBRANCH   6  12
TORSDOF 5
ENDMDL
