MODEL 1
REMARK VINA RESULT:    -7.579      0.000      0.000
REMARK INTER + INTRA:          -9.194
REMARK INTER:                  -8.909
REMARK INTRA:                  -0.286
REMARK UNBOUND:                -0.286
REMARK  Name = 
REMARK  3 active torsions:
REMARK  status: ('A' for Active; 'I' for Inactive)
REMARK    1  A    between atoms: C_2  and  C_4
REMARK    2  A    between atoms: N_8  and  C_9
REMARK    3  A    between atoms: C_9  and  C_10
REMARK                            x       y       z     vdW  Elec       q    Type
REMARK                         _______ _______ _______ _____ _____    ______ ____
ROOT
ATOM      1  C   UNL     1      46.521   2.681   7.430  0.00  0.00    +0.000 A 
ATOM      2  C   UNL     1      46.027   1.834   8.393  0.00  0.00    +0.000 A 
ATOM      3  N   UNL     1      45.139   2.211   9.340  0.00  0.00    +0.000 NA
ATOM      4  C   UNL     1      44.748   3.496   9.334  0.00  0.00    +0.000 A 
ATOM      5  N   UNL     1      43.776   3.836  10.242  0.00  0.00    +0.000 N 
ATOM      6  N   UNL     1      45.215   4.408   8.468  0.00  0.00    +0.000 NA
ATOM      7  C   UNL     1      46.091   3.983   7.530  0.00  0.00    +0.000 A 
ATOM      8  H   UNL     1      43.621   3.078  10.891  0.00  0.00    +0.000 HD
ENDROOT
BRANCH   1  10
ATOM      9  N   UNL     1      47.402   2.979   5.188  0.00  0.00    +0.000 N 
ATOM     10  C   UNL     1      47.445   2.282   6.363  0.00  0.00    +0.000 C 
ATOM     11  O   UNL     1      48.257   1.383   6.534  0.00  0.00    +0.000 OA
ATOM     12  H   UNL     1      48.132   2.764   4.519  0.00  0.00    +0.000 HD
ATOM     13  H   UNL     1      46.953   3.881   5.095  0.00  0.00    +0.000 HD
ENDBRANCH   1  10
BRANCH   5  14
ATOM     14  C   UNL     1      43.815   5.167  10.801  0.00  0.00    +0.000 C 
BRANCH  14  15
ATOM     15  C   UNL     1      45.003   5.271  11.725  0.00  0.00    +0.000 A 
ATOM     16  C   UNL     1      45.114   4.448  12.852  0.00  0.00    +0.000 A 
ATOM     17  C   UNL     1      46.210   4.575  13.710  0.00  0.00    +0.000 A 
ATOM     18  C   UNL     1      47.197   5.525  13.450  0.00  0.00    +0.000 A 
ATOM     19  C   UNL     1      47.087   6.359  12.341  0.00  0.00    +0.000 A 
ATOM     20  C   UNL     1      45.993   6.236  11.484  0.00  0.00    +0.000 A 
ENDBRANCH  14  15
ENDBRANCH   5  14
TORSDOF 3
ENDMDL
MODEL 2
REMARK VINA RESULT:    -7.482      3.205      6.265
REMARK INTER + INTRA:          -9.080
REMARK INTER:                  -8.867
REMARK INTRA:                  -0.213
REMARK UNBOUND:                -0.286
REMARK  Name = 
REMARK  3 active torsions:
REMARK  status: ('A' for Active; 'I' for Inactive)
REMARK    1  A    between atoms: C_2  and  C_4
REMARK    2  A    between atoms: N_8  and  C_9
REMARK    3  A    between atoms: C_9  and  C_10
REMARK                            x       y       z     vdW  Elec       q    Type
REMARK                         _______ _______ _______ _____ _____    ______ ____
ROOT
ATOM      1  C   UNL     1      45.678   6.543  12.516  0.00  0.00    +0.000 A 
ATOM      2  C   UNL     1      45.360   5.412  13.228  0.00  0.00    +0.000 A 
ATOM      3  N   UNL     1      45.115   4.211  12.657  0.00  0.00    +0.000 NA
ATOM      4  C   UNL     1      45.169   4.149  11.316  0.00  0.00    +0.000 A 
ATOM      5  N   UNL     1      45.012   2.902  10.762  0.00  0.00    +0.000 N 
ATOM      6  N   UNL     1      45.420   5.211  10.535  0.00  0.00    +0.000 NA
ATOM      7  C   UNL     1      45.673   6.388  11.149  0.00  0.00    +0.000 A 
ATOM      8  H   UNL     1      44.715   2.241  11.465  0.00  0.00    +0.000 HD
ENDROOT
BRANCH   1  10
ATOM      9  N   UNL     1      47.094   7.919  13.928  0.00  0.00    +0.000 N 
ATOM     10  C   UNL     1      45.998   7.843  13.116  0.00  0.00    +0.000 C 
ATOM     11  O   UNL     1      45.329   8.837  12.863  0.00  0.00    +0.000 OA
ATOM     12  H   UNL     1      47.360   8.850  14.226  0.00  0.00    +0.000 HD
ATOM     13  H   UNL     1      47.818   7.212  13.950  0.00  0.00    +0.000 HD
ENDBRANCH   1  10
BRANCH   5  14
ATOM     14  C   UNL     1      44.357   2.816   9.478  0.00  0.00    +0.000 C 
BRANCH  14  15
ATOM     15  C   UNL     1      45.399   2.555   8.419  0.00  0.00    +0.000 A 
ATOM     16  C   UNL     1      45.701   3.522   7.451  0.00  0.00    +0.000 A 
ATOM     17  C   UNL     1      46.652   3.254   6.462  0.00  0.00    +0.000 A 
ATOM     18  C   UNL     1      47.301   2.020   6.432  0.00  0.00    +0.000 A 
ATOM     19  C   UNL     1      46.996   1.047   7.379  0.00  0.00    +0.000 A 
ATOM     20  C   UNL     1      46.046   1.311   8.366  0.00  0.00    +0.000 A 
ENDBRANCH  14  15
ENDBRANCH   5  14
TORSDOF 3
ENDMDL
MODEL 3
REMARK VINA RESULT:    -7.478      3.135      6.192
REMARK INTER + INTRA:          -9.075
REMARK INTER:                  -8.719
REMARK INTRA:                  -0.356
REMARK UNBOUND:                -0.286
REMARK  Name = 
REMARK  3 active torsions:
REMARK  status: ('A' for Active; 'I' for Inactive)
REMARK    1  A    between atoms: C_2  and  C_4
REMARK    2  A    between atoms: N_8  and  C_9
REMARK    3  A    between atoms: C_9  and  C_10
REMARK                            x       y       z     vdW  Elec       q    Type
REMARK                         _______ _______ _______ _____ _____    ______ ____
ROOT
ATOM      1  C   UNL     1      46.537   4.975  13.586  0.00  0.00    +0.000 A 
ATOM      2  C   UNL     1      46.964   5.827  12.596  0.00  0.00    +0.000 A 
ATOM      3  N   UNL     1      46.383   5.912  11.377  0.00  0.00    +0.000 NA
ATOM      4  C   UNL     1      45.347   5.091  11.135  0.00  0.00    +0.000 A 
ATOM      5  N   UNL     1      44.713   5.259   9.929  0.00  0.00    +0.000 N 
ATOM      6  N   UNL     1      44.894   4.190  12.020  0.00  0.00    +0.000 NA
ATOM      7  C   UNL     1      45.495   4.150  13.230  0.00  0.00    +0.000 A 
ATOM      8  H   UNL     1      45.242   5.883   9.338  0.00  0.00    +0.000 HD
ENDROOT
BRANCH   1  10
ATOM      9  N   UNL     1      47.869   5.960  15.359  0.00  0.00    +0.000 N 
ATOM     10  C   UNL     1      47.118   4.902  14.930  0.00  0.00    +0.000 C 
ATOM     11  O   UNL     1      46.901   3.944  15.661  0.00  0.00    +0.000 OA
ATOM     12  H   UNL     1      48.151   5.937  16.332  0.00  0.00    +0.000 HD
ATOM     13  H   UNL     1      47.852   6.869  14.914  0.00  0.00    +0.000 HD
ENDBRANCH   1  10
BRANCH   5  14
ATOM     14  C   UNL     1      44.155   4.088   9.295  0.00  0.00    +0.000 C 
BRANCH  14  15
ATOM     15  C   UNL     1      45.256   3.361   8.564  0.00  0.00    +0.000 A 
ATOM     16  C   UNL     1      46.085   4.033   7.656  0.00  0.00    +0.000 A 
ATOM     17  C   UNL     1      47.084   3.339   6.969  0.00  0.00    +0.000 A 
ATOM     18  C   UNL     1      47.258   1.972   7.180  0.00  0.00    +0.000 A 
ATOM     19  C   UNL     1      46.429   1.291   8.067  0.00  0.00    +0.000 A 
ATOM     20  C   UNL     1      45.429   1.981   8.752  0.00  0.00    +0.000 A 
ENDBRANCH  14  15
ENDBRANCH   5  14
TORSDOF 3
ENDMDL
MODEL 4
REMARK VINA RESULT:    -6.358      4.060      5.771
REMARK INTER + INTRA:          -7.759
REMARK INTER:                  -7.491
REMARK INTRA:                  -0.268
REMARK UNBOUND:                -0.286
REMARK  Name = 
REMARK  3 active torsions:
REMARK  status: ('A' for Active; 'I' for Inactive)
REMARK    1  A    between atoms: C_2  and  C_4
REMARK    2  A    between atoms: N_8  and  C_9
REMARK    3  A    between atoms: C_9  and  C_10
REMARK                            x       y       z     vdW  Elec       q    Type
REMARK                         _______ _______ _______ _____ _____    ______ ____
ROOT
ATOM      1  C   UNL     1      45.145   4.282  11.668  0.00  0.00    +0.000 A 
ATOM      2  C   UNL     1      45.368   5.550  12.149  0.00  0.00    +0.000 A 
ATOM      3  N   UNL     1      46.023   5.810  13.303  0.00  0.00    +0.000 NA
ATOM      4  C   UNL     1      46.452   4.753  14.013  0.00  0.00    +0.000 A 
ATOM      5  N   UNL     1      47.197   5.038  15.131  0.00  0.00    +0.000 N 
ATOM      6  N   UNL     1      46.235   3.479  13.650  0.00  0.00    +0.000 NA
ATOM      7  C   UNL     1      45.588   3.268  12.483  0.00  0.00    +0.000 A 
ATOM      8  H   UNL     1      47.167   6.028  15.330  0.00  0.00    +0.000 HD
ENDROOT
BRANCH   1  10
ATOM      9  N   UNL     1      44.721   4.811   9.337  0.00  0.00    +0.000 N 
ATOM     10  C   UNL     1      44.483   3.979  10.395  0.00  0.00    +0.000 C 
ATOM     11  O   UNL     1      43.774   2.989  10.272  0.00  0.00    +0.000 OA
ATOM     12  H   UNL     1      44.351   4.508   8.444  0.00  0.00    +0.000 HD
ATOM     13  H   UNL     1      45.491   5.466   9.310  0.00  0.00    +0.000 HD
ENDBRANCH   1  10
BRANCH   5  14
ATOM     14  C   UNL     1      47.078   4.149  16.262  0.00  0.00    +0.000 C 
BRANCH  14  15
ATOM     15  C   UNL     1      48.460   3.742  16.708  0.00  0.00    +0.000 A 
ATOM     16  C   UNL     1      48.873   2.405  16.646  0.00  0.00    +0.000 A 
ATOM     17  C   UNL     1      50.149   2.042  17.085  0.00  0.00    +0.000 A 
ATOM     18  C   UNL     1      51.015   3.009  17.592  0.00  0.00    +0.000 A 
ATOM     19  C   UNL     1      50.609   4.338  17.674  0.00  0.00    +0.000 A 
ATOM     20  C   UNL     1      49.335   4.702  17.239  0.00  0.00    +0.000 A 
ENDBRANCH  14  15
ENDBRANCH   5  14
TORSDOF 3
ENDMDL
MODEL 5
REMARK VINA RESULT:    -6.325      3.831      6.478
REMARK INTER + INTRA:          -7.721
REMARK INTER:                  -7.517
REMARK INTRA:                  -0.203
REMARK UNBOUND:                -0.286
REMARK  Name = 
REMARK  3 active torsions:
REMARK  status: ('A' for Active; 'I' for Inactive)
REMARK    1  A    between atoms: C_2  and  C_4
REMARK    2  A    between atoms: N_8  and  C_9
REMARK    3  A    between atoms: C_9  and  C_10
REMARK                            x       y       z     vdW  Elec       q    Type
REMARK                         _______ _______ _______ _____ _____    ______ ____
ROOT
ATOM      1  C   UNL     1      47.774   5.728  14.663  0.00  0.00    +0.000 A 
ATOM      2  C   UNL     1      47.387   4.499  15.142  0.00  0.00    +0.000 A 
ATOM      3  N   UNL     1      46.617   3.632  14.447  0.00  0.00    +0.000 NA
ATOM      4  C   UNL     1      46.201   4.024  13.231  0.00  0.00    +0.000 A 
ATOM      5  N   UNL     1      45.501   3.093  12.503  0.00  0.00    +0.000 N 
ATOM      6  N   UNL     1      46.484   5.224  12.702  0.00  0.00    +0.000 NA
ATOM      7  C   UNL     1      47.268   6.053  13.427  0.00  0.00    +0.000 A 
ATOM      8  H   UNL     1      45.271   2.297  13.080  0.00  0.00    +0.000 HD
ENDROOT
BRANCH   1  10
ATOM      9  N   UNL     1      48.227   7.955  15.516  0.00  0.00    +0.000 N 
ATOM     10  C   UNL     1      48.650   6.663  15.378  0.00  0.00    +0.000 C 
ATOM     11  O   UNL     1      49.705   6.288  15.873  0.00  0.00    +0.000 OA
ATOM     12  H   UNL     1      48.791   8.543  16.118  0.00  0.00    +0.000 HD
ATOM     13  H   UNL     1      47.268   8.243  15.370  0.00  0.00    +0.000 HD
ENDBRANCH   1  10
BRANCH   5  14
ATOM     14  C   UNL     1      44.463   3.572  11.621  0.00  0.00    +0.000 C 
BRANCH  14  15
ATOM     15  C   UNL     1      44.951   3.472  10.198  0.00  0.00    +0.000 A 
ATOM     16  C   UNL     1      45.099   2.227   9.573  0.00  0.00    +0.000 A 
ATOM     17  C   UNL     1      45.575   2.151   8.261  0.00  0.00    +0.000 A 
ATOM     18  C   UNL     1      45.909   3.314   7.569  0.00  0.00    +0.000 A 
ATOM     19  C   UNL     1      45.781   4.555   8.187  0.00  0.00    +0.000 A 
ATOM     20  C   UNL     1      45.309   4.634   9.497  0.00  0.00    +0.000 A 
ENDBRANCH  14  15
ENDBRANCH   5  14
TORSDOF 3
ENDMDL
MODEL 6
REMARK VINA RESULT:    -6.063      5.804      8.440
REMARK INTER + INTRA:          -7.412
REMARK INTER:                  -7.187
REMARK INTRA:                  -0.224
REMARK UNBOUND:                -0.286
REMARK  Name = 
REMARK  3 active torsions:
REMARK  status: ('A' for Active; 'I' for Inactive)
REMARK    1  A    between atoms: C_2  and  C_4
REMARK    2  A    between atoms: N_8  and  C_9
REMARK    3  A    between atoms: C_9  and  C_10
REMARK                            x       y       z     vdW  Elec       q    Type
REMARK                         _______ _______ _______ _____ _____    ______ ____
ROOT
ATOM      1  C   UNL     1      48.545   4.322  18.192  0.00  0.00    +0.000 A 
ATOM      2  C   UNL     1      47.585   3.379  17.913  0.00  0.00    +0.000 A 
ATOM      3  N   UNL     1      46.991   3.248  16.705  0.00  0.00    +0.000 NA
ATOM      4  C   UNL     1      47.360   4.113  15.745  0.00  0.00    +0.000 A 
ATOM      5  N   UNL     1      46.816   3.903  14.502  0.00  0.00    +0.000 N 
ATOM      6  N   UNL     1      48.248   5.100  15.939  0.00  0.00    +0.000 NA
ATOM      7  C   UNL     1      48.827   5.184  17.158  0.00  0.00    +0.000 A 
ATOM      8  H   UNL     1      46.086   3.208  14.551  0.00  0.00    +0.000 HD
ENDROOT
BRANCH   1  10
ATOM      9  N   UNL     1      48.624   3.942  20.587  0.00  0.00    +0.000 N 
ATOM     10  C   UNL     1      49.239   4.450  19.478  0.00  0.00    +0.000 C 
ATOM     11  O   UNL     1      50.351   4.957  19.548  0.00  0.00    +0.000 OA
ATOM     12  H   UNL     1      49.179   3.934  21.435  0.00  0.00    +0.000 HD
ATOM     13  H   UNL     1      47.853   3.289  20.544  0.00  0.00    +0.000 HD
ENDBRANCH   1  10
BRANCH   5  14
ATOM     14  C   UNL     1      46.551   5.061  13.681  0.00  0.00    +0.000 C 
BRANCH  14  15
ATOM     15  C   UNL     1      45.307   4.806  12.868  0.00  0.00    +0.000 A 
ATOM     16  C   UNL     1      44.340   5.805  12.696  0.00  0.00    +0.000 A 
ATOM     17  C   UNL     1      43.182   5.543  11.959  0.00  0.00    +0.000 A 
ATOM     18  C   UNL     1      42.981   4.284  11.396  0.00  0.00    +0.000 A 
ATOM     19  C   UNL     1      43.927   3.279  11.576  0.00  0.00    +0.000 A 
ATOM     20  C   UNL     1      45.083   3.537  12.313  0.00  0.00    +0.000 A 
ENDBRANCH  14  15
ENDBRANCH   5  14
TORSDOF 3
ENDMDL
MODEL 7
REMARK VINA RESULT:    -5.769      3.553      5.142
REMARK INTER + INTRA:          -7.066
REMARK INTER:                  -6.780
REMARK INTRA:                  -0.287
REMARK UNBOUND:                -0.286
REMARK  Name = 
REMARK  3 active torsions:
REMARK  status: ('A' for Active; 'I' for Inactive)
REMARK    1  A    between atoms: C_2  and  C_4
REMARK    2  A    between atoms: N_8  and  C_9
REMARK    3  A    between atoms: C_9  and  C_10
REMARK                            x       y       z     vdW  Elec       q    Type
REMARK                         _______ _______ _______ _____ _____    ______ ____
ROOT
ATOM      1  C   UNL     1      43.954   4.175  11.270  0.00  0.00    +0.000 A 
ATOM      2  C   UNL     1      42.999   5.149  11.102  0.00  0.00    +0.000 A 
ATOM      3  N   UNL     1      43.225   6.465  11.315  0.00  0.00    +0.000 NA
ATOM      4  C   UNL     1      44.452   6.814  11.736  0.00  0.00    +0.000 A 
ATOM      5  N   UNL     1      44.689   8.162  11.855  0.00  0.00    +0.000 N 
ATOM      6  N   UNL     1      45.432   5.930  11.978  0.00  0.00    +0.000 NA
ATOM      7  C   UNL     1      45.166   4.627  11.738  0.00  0.00    +0.000 A 
ATOM      8  H   UNL     1      43.828   8.680  11.755  0.00  0.00    +0.000 HD
ENDROOT
BRANCH   1  10
ATOM      9  N   UNL     1      44.505   2.171  10.016  0.00  0.00    +0.000 N 
ATOM     10  C   UNL     1      43.747   2.749  10.997  0.00  0.00    +0.000 C 
ATOM     11  O   UNL     1      42.954   2.088  11.653  0.00  0.00    +0.000 OA
ATOM     12  H   UNL     1      44.429   1.163   9.936  0.00  0.00    +0.000 HD
ATOM     13  H   UNL     1      45.344   2.594   9.642  0.00  0.00    +0.000 HD
ENDBRANCH   1  10
BRANCH   5  14
ATOM     14  C   UNL     1      45.585   8.596  12.900  0.00  0.00    +0.000 C 
BRANCH  14  15
ATOM     15  C   UNL     1      46.785   9.256  12.267  0.00  0.00    +0.000 A 
ATOM     16  C   UNL     1      47.997   8.568  12.128  0.00  0.00    +0.000 A 
ATOM     17  C   UNL     1      49.105   9.203  11.560  0.00  0.00    +0.000 A 
ATOM     18  C   UNL     1      49.011  10.527  11.135  0.00  0.00    +0.000 A 
ATOM     19  C   UNL     1      47.816  11.225  11.284  0.00  0.00    +0.000 A 
ATOM     20  C   UNL     1      46.709  10.595  11.852  0.00  0.00    +0.000 A 
ENDBRANCH  14  15
ENDBRANCH   5  14
TORSDOF 3
ENDMDL
MODEL 8
REMARK VINA RESULT:    -5.560      3.570      5.248
REMARK INTER + INTRA:          -6.821
REMARK INTER:                  -6.575
REMARK INTRA:                  -0.247
REMARK UNBOUND:                -0.286
REMARK  Name = 
REMARK  3 active torsions:
REMARK  status: ('A' for Active; 'I' for Inactive)
REMARK    1  A    between atoms: C_2  and  C_4
REMARK    2  A    between atoms: N_8  and  C_9
REMARK    3  A    between atoms: C_9  and  C_10
REMARK                            x       y       z     vdW  Elec       q    Type
REMARK                         _______ _______ _______ _____ _____    ______ ____
ROOT
ATOM      1  C   UNL     1      44.985   4.198  11.219  0.00  0.00    +0.000 A 
ATOM      2  C   UNL     1      45.281   3.523  12.379  0.00  0.00    +0.000 A 
ATOM      3  N   UNL     1      45.959   4.071  13.413  0.00  0.00    +0.000 NA
ATOM      4  C   UNL     1      46.376   5.340  13.266  0.00  0.00    +0.000 A 
ATOM      5  N   UNL     1      46.978   5.908  14.362  0.00  0.00    +0.000 N 
ATOM      6  N   UNL     1      46.180   6.060  12.151  0.00  0.00    +0.000 NA
ATOM      7  C   UNL     1      45.485   5.476  11.149  0.00  0.00    +0.000 A 
ATOM      8  H   UNL     1      47.156   5.208  15.067  0.00  0.00    +0.000 HD
ENDROOT
BRANCH   1  10
ATOM      9  N   UNL     1      43.994   4.436   9.016  0.00  0.00    +0.000 N 
ATOM     10  C   UNL     1      44.207   3.641  10.107  0.00  0.00    +0.000 C 
ATOM     11  O   UNL     1      43.800   2.487  10.136  0.00  0.00    +0.000 OA
ATOM     12  H   UNL     1      43.564   3.985   8.218  0.00  0.00    +0.000 HD
ATOM     13  H   UNL     1      44.525   5.276   8.830  0.00  0.00    +0.000 HD
ENDBRANCH   1  10
BRANCH   5  14
ATOM     14  C   UNL     1      48.029   6.870  14.127  0.00  0.00    +0.000 C 
BRANCH  14  15
ATOM     15  C   UNL     1      49.073   6.722  15.206  0.00  0.00    +0.000 A 
ATOM     16  C   UNL     1      50.334   7.317  15.076  0.00  0.00    +0.000 A 
ATOM     17  C   UNL     1      51.297   7.149  16.075  0.00  0.00    +0.000 A 
ATOM     18  C   UNL     1      51.008   6.384  17.204  0.00  0.00    +0.000 A 
ATOM     19  C   UNL     1      49.763   5.775  17.335  0.00  0.00    +0.000 A 
ATOM     20  C   UNL     1      48.801   5.938  16.338  0.00  0.00    +0.000 A 
ENDBRANCH  14  15
ENDBRANCH   5  14
TORSDOF 3
ENDMDL
MODEL 9
REMARK VINA RESULT:    -5.344      3.434      5.022
REMARK INTER + INTRA:          -6.567
REMARK INTER:                  -6.267
REMARK INTRA:                  -0.300
REMARK UNBOUND:                -0.286
REMARK  Name = 
REMARK  3 active torsions:
REMARK  status: ('A' for Active; 'I' for Inactive)
REMARK    1  A    between atoms: C_2  and  C_4
REMARK    2  A    between atoms: N_8  and  C_9
REMARK    3  A    between atoms: C_9  and  C_10
REMARK                            x       y       z     vdW  Elec       q    Type
REMARK                         _______ _______ _______ _____ _____    ______ ____
ROOT
ATOM      1  C   UNL     1      44.656   3.994  11.586  0.00  0.00    +0.000 A 
ATOM      2  C   UNL     1      45.422   3.906  12.723  0.00  0.00    +0.000 A 
ATOM      3  N   UNL     1      46.016   4.969  13.312  0.00  0.00    +0.000 NA
ATOM      4  C   UNL     1      45.853   6.164  12.721  0.00  0.00    +0.000 A 
ATOM      5  N   UNL     1      46.383   7.243  13.384  0.00  0.00    +0.000 N 
ATOM      6  N   UNL     1      45.167   6.339  11.581  0.00  0.00    +0.000 NA
ATOM      7  C   UNL     1      44.579   5.252  11.036  0.00  0.00    +0.000 A 
ATOM      8  H   UNL     1      46.963   6.934  14.151  0.00  0.00    +0.000 HD
ENDROOT
BRANCH   1  10
ATOM      9  N   UNL     1      44.526   2.303   9.849  0.00  0.00    +0.000 N 
ATOM     10  C   UNL     1      43.961   2.864  10.960  0.00  0.00    +0.000 C 
ATOM     11  O   UNL     1      42.931   2.410  11.442  0.00  0.00    +0.000 OA
ATOM     12  H   UNL     1      44.092   1.451   9.514  0.00  0.00    +0.000 HD
ATOM     13  H   UNL     1      45.488   2.458   9.579  0.00  0.00    +0.000 HD
ENDBRANCH   1  10
BRANCH   5  14
ATOM     14  C   UNL     1      46.893   8.335  12.590  0.00  0.00    +0.000 C 
BRANCH  14  15
ATOM     15  C   UNL     1      48.400   8.319  12.652  0.00  0.00    +0.000 A 
ATOM     16  C   UNL     1      49.070   8.238  13.880  0.00  0.00    +0.000 A 
ATOM     17  C   UNL     1      50.467   8.248  13.920  0.00  0.00    +0.000 A 
ATOM     18  C   UNL     1      51.201   8.344  12.739  0.00  0.00    +0.000 A 
ATOM     19  C   UNL     1      50.545   8.442  11.515  0.00  0.00    +0.000 A 
ATOM     20  C   UNL     1      49.151   8.434  11.472  0.00  0.00    +0.000 A 
ENDBRANCH  14  15
ENDBRANCH   5  14
TORSDOF 3
ENDMDL
