MODEL 1
REMARK VINA RESULT:    -8.200      0.000      0.000
REMARK INTER + INTRA:         -12.071
REMARK INTER:                 -11.077
REMARK INTRA:                  -0.995
REMARK UNBOUND:                -0.995
REMARK  Name = 
REMARK  7 active torsions:
REMARK  status: ('A' for Active; 'I' for Inactive)
REMARK    1  A    between atoms: C_1  and  C_2
REMARK    2  A    between atoms: C_6  and  C_7
REMARK    3  A    between atoms: N_9  and  C_10
REMARK    4  A    between atoms: C_10  and  C_11
REMARK    5  A    between atoms: C_14  and  C_15
REMARK    6  A    between atoms: C_15  and  N_16
REMARK    7  A    between atoms: C_17  and  C_19
REMARK                            x       y       z     vdW  Elec       q    Type
REMARK                         _______ _______ _______ _____ _____    ______ ____
ROOT
ATOM      1  C   UNL     1      45.192   6.529  11.569  0.00  0.00    +0.000 A 
ATOM      2  C   UNL     1      46.409   6.000  12.022  0.00  0.00    +0.000 A 
ATOM      3  C   UNL     1      47.257   6.746  12.857  0.00  0.00    +0.000 A 
ATOM      4  C   UNL     1      46.901   8.033  13.281  0.00  0.00    +0.000 A 
ATOM      5  C   UNL     1      45.697   8.573  12.808  0.00  0.00    +0.000 A 
ATOM      6  C   UNL     1      44.846   7.825  11.978  0.00  0.00    +0.000 A 
ENDROOT
BRANCH   1   7
ATOM      7  C   UNL     1      44.300   5.735  10.641  0.00  0.00    +0.000 C 
BRANCH   7  10
ATOM      8  C   UNL     1      44.779   3.626   9.434  0.00  0.00    +0.000 C 
ATOM      9  O   UNL     1      43.953   2.975  10.059  0.00  0.00    +0.000 OA
ATOM     10  N   UNL     1      45.026   4.971   9.654  0.00  0.00    +0.000 N 
ATOM     11  H   UNL     1      45.719   5.414   9.057  0.00  0.00    +0.000 HD
BRANCH   8  17
ATOM     12  C   UNL     1      46.770  -0.412   7.621  0.00  0.00    +0.000 C 
ATOM     13  C   UNL     1      46.562   1.065   7.486  0.00  0.00    +0.000 A 
ATOM     14  C   UNL     1      47.114   1.771   6.420  0.00  0.00    +0.000 A 
ATOM     15  C   UNL     1      46.899   3.144   6.337  0.00  0.00    +0.000 A 
ATOM     16  C   UNL     1      46.138   3.774   7.317  0.00  0.00    +0.000 A 
ATOM     17  C   UNL     1      45.618   3.001   8.348  0.00  0.00    +0.000 A 
ATOM     18  N   UNL     1      45.818   1.657   8.453  0.00  0.00    +0.000 NA
ENDBRANCH   8  17
ENDBRANCH   7  10
ENDBRANCH   1   7
BRANCH   4  19
ATOM     19  C   UNL     1      47.784   8.806  14.234  0.00  0.00    +0.000 C 
BRANCH  19  20
ATOM     20  N   UNL     1      48.095   8.062  15.429  0.00  0.00    +0.000 N 
ATOM     21  C   UNL     1      49.331   7.486  15.616  0.00  0.00    +0.000 C 
ATOM     22  O   UNL     1      50.247   7.624  14.810  0.00  0.00    +0.000 OA
ATOM     23  H   UNL     1      47.310   7.740  15.985  0.00  0.00    +0.000 HD
BRANCH  21  24
ATOM     24  C   UNL     1      49.520   6.738  16.867  0.00  0.00    +0.000 A 
ATOM     25  C   UNL     1      50.316   7.258  17.880  0.00  0.00    +0.000 A 
ATOM     26  S   UNL     1      50.395   6.263  19.265  0.00  0.00    +0.000 S 
ATOM     27  C   UNL     1      49.403   5.085  18.544  0.00  0.00    +0.000 A 
ATOM     28  N   UNL     1      49.089   3.934  19.200  0.00  0.00    +0.000 NA
ATOM     29  C   UNL     1      48.338   3.126  18.527  0.00  0.00    +0.000 A 
ATOM     30  N   UNL     1      47.870   3.364  17.263  0.00  0.00    +0.000 N 
ATOM     31  C   UNL     1      48.143   4.519  16.570  0.00  0.00    +0.000 A 
ATOM     32  O   UNL     1      47.671   4.720  15.457  0.00  0.00    +0.000 OA
ATOM     33  C   UNL     1      48.995   5.458  17.275  0.00  0.00    +0.000 A 
ATOM     34  H   UNL     1      47.270   2.702  16.796  0.00  0.00    +0.000 HD
ENDBRANCH  21  24
ENDBRANCH  19  20
ENDBRANCH   4  19
TORSDOF 6
ENDMDL
MODEL 2
REMARK VINA RESULT:    -8.118      2.541      2.967
REMARK INTER + INTRA:         -11.961
REMARK INTER:                 -11.042
REMARK INTRA:                  -0.918
REMARK UNBOUND:                -0.995
REMARK  Name = 
REMARK  7 active torsions:
REMARK  status: ('A' for Active; 'I' for Inactive)
REMARK    1  A    between atoms: C_1  and  C_2
REMARK    2  A    between atoms: C_6  and  C_7
REMARK    3  A    between atoms: N_9  and  C_10
REMARK    4  A    between atoms: C_10  and  C_11
REMARK    5  A    between atoms: C_14  and  C_15
REMARK    6  A    between atoms: C_15  and  N_16
REMARK    7  A    between atoms: C_17  and  C_19
REMARK                            x       y       z     vdW  Elec       q    Type
REMARK                         _______ _______ _______ _____ _____    ______ ____
ROOT
ATOM      1  C   UNL     1      46.221   5.044  13.601  0.00  0.00    +0.000 A 
ATOM      2  C   UNL     1      46.653   4.431  14.785  0.00  0.00    +0.000 A 
ATOM      3  C   UNL     1      47.676   4.998  15.562  0.00  0.00    +0.000 A 
ATOM      4  C   UNL     1      48.279   6.206  15.189  0.00  0.00    +0.000 A 
ATOM      5  C   UNL     1      47.866   6.807  13.992  0.00  0.00    +0.000 A 
ATOM      6  C   UNL     1      46.838   6.243  13.217  0.00  0.00    +0.000 A 
ENDROOT
BRANCH   1   7
ATOM      7  C   UNL     1      45.143   4.410  12.749  0.00  0.00    +0.000 C 
BRANCH   7  10
ATOM      8  C   UNL     1      44.774   3.368  10.532  0.00  0.00    +0.000 C 
ATOM      9  O   UNL     1      43.610   3.071  10.766  0.00  0.00    +0.000 OA
ATOM     10  N   UNL     1      45.600   4.012  11.439  0.00  0.00    +0.000 N 
ATOM     11  H   UNL     1      46.541   4.231  11.125  0.00  0.00    +0.000 HD
BRANCH   8  17
ATOM     12  C   UNL     1      46.716  -0.009   7.638  0.00  0.00    +0.000 C 
ATOM     13  C   UNL     1      46.341   1.429   7.829  0.00  0.00    +0.000 A 
ATOM     14  C   UNL     1      46.581   2.369   6.830  0.00  0.00    +0.000 A 
ATOM     15  C   UNL     1      46.221   3.696   7.052  0.00  0.00    +0.000 A 
ATOM     16  C   UNL     1      45.629   4.047   8.261  0.00  0.00    +0.000 A 
ATOM     17  C   UNL     1      45.418   3.051   9.207  0.00  0.00    +0.000 A 
ATOM     18  N   UNL     1      45.766   1.747   9.015  0.00  0.00    +0.000 NA
ENDBRANCH   8  17
ENDBRANCH   7  10
ENDBRANCH   1   7
BRANCH   4  19
ATOM     19  C   UNL     1      49.333   6.848  16.062  0.00  0.00    +0.000 C 
BRANCH  19  20
ATOM     20  N   UNL     1      50.322   5.904  16.522  0.00  0.00    +0.000 N 
ATOM     21  C   UNL     1      50.497   5.642  17.861  0.00  0.00    +0.000 C 
ATOM     22  O   UNL     1      49.788   6.147  18.727  0.00  0.00    +0.000 OA
ATOM     23  H   UNL     1      51.058   5.658  15.869  0.00  0.00    +0.000 HD
BRANCH  21  24
ATOM     24  C   UNL     1      51.549   4.675  18.204  0.00  0.00    +0.000 A 
ATOM     25  C   UNL     1      52.685   5.089  18.888  0.00  0.00    +0.000 A 
ATOM     26  S   UNL     1      53.781   3.824  19.222  0.00  0.00    +0.000 S 
ATOM     27  C   UNL     1      52.796   2.686  18.430  0.00  0.00    +0.000 A 
ATOM     28  N   UNL     1      53.171   1.382  18.329  0.00  0.00    +0.000 NA
ATOM     29  C   UNL     1      52.332   0.634  17.690  0.00  0.00    +0.000 A 
ATOM     30  N   UNL     1      51.153   1.070  17.149  0.00  0.00    +0.000 N 
ATOM     31  C   UNL     1      50.722   2.372  17.245  0.00  0.00    +0.000 A 
ATOM     32  O   UNL     1      49.640   2.719  16.787  0.00  0.00    +0.000 OA
ATOM     33  C   UNL     1      51.635   3.259  17.941  0.00  0.00    +0.000 A 
ATOM     34  H   UNL     1      50.528   0.433  16.679  0.00  0.00    +0.000 HD
ENDBRANCH  21  24
ENDBRANCH  19  20
ENDBRANCH   4  19
TORSDOF 6
ENDMDL
MODEL 3
REMARK VINA RESULT:    -7.920      1.811      2.118
REMARK INTER + INTRA:         -11.693
REMARK INTER:                 -10.937
REMARK INTRA:                  -0.756
REMARK UNBOUND:                -0.995
REMARK  Name = 
REMARK  7 active torsions:
REMARK  status: ('A' for Active; 'I' for Inactive)
REMARK    1  A    between atoms: C_1  and  C_2
REMARK    2  A    between atoms: C_6  and  C_7
REMARK    3  A    between atoms: N_9  and  C_10
REMARK    4  A    between atoms: C_10  and  C_11
REMARK    5  A    between atoms: C_14  and  C_15
REMARK    6  A    between atoms: C_15  and  N_16
REMARK    7  A    between atoms: C_17  and  C_19
REMARK                            x       y       z     vdW  Elec       q    Type
REMARK                         _______ _______ _______ _____ _____    ______ ____
ROOT
ATOM      1  C   UNL     1      45.478   6.603  11.758  0.00  0.00    +0.000 A 
ATOM      2  C   UNL     1      45.011   7.828  12.255  0.00  0.00    +0.000 A 
ATOM      3  C   UNL     1      45.840   8.662  13.023  0.00  0.00    +0.000 A 
ATOM      4  C   UNL     1      47.166   8.304  13.296  0.00  0.00    +0.000 A 
ATOM      5  C   UNL     1      47.627   7.068  12.822  0.00  0.00    +0.000 A 
ATOM      6  C   UNL     1      46.800   6.237  12.049  0.00  0.00    +0.000 A 
ENDROOT
BRANCH   1   7
ATOM      7  C   UNL     1      44.570   5.693  10.962  0.00  0.00    +0.000 C 
BRANCH   7  10
ATOM      8  C   UNL     1      44.797   3.711   9.493  0.00  0.00    +0.000 C 
ATOM      9  O   UNL     1      43.797   3.160   9.932  0.00  0.00    +0.000 OA
ATOM     10  N   UNL     1      45.257   4.939   9.940  0.00  0.00    +0.000 N 
ATOM     11  H   UNL     1      46.086   5.311   9.485  0.00  0.00    +0.000 HD
BRANCH   8  17
ATOM     12  C   UNL     1      46.735  -0.342   7.655  0.00  0.00    +0.000 C 
ATOM     13  C   UNL     1      46.550   1.140   7.533  0.00  0.00    +0.000 A 
ATOM     14  C   UNL     1      47.119   1.846   6.476  0.00  0.00    +0.000 A 
ATOM     15  C   UNL     1      46.927   3.224   6.405  0.00  0.00    +0.000 A 
ATOM     16  C   UNL     1      46.171   3.857   7.386  0.00  0.00    +0.000 A 
ATOM     17  C   UNL     1      45.632   3.083   8.407  0.00  0.00    +0.000 A 
ATOM     18  N   UNL     1      45.810   1.735   8.500  0.00  0.00    +0.000 NA
ENDBRANCH   8  17
ENDBRANCH   7  10
ENDBRANCH   1   7
BRANCH   4  19
ATOM     19  C   UNL     1      48.076   9.235  14.066  0.00  0.00    +0.000 C 
BRANCH  19  20
ATOM     20  N   UNL     1      47.813   9.219  15.484  0.00  0.00    +0.000 N 
ATOM     21  C   UNL     1      48.594   8.493  16.352  0.00  0.00    +0.000 C 
ATOM     22  O   UNL     1      49.585   7.871  15.979  0.00  0.00    +0.000 OA
ATOM     23  H   UNL     1      46.891   9.520  15.782  0.00  0.00    +0.000 HD
BRANCH  21  24
ATOM     24  C   UNL     1      48.214   8.543  17.770  0.00  0.00    +0.000 A 
ATOM     25  C   UNL     1      48.077   9.766  18.416  0.00  0.00    +0.000 A 
ATOM     26  S   UNL     1      47.605   9.626  20.050  0.00  0.00    +0.000 S 
ATOM     27  C   UNL     1      47.606   7.927  19.965  0.00  0.00    +0.000 A 
ATOM     28  N   UNL     1      47.308   7.169  21.054  0.00  0.00    +0.000 NA
ATOM     29  C   UNL     1      47.361   5.894  20.846  0.00  0.00    +0.000 A 
ATOM     30  N   UNL     1      47.680   5.311  19.650  0.00  0.00    +0.000 N 
ATOM     31  C   UNL     1      47.968   6.035  18.519  0.00  0.00    +0.000 A 
ATOM     32  O   UNL     1      48.207   5.481  17.452  0.00  0.00    +0.000 OA
ATOM     33  C   UNL     1      47.937   7.474  18.699  0.00  0.00    +0.000 A 
ATOM     34  H   UNL     1      47.686   4.308  19.545  0.00  0.00    +0.000 HD
ENDBRANCH  21  24
ENDBRANCH  19  20
ENDBRANCH   4  19
TORSDOF 6
ENDMDL
MODEL 4
REMARK VINA RESULT:    -7.545      1.412      2.152
REMARK INTER + INTRA:         -11.187
REMARK INTER:                 -10.380
REMARK INTRA:                  -0.807
REMARK UNBOUND:                -0.995
REMARK  Name = 
REMARK  7 active torsions:
REMARK  status: ('A' for Active; 'I' for Inactive)
REMARK    1  A    between atoms: C_1  and  C_2
REMARK    2  A    between atoms: C_6  and  C_7
REMARK    3  A    between atoms: N_9  and  C_10
REMARK    4  A    between atoms: C_10  and  C_11
REMARK    5  A    between atoms: C_14  and  C_15
REMARK    6  A    between atoms: C_15  and  N_16
REMARK    7  A    between atoms: C_17  and  C_19
REMARK                            x       y       z     vdW  Elec       q    Type
REMARK                         _______ _______ _______ _____ _____    ______ ____
ROOT
ATOM      1  C   UNL     1      45.336   6.598  11.637  0.00  0.00    +0.000 A 
ATOM      2  C   UNL     1      46.547   5.993  12.003  0.00  0.00    +0.000 A 
ATOM      3  C   UNL     1      47.436   6.629  12.885  0.00  0.00    +0.000 A 
ATOM      4  C   UNL     1      47.129   7.877  13.442  0.00  0.00    +0.000 A 
ATOM      5  C   UNL     1      45.930   8.494  13.057  0.00  0.00    +0.000 A 
ATOM      6  C   UNL     1      45.038   7.856  12.179  0.00  0.00    +0.000 A 
ENDROOT
BRANCH   1   7
ATOM      7  C   UNL     1      44.399   5.924  10.659  0.00  0.00    +0.000 C 
BRANCH   7  10
ATOM      8  C   UNL     1      44.934   3.773   9.552  0.00  0.00    +0.000 C 
ATOM      9  O   UNL     1      44.246   3.107  10.314  0.00  0.00    +0.000 OA
ATOM     10  N   UNL     1      45.078   5.148   9.648  0.00  0.00    +0.000 N 
ATOM     11  H   UNL     1      45.656   5.597   8.945  0.00  0.00    +0.000 HD
BRANCH   8  17
ATOM     12  C   UNL     1      46.739  -0.297   7.621  0.00  0.00    +0.000 C 
ATOM     13  C   UNL     1      46.556   1.185   7.503  0.00  0.00    +0.000 A 
ATOM     14  C   UNL     1      47.066   1.884   6.412  0.00  0.00    +0.000 A 
ATOM     15  C   UNL     1      46.877   3.263   6.347  0.00  0.00    +0.000 A 
ATOM     16  C   UNL     1      46.182   3.903   7.368  0.00  0.00    +0.000 A 
ATOM     17  C   UNL     1      45.700   3.136   8.421  0.00  0.00    +0.000 A 
ATOM     18  N   UNL     1      45.877   1.788   8.510  0.00  0.00    +0.000 NA
ENDBRANCH   8  17
ENDBRANCH   7  10
ENDBRANCH   1   7
BRANCH   4  19
ATOM     19  C   UNL     1      48.057   8.527  14.443  0.00  0.00    +0.000 C 
BRANCH  19  20
ATOM     20  N   UNL     1      48.166   7.775  15.668  0.00  0.00    +0.000 N 
ATOM     21  C   UNL     1      49.217   6.916  15.893  0.00  0.00    +0.000 C 
ATOM     22  O   UNL     1      50.142   6.789  15.095  0.00  0.00    +0.000 OA
ATOM     23  H   UNL     1      47.324   7.682  16.225  0.00  0.00    +0.000 HD
BRANCH  21  24
ATOM     24  C   UNL     1      49.207   6.193  17.171  0.00  0.00    +0.000 A 
ATOM     25  C   UNL     1      48.632   4.931  17.258  0.00  0.00    +0.000 A 
ATOM     26  S   UNL     1      48.739   4.237  18.814  0.00  0.00    +0.000 S 
ATOM     27  C   UNL     1      49.520   5.614  19.436  0.00  0.00    +0.000 A 
ATOM     28  N   UNL     1      49.876   5.686  20.748  0.00  0.00    +0.000 NA
ATOM     29  C   UNL     1      50.450   6.795  21.083  0.00  0.00    +0.000 A 
ATOM     30  N   UNL     1      50.702   7.833  20.227  0.00  0.00    +0.000 N 
ATOM     31  C   UNL     1      50.379   7.797  18.892  0.00  0.00    +0.000 A 
ATOM     32  O   UNL     1      50.660   8.727  18.144  0.00  0.00    +0.000 OA
ATOM     33  C   UNL     1      49.720   6.578  18.464  0.00  0.00    +0.000 A 
ATOM     34  H   UNL     1      51.172   8.668  20.545  0.00  0.00    +0.000 HD
ENDBRANCH  21  24
ENDBRANCH  19  20
ENDBRANCH   4  19
TORSDOF 6
ENDMDL
MODEL 5
REMARK VINA RESULT:    -7.191      2.305      3.055
REMARK INTER + INTRA:         -10.708
REMARK INTER:                  -9.721
REMARK INTRA:                  -0.987
REMARK UNBOUND:                -0.995
REMARK  Name = 
REMARK  7 active torsions:
REMARK  status: ('A' for Active; 'I' for Inactive)
REMARK    1  A    between atoms: C_1  and  C_2
REMARK    2  A    between atoms: C_6  and  C_7
REMARK    3  A    between atoms: N_9  and  C_10
REMARK    4  A    between atoms: C_10  and  C_11
REMARK    5  A    between atoms: C_14  and  C_15
REMARK    6  A    between atoms: C_15  and  N_16
REMARK    7  A    between atoms: C_17  and  C_19
REMARK                            x       y       z     vdW  Elec       q    Type
REMARK                         _______ _______ _______ _____ _____    ______ ____
ROOT
ATOM      1  C   UNL     1      45.979   5.653  12.084  0.00  0.00    +0.000 A 
ATOM      2  C   UNL     1      47.092   6.368  12.546  0.00  0.00    +0.000 A 
ATOM      3  C   UNL     1      47.639   6.117  13.815  0.00  0.00    +0.000 A 
ATOM      4  C   UNL     1      47.101   5.127  14.648  0.00  0.00    +0.000 A 
ATOM      5  C   UNL     1      45.972   4.429  14.198  0.00  0.00    +0.000 A 
ATOM      6  C   UNL     1      45.428   4.676  12.926  0.00  0.00    +0.000 A 
ENDROOT
BRANCH   1   7
ATOM      7  C   UNL     1      45.373   5.952  10.730  0.00  0.00    +0.000 C 
BRANCH   7  10
ATOM      8  C   UNL     1      45.209   3.946   9.286  0.00  0.00    +0.000 C 
ATOM      9  O   UNL     1      44.178   3.544   9.808  0.00  0.00    +0.000 OA
ATOM     10  N   UNL     1      45.868   5.102   9.674  0.00  0.00    +0.000 N 
ATOM     11  H   UNL     1      46.702   5.350   9.151  0.00  0.00    +0.000 HD
BRANCH   8  17
ATOM     12  C   UNL     1      46.767  -0.312   7.557  0.00  0.00    +0.000 C 
ATOM     13  C   UNL     1      46.599   1.159   7.331  0.00  0.00    +0.000 A 
ATOM     14  C   UNL     1      47.023   1.753   6.144  0.00  0.00    +0.000 A 
ATOM     15  C   UNL     1      46.853   3.125   5.979  0.00  0.00    +0.000 A 
ATOM     16  C   UNL     1      46.262   3.865   6.998  0.00  0.00    +0.000 A 
ATOM     17  C   UNL     1      45.861   3.200   8.151  0.00  0.00    +0.000 A 
ATOM     18  N   UNL     1      46.022   1.860   8.338  0.00  0.00    +0.000 NA
ENDBRANCH   8  17
ENDBRANCH   7  10
ENDBRANCH   1   7
BRANCH   4  19
ATOM     19  C   UNL     1      47.733   4.814  15.985  0.00  0.00    +0.000 C 
BRANCH  19  20
ATOM     20  N   UNL     1      48.122   6.001  16.706  0.00  0.00    +0.000 N 
ATOM     21  C   UNL     1      49.424   6.209  17.096  0.00  0.00    +0.000 C 
ATOM     22  O   UNL     1      50.330   5.432  16.803  0.00  0.00    +0.000 OA
ATOM     23  H   UNL     1      47.380   6.527  17.155  0.00  0.00    +0.000 HD
BRANCH  21  24
ATOM     24  C   UNL     1      49.692   7.447  17.841  0.00  0.00    +0.000 A 
ATOM     25  C   UNL     1      50.752   8.269  17.475  0.00  0.00    +0.000 A 
ATOM     26  S   UNL     1      50.890   9.673  18.436  0.00  0.00    +0.000 S 
ATOM     27  C   UNL     1      49.566   9.213  19.400  0.00  0.00    +0.000 A 
ATOM     28  N   UNL     1      49.159   9.981  20.447  0.00  0.00    +0.000 NA
ATOM     29  C   UNL     1      48.149   9.502  21.097  0.00  0.00    +0.000 A 
ATOM     30  N   UNL     1      47.509   8.331  20.793  0.00  0.00    +0.000 N 
ATOM     31  C   UNL     1      47.871   7.534  19.734  0.00  0.00    +0.000 A 
ATOM     32  O   UNL     1      47.248   6.514  19.463  0.00  0.00    +0.000 OA
ATOM     33  C   UNL     1      49.010   8.018  18.977  0.00  0.00    +0.000 A 
ATOM     34  H   UNL     1      46.713   8.019  21.327  0.00  0.00    +0.000 HD
ENDBRANCH  21  24
ENDBRANCH  19  20
ENDBRANCH   4  19
TORSDOF 6
ENDMDL
MODEL 6
REMARK VINA RESULT:    -6.981      3.340      4.380
REMARK INTER + INTRA:         -10.425
REMARK INTER:                  -9.514
REMARK INTRA:                  -0.911
REMARK UNBOUND:                -0.995
REMARK  Name = 
REMARK  7 active torsions:
REMARK  status: ('A' for Active; 'I' for Inactive)
REMARK    1  A    between atoms: C_1  and  C_2
REMARK    2  A    between atoms: C_6  and  C_7
REMARK    3  A    between atoms: N_9  and  C_10
REMARK    4  A    between atoms: C_10  and  C_11
REMARK    5  A    between atoms: C_14  and  C_15
REMARK    6  A    between atoms: C_15  and  N_16
REMARK    7  A    between atoms: C_17  and  C_19
REMARK                            x       y       z     vdW  Elec       q    Type
REMARK                         _______ _______ _______ _____ _____    ______ ____
ROOT
ATOM      1  C   UNL     1      47.204   6.056  13.755  0.00  0.00    +0.000 A 
ATOM      2  C   UNL     1      48.158   6.784  14.479  0.00  0.00    +0.000 A 
ATOM      3  C   UNL     1      48.625   6.329  15.723  0.00  0.00    +0.000 A 
ATOM      4  C   UNL     1      48.168   5.121  16.266  0.00  0.00    +0.000 A 
ATOM      5  C   UNL     1      47.195   4.404  15.554  0.00  0.00    +0.000 A 
ATOM      6  C   UNL     1      46.733   4.857  14.308  0.00  0.00    +0.000 A 
ENDROOT
BRANCH   1   7
ATOM      7  C   UNL     1      46.679   6.569  12.432  0.00  0.00    +0.000 C 
BRANCH   7  10
ATOM      8  C   UNL     1      45.228   5.384  10.810  0.00  0.00    +0.000 C 
ATOM      9  O   UNL     1      44.260   6.102  11.015  0.00  0.00    +0.000 OA
ATOM     10  N   UNL     1      46.444   5.528  11.459  0.00  0.00    +0.000 N 
ATOM     11  H   UNL     1      47.185   4.888  11.190  0.00  0.00    +0.000 HD
BRANCH   8  17
ATOM     12  C   UNL     1      46.590   3.708   6.464  0.00  0.00    +0.000 C 
ATOM     13  C   UNL     1      45.836   3.461   7.735  0.00  0.00    +0.000 A 
ATOM     14  C   UNL     1      45.156   2.263   7.941  0.00  0.00    +0.000 A 
ATOM     15  C   UNL     1      44.463   2.079   9.135  0.00  0.00    +0.000 A 
ATOM     16  C   UNL     1      44.472   3.091  10.090  0.00  0.00    +0.000 A 
ATOM     17  C   UNL     1      45.177   4.256   9.812  0.00  0.00    +0.000 A 
ATOM     18  N   UNL     1      45.857   4.461   8.650  0.00  0.00    +0.000 NA
ENDBRANCH   8  17
ENDBRANCH   7  10
ENDBRANCH   1   7
BRANCH   4  19
ATOM     19  C   UNL     1      48.722   4.601  17.573  0.00  0.00    +0.000 C 
BRANCH  19  20
ATOM     20  N   UNL     1      50.079   4.128  17.450  0.00  0.00    +0.000 N 
ATOM     21  C   UNL     1      50.971   4.228  18.492  0.00  0.00    +0.000 C 
ATOM     22  O   UNL     1      50.649   4.667  19.592  0.00  0.00    +0.000 OA
ATOM     23  H   UNL     1      50.430   3.983  16.510  0.00  0.00    +0.000 HD
BRANCH  21  24
ATOM     24  C   UNL     1      52.329   3.727  18.238  0.00  0.00    +0.000 A 
ATOM     25  C   UNL     1      53.428   4.557  18.421  0.00  0.00    +0.000 A 
ATOM     26  S   UNL     1      54.921   3.794  18.105  0.00  0.00    +0.000 S 
ATOM     27  C   UNL     1      54.151   2.340  17.673  0.00  0.00    +0.000 A 
ATOM     28  N   UNL     1      54.870   1.259  17.265  0.00  0.00    +0.000 NA
ATOM     29  C   UNL     1      54.153   0.229  16.956  0.00  0.00    +0.000 A 
ATOM     30  N   UNL     1      52.787   0.180  17.023  0.00  0.00    +0.000 N 
ATOM     31  C   UNL     1      52.021   1.239  17.448  0.00  0.00    +0.000 A 
ATOM     32  O   UNL     1      50.802   1.147  17.537  0.00  0.00    +0.000 OA
ATOM     33  C   UNL     1      52.775   2.429  17.794  0.00  0.00    +0.000 A 
ATOM     34  H   UNL     1      52.283  -0.661  16.787  0.00  0.00    +0.000 HD
ENDBRANCH  21  24
ENDBRANCH  19  20
ENDBRANCH   4  19
TORSDOF 6
ENDMDL
MODEL 7
REMARK VINA RESULT:    -6.904      4.214      9.002
REMARK INTER + INTRA:         -10.321
REMARK INTER:                  -9.268
REMARK INTRA:                  -1.052
REMARK UNBOUND:                -0.995
REMARK  Name = 
REMARK  7 active torsions:
REMARK  status: ('A' for Active; 'I' for Inactive)
REMARK    1  A    between atoms: C_1  and  C_2
REMARK    2  A    between atoms: C_6  and  C_7
REMARK    3  A    between atoms: N_9  and  C_10
REMARK    4  A    between atoms: C_10  and  C_11
REMARK    5  A    between atoms: C_14  and  C_15
REMARK    6  A    between atoms: C_15  and  N_16
REMARK    7  A    between atoms: C_17  and  C_19
REMARK                            x       y       z     vdW  Elec       q    Type
REMARK                         _______ _______ _______ _____ _____    ______ ____
ROOT
ATOM      1  C   UNL     1      49.191   4.803  17.319  0.00  0.00    +0.000 A 
ATOM      2  C   UNL     1      48.067   4.360  16.608  0.00  0.00    +0.000 A 
ATOM      3  C   UNL     1      47.608   5.051  15.474  0.00  0.00    +0.000 A 
ATOM      4  C   UNL     1      48.274   6.192  15.008  0.00  0.00    +0.000 A 
ATOM      5  C   UNL     1      49.382   6.652  15.734  0.00  0.00    +0.000 A 
ATOM      6  C   UNL     1      49.844   5.957  16.864  0.00  0.00    +0.000 A 
ENDROOT
BRANCH   1   7
ATOM      7  C   UNL     1      49.659   4.075  18.559  0.00  0.00    +0.000 C 
BRANCH   7  10
ATOM      8  C   UNL     1      51.319   2.450  17.698  0.00  0.00    +0.000 C 
ATOM      9  O   UNL     1      50.491   1.799  17.074  0.00  0.00    +0.000 OA
ATOM     10  N   UNL     1      51.006   3.566  18.457  0.00  0.00    +0.000 N 
ATOM     11  H   UNL     1      51.780   4.041  18.913  0.00  0.00    +0.000 HD
BRANCH   8  17
ATOM     12  C   UNL     1      54.672  -0.942  16.804  0.00  0.00    +0.000 C 
ATOM     13  C   UNL     1      54.376   0.454  17.258  0.00  0.00    +0.000 A 
ATOM     14  C   UNL     1      55.404   1.317  17.632  0.00  0.00    +0.000 A 
ATOM     15  C   UNL     1      55.082   2.605  18.054  0.00  0.00    +0.000 A 
ATOM     16  C   UNL     1      53.747   2.997  18.085  0.00  0.00    +0.000 A 
ATOM     17  C   UNL     1      52.780   2.080  17.692  0.00  0.00    +0.000 A 
ATOM     18  N   UNL     1      53.069   0.814  17.282  0.00  0.00    +0.000 NA
ENDBRANCH   8  17
ENDBRANCH   7  10
ENDBRANCH   1   7
BRANCH   4  19
ATOM     19  C   UNL     1      47.817   6.895  13.750  0.00  0.00    +0.000 C 
BRANCH  19  20
ATOM     20  N   UNL     1      47.175   6.001  12.818  0.00  0.00    +0.000 N 
ATOM     21  C   UNL     1      46.263   6.458  11.896  0.00  0.00    +0.000 C 
ATOM     22  O   UNL     1      45.991   7.650  11.778  0.00  0.00    +0.000 OA
ATOM     23  H   UNL     1      47.200   5.012  13.042  0.00  0.00    +0.000 HD
BRANCH  21  24
ATOM     24  C   UNL     1      45.665   5.448  11.013  0.00  0.00    +0.000 A 
ATOM     25  C   UNL     1      45.816   5.544   9.635  0.00  0.00    +0.000 A 
ATOM     26  S   UNL     1      45.077   4.267   8.776  0.00  0.00    +0.000 S 
ATOM     27  C   UNL     1      44.493   3.564  10.211  0.00  0.00    +0.000 A 
ATOM     28  N   UNL     1      43.741   2.431  10.182  0.00  0.00    +0.000 NA
ATOM     29  C   UNL     1      43.356   2.018  11.345  0.00  0.00    +0.000 A 
ATOM     30  N   UNL     1      43.659   2.630  12.531  0.00  0.00    +0.000 N 
ATOM     31  C   UNL     1      44.432   3.763  12.611  0.00  0.00    +0.000 A 
ATOM     32  O   UNL     1      44.721   4.261  13.693  0.00  0.00    +0.000 OA
ATOM     33  C   UNL     1      44.880   4.279  11.331  0.00  0.00    +0.000 A 
ATOM     34  H   UNL     1      43.345   2.248  13.410  0.00  0.00    +0.000 HD
ENDBRANCH  21  24
ENDBRANCH  19  20
ENDBRANCH   4  19
TORSDOF 6
ENDMDL
MODEL 8
REMARK VINA RESULT:    -6.761      5.247      7.903
REMARK INTER + INTRA:         -10.127
REMARK INTER:                  -9.222
REMARK INTRA:                  -0.904
REMARK UNBOUND:                -0.995
REMARK  Name = 
REMARK  7 active torsions:
REMARK  status: ('A' for Active; 'I' for Inactive)
REMARK    1  A    between atoms: C_1  and  C_2
REMARK    2  A    between atoms: C_6  and  C_7
REMARK    3  A    between atoms: N_9  and  C_10
REMARK    4  A    between atoms: C_10  and  C_11
REMARK    5  A    between atoms: C_14  and  C_15
REMARK    6  A    between atoms: C_15  and  N_16
REMARK    7  A    between atoms: C_17  and  C_19
REMARK                            x       y       z     vdW  Elec       q    Type
REMARK                         _______ _______ _______ _____ _____    ______ ____
ROOT
ATOM      1  C   UNL     1      50.341   9.057  11.348  0.00  0.00    +0.000 A 
ATOM      2  C   UNL     1      49.967   7.736  11.630  0.00  0.00    +0.000 A 
ATOM      3  C   UNL     1      48.688   7.436  12.128  0.00  0.00    +0.000 A 
ATOM      4  C   UNL     1      47.741   8.447  12.337  0.00  0.00    +0.000 A 
ATOM      5  C   UNL     1      48.123   9.771  12.080  0.00  0.00    +0.000 A 
ATOM      6  C   UNL     1      49.400  10.071  11.576  0.00  0.00    +0.000 A 
ENDROOT
BRANCH   1   7
ATOM      7  C   UNL     1      51.731   9.378  10.846  0.00  0.00    +0.000 C 
BRANCH   7  10
ATOM      8  C   UNL     1      52.989   8.045   9.178  0.00  0.00    +0.000 C 
ATOM      9  O   UNL     1      52.816   8.849   8.273  0.00  0.00    +0.000 OA
ATOM     10  N   UNL     1      52.490   8.211  10.460  0.00  0.00    +0.000 N 
ATOM     11  H   UNL     1      52.718   7.489  11.137  0.00  0.00    +0.000 HD
BRANCH   8  17
ATOM     12  C   UNL     1      53.675   4.059   6.496  0.00  0.00    +0.000 C 
ATOM     13  C   UNL     1      54.100   4.876   7.678  0.00  0.00    +0.000 A 
ATOM     14  C   UNL     1      55.151   4.463   8.492  0.00  0.00    +0.000 A 
ATOM     15  C   UNL     1      55.508   5.251   9.583  0.00  0.00    +0.000 A 
ATOM     16  C   UNL     1      54.810   6.430   9.829  0.00  0.00    +0.000 A 
ATOM     17  C   UNL     1      53.776   6.777   8.968  0.00  0.00    +0.000 A 
ATOM     18  N   UNL     1      53.405   6.019   7.897  0.00  0.00    +0.000 NA
ENDBRANCH   8  17
ENDBRANCH   7  10
ENDBRANCH   1   7
BRANCH   4  19
ATOM     19  C   UNL     1      46.344   8.113  12.809  0.00  0.00    +0.000 C 
BRANCH  19  20
ATOM     20  N   UNL     1      45.936   6.782  12.436  0.00  0.00    +0.000 N 
ATOM     21  C   UNL     1      44.805   6.561  11.686  0.00  0.00    +0.000 C 
ATOM     22  O   UNL     1      44.120   7.480  11.246  0.00  0.00    +0.000 OA
ATOM     23  H   UNL     1      46.335   6.015  12.967  0.00  0.00    +0.000 HD
BRANCH  21  24
ATOM     24  C   UNL     1      44.484   5.159  11.386  0.00  0.00    +0.000 A 
ATOM     25  C   UNL     1      43.722   4.409  12.274  0.00  0.00    +0.000 A 
ATOM     26  S   UNL     1      43.430   2.813  11.745  0.00  0.00    +0.000 S 
ATOM     27  C   UNL     1      44.344   3.054  10.331  0.00  0.00    +0.000 A 
ATOM     28  N   UNL     1      44.521   2.050   9.429  0.00  0.00    +0.000 NA
ATOM     29  C   UNL     1      45.248   2.372   8.410  0.00  0.00    +0.000 A 
ATOM     30  N   UNL     1      45.809   3.604   8.209  0.00  0.00    +0.000 N 
ATOM     31  C   UNL     1      45.641   4.653   9.081  0.00  0.00    +0.000 A 
ATOM     32  O   UNL     1      46.121   5.757   8.848  0.00  0.00    +0.000 OA
ATOM     33  C   UNL     1      44.843   4.342  10.252  0.00  0.00    +0.000 A 
ATOM     34  H   UNL     1      46.352   3.801   7.382  0.00  0.00    +0.000 HD
ENDBRANCH  21  24
ENDBRANCH  19  20
ENDBRANCH   4  19
TORSDOF 6
ENDMDL
MODEL 9
REMARK VINA RESULT:    -6.512      1.572      2.416
REMARK INTER + INTRA:          -9.791
REMARK INTER:                  -8.882
REMARK INTRA:                  -0.909
REMARK UNBOUND:                -0.995
REMARK  Name = 
REMARK  7 active torsions:
REMARK  status: ('A' for Active; 'I' for Inactive)
REMARK    1  A    between atoms: C_1  and  C_2
REMARK    2  A    between atoms: C_6  and  C_7
REMARK    3  A    between atoms: N_9  and  C_10
REMARK    4  A    between atoms: C_10  and  C_11
REMARK    5  A    between atoms: C_14  and  C_15
REMARK    6  A    between atoms: C_15  and  N_16
REMARK    7  A    between atoms: C_17  and  C_19
REMARK                            x       y       z     vdW  Elec       q    Type
REMARK                         _______ _______ _______ _____ _____    ______ ____
ROOT
ATOM      1  C   UNL     1      46.378   7.829  12.166  0.00  0.00    +0.000 A 
ATOM      2  C   UNL     1      46.322   8.701  13.262  0.00  0.00    +0.000 A 
ATOM      3  C   UNL     1      47.486   9.061  13.961  0.00  0.00    +0.000 A 
ATOM      4  C   UNL     1      48.741   8.578  13.568  0.00  0.00    +0.000 A 
ATOM      5  C   UNL     1      48.795   7.686  12.488  0.00  0.00    +0.000 A 
ATOM      6  C   UNL     1      47.632   7.330  11.785  0.00  0.00    +0.000 A 
ENDROOT
BRANCH   1   7
ATOM      7  C   UNL     1      45.117   7.417  11.439  0.00  0.00    +0.000 C 
BRANCH   7  10
ATOM      8  C   UNL     1      44.522   5.104  10.780  0.00  0.00    +0.000 C 
ATOM      9  O   UNL     1      43.668   4.981  11.648  0.00  0.00    +0.000 OA
ATOM     10  N   UNL     1      45.284   6.248  10.608  0.00  0.00    +0.000 N 
ATOM     11  H   UNL     1      45.946   6.245   9.838  0.00  0.00    +0.000 HD
BRANCH   8  17
ATOM     12  C   UNL     1      46.706   3.765   6.659  0.00  0.00    +0.000 C 
ATOM     13  C   UNL     1      45.872   3.363   7.836  0.00  0.00    +0.000 A 
ATOM     14  C   UNL     1      45.430   2.050   7.984  0.00  0.00    +0.000 A 
ATOM     15  C   UNL     1      44.651   1.722   9.090  0.00  0.00    +0.000 A 
ATOM     16  C   UNL     1      44.339   2.709  10.020  0.00  0.00    +0.000 A 
ATOM     17  C   UNL     1      44.820   3.995   9.805  0.00  0.00    +0.000 A 
ATOM     18  N   UNL     1      45.579   4.341   8.727  0.00  0.00    +0.000 NA
ENDBRANCH   8  17
ENDBRANCH   7  10
ENDBRANCH   1   7
BRANCH   4  19
ATOM     19  C   UNL     1      49.998   9.020  14.281  0.00  0.00    +0.000 C 
BRANCH  19  20
ATOM     20  N   UNL     1      49.939   8.792  15.704  0.00  0.00    +0.000 N 
ATOM     21  C   UNL     1      50.289   7.579  16.252  0.00  0.00    +0.000 C 
ATOM     22  O   UNL     1      50.723   6.653  15.572  0.00  0.00    +0.000 OA
ATOM     23  H   UNL     1      49.377   9.437  16.248  0.00  0.00    +0.000 HD
BRANCH  21  24
ATOM     24  C   UNL     1      50.168   7.464  17.711  0.00  0.00    +0.000 A 
ATOM     25  C   UNL     1      50.930   8.277  18.543  0.00  0.00    +0.000 A 
ATOM     26  S   UNL     1      50.636   8.019  20.205  0.00  0.00    +0.000 S 
ATOM     27  C   UNL     1      49.512   6.786  19.873  0.00  0.00    +0.000 A 
ATOM     28  N   UNL     1      48.891   6.113  20.879  0.00  0.00    +0.000 NA
ATOM     29  C   UNL     1      48.073   5.195  20.480  0.00  0.00    +0.000 A 
ATOM     30  N   UNL     1      47.818   4.893  19.170  0.00  0.00    +0.000 N 
ATOM     31  C   UNL     1      48.405   5.559  18.121  0.00  0.00    +0.000 A 
ATOM     32  O   UNL     1      48.120   5.292  16.959  0.00  0.00    +0.000 OA
ATOM     33  C   UNL     1      49.345   6.592  18.513  0.00  0.00    +0.000 A 
ATOM     34  H   UNL     1      47.153   4.177  18.920  0.00  0.00    +0.000 HD
ENDBRANCH  21  24
ENDBRANCH  19  20
ENDBRANCH   4  19
TORSDOF 6
ENDMDL
