MODEL 1
REMARK VINA RESULT:    -8.157      0.000      0.000
REMARK INTER + INTRA:         -11.695
REMARK INTER:                 -11.019
REMARK INTRA:                  -0.676
REMARK UNBOUND:                -0.676
REMARK  Name = 
REMARK  7 active torsions:
REMARK  status: ('A' for Active; 'I' for Inactive)
REMARK    1  A    between atoms: C_1  and  C_2
REMARK    2  A    between atoms: C_7  and  C_8
REMARK    3  A    between atoms: N_10  and  C_11
REMARK    4  A    between atoms: C_11  and  C_12
REMARK    5  A    between atoms: C_15  and  C_16
REMARK    6  A    between atoms: C_16  and  N_17
REMARK    7  A    between atoms: N_17  and  C_18
REMARK                            x       y       z     vdW  Elec       q    Type
REMARK                         _______ _______ _______ _____ _____    ______ ____
ROOT
ATOM      1  C   UNL     1      47.980   6.966  13.706  0.00  0.00    +0.000 C 
ATOM      2  O   UNL     1      48.633   7.063  12.670  0.00  0.00    +0.000 OA
ATOM      3  N   UNL     1      46.637   7.234  13.733  0.00  0.00    +0.000 N 
ATOM      4  H   UNL     1      46.119   7.161  14.603  0.00  0.00    +0.000 HD
ENDROOT
BRANCH   1  11
ATOM      5  C   UNL     1      48.069   2.616  19.013  0.00  0.00    +0.000 C 
ATOM      6  C   UNL     1      48.226   3.655  17.943  0.00  0.00    +0.000 A 
ATOM      7  N   UNL     1      49.155   4.554  18.010  0.00  0.00    +0.000 NA
ATOM      8  C   UNL     1      49.173   5.436  16.975  0.00  0.00    +0.000 A 
ATOM      9  S   UNL     1      50.331   6.679  16.916  0.00  0.00    +0.000 S 
ATOM     10  C   UNL     1      49.703   7.269  15.448  0.00  0.00    +0.000 A 
ATOM     11  C   UNL     1      48.613   6.550  14.970  0.00  0.00    +0.000 A 
ATOM     12  C   UNL     1      48.321   5.464  15.883  0.00  0.00    +0.000 A 
ATOM     13  C   UNL     1      47.308   4.427  15.843  0.00  0.00    +0.000 A 
ATOM     14  O   UNL     1      46.491   4.292  14.936  0.00  0.00    +0.000 OA
ATOM     15  N   UNL     1      47.318   3.568  16.916  0.00  0.00    +0.000 N 
ATOM     16  H   UNL     1      46.616   2.843  16.905  0.00  0.00    +0.000 HD
ENDBRANCH   1  11
BRANCH   3  17
ATOM     17  C   UNL     1      45.891   7.615  12.560  0.00  0.00    +0.000 C 
BRANCH  17  18
ATOM     18  C   UNL     1      45.467   6.432  11.742  0.00  0.00    +0.000 A 
ATOM     19  C   UNL     1      45.966   6.215  10.456  0.00  0.00    +0.000 A 
ATOM     20  C   UNL     1      45.573   5.088   9.736  0.00  0.00    +0.000 A 
ATOM     21  C   UNL     1      44.682   4.191  10.322  0.00  0.00    +0.000 A 
ATOM     22  N   UNL     1      44.165   4.397  11.562  0.00  0.00    +0.000 NA
ATOM     23  C   UNL     1      44.558   5.503  12.232  0.00  0.00    +0.000 A 
BRANCH  21  24
ATOM     24  C   UNL     1      44.268   2.926   9.593  0.00  0.00    +0.000 C 
BRANCH  24  25
ATOM     25  N   UNL     1      45.414   2.053   9.331  0.00  0.00    +0.000 N 
ATOM     26  H   UNL     1      45.283   1.109   9.681  0.00  0.00    +0.000 HD
BRANCH  25  27
ATOM     27  C   UNL     1      46.044   2.106   8.084  0.00  0.00    +0.000 A 
ATOM     28  C   UNL     1      45.967   3.203   7.223  0.00  0.00    +0.000 A 
ATOM     29  C   UNL     1      46.692   3.227   6.029  0.00  0.00    +0.000 A 
ATOM     30  C   UNL     1      47.506   2.152   5.730  0.00  0.00    +0.000 A 
ATOM     31  N   UNL     1      47.644   1.080   6.535  0.00  0.00    +0.000 NA
ATOM     32  C   UNL     1      46.931   1.098   7.691  0.00  0.00    +0.000 A 
ENDBRANCH  25  27
ENDBRANCH  24  25
ENDBRANCH  21  24
ENDBRANCH  17  18
ENDBRANCH   3  17
TORSDOF 6
ENDMDL
MODEL 2
REMARK VINA RESULT:    -8.149      2.297      3.146
REMARK INTER + INTRA:         -11.683
REMARK INTER:                 -10.987
REMARK INTRA:                  -0.696
REMARK UNBOUND:                -0.676
REMARK  Name = 
REMARK  7 active torsions:
REMARK  status: ('A' for Active; 'I' for Inactive)
REMARK    1  A    between atoms: C_1  and  C_2
REMARK    2  A    between atoms: C_7  and  C_8
REMARK    3  A    between atoms: N_10  and  C_11
REMARK    4  A    between atoms: C_11  and  C_12
REMARK    5  A    between atoms: C_15  and  C_16
REMARK    6  A    between atoms: C_16  and  N_17
REMARK    7  A    between atoms: N_17  and  C_18
REMARK                            x       y       z     vdW  Elec       q    Type
REMARK                         _______ _______ _______ _____ _____    ______ ____
ROOT
ATOM      1  C   UNL     1      47.301   4.012  16.707  0.00  0.00    +0.000 C 
ATOM      2  O   UNL     1      46.495   3.324  17.331  0.00  0.00    +0.000 OA
ATOM      3  N   UNL     1      46.979   4.572  15.500  0.00  0.00    +0.000 N 
ATOM      4  H   UNL     1      47.663   5.126  14.995  0.00  0.00    +0.000 HD
ENDROOT
BRANCH   1  11
ATOM      5  C   UNL     1      53.620   1.637  17.945  0.00  0.00    +0.000 C 
ATOM      6  C   UNL     1      52.312   2.345  17.752  0.00  0.00    +0.000 A 
ATOM      7  N   UNL     1      52.149   3.572  18.131  0.00  0.00    +0.000 NA
ATOM      8  C   UNL     1      50.909   4.082  17.901  0.00  0.00    +0.000 A 
ATOM      9  S   UNL     1      50.535   5.680  18.343  0.00  0.00    +0.000 S 
ATOM     10  C   UNL     1      48.940   5.523  17.768  0.00  0.00    +0.000 A 
ATOM     11  C   UNL     1      48.652   4.271  17.236  0.00  0.00    +0.000 A 
ATOM     12  C   UNL     1      49.833   3.436  17.315  0.00  0.00    +0.000 A 
ATOM     13  C   UNL     1      50.068   2.069  16.891  0.00  0.00    +0.000 A 
ATOM     14  O   UNL     1      49.232   1.364  16.333  0.00  0.00    +0.000 OA
ATOM     15  N   UNL     1      51.329   1.591  17.156  0.00  0.00    +0.000 N 
ATOM     16  H   UNL     1      51.508   0.640  16.872  0.00  0.00    +0.000 HD
ENDBRANCH   1  11
BRANCH   3  17
ATOM     17  C   UNL     1      45.681   4.426  14.890  0.00  0.00    +0.000 C 
BRANCH  17  18
ATOM     18  C   UNL     1      45.696   4.755  13.427  0.00  0.00    +0.000 A 
ATOM     19  C   UNL     1      46.504   5.773  12.914  0.00  0.00    +0.000 A 
ATOM     20  C   UNL     1      46.514   6.032  11.545  0.00  0.00    +0.000 A 
ATOM     21  C   UNL     1      45.712   5.259  10.707  0.00  0.00    +0.000 A 
ATOM     22  N   UNL     1      44.901   4.282  11.188  0.00  0.00    +0.000 NA
ATOM     23  C   UNL     1      44.905   4.060  12.522  0.00  0.00    +0.000 A 
BRANCH  21  24
ATOM     24  C   UNL     1      45.733   5.474   9.204  0.00  0.00    +0.000 C 
BRANCH  24  25
ATOM     25  N   UNL     1      45.024   4.407   8.495  0.00  0.00    +0.000 N 
ATOM     26  H   UNL     1      44.302   4.755   7.873  0.00  0.00    +0.000 HD
BRANCH  25  27
ATOM     27  C   UNL     1      45.750   3.336   7.967  0.00  0.00    +0.000 A 
ATOM     28  C   UNL     1      46.719   3.472   6.969  0.00  0.00    +0.000 A 
ATOM     29  C   UNL     1      47.470   2.372   6.547  0.00  0.00    +0.000 A 
ATOM     30  C   UNL     1      47.252   1.152   7.156  0.00  0.00    +0.000 A 
ATOM     31  N   UNL     1      46.355   0.966   8.144  0.00  0.00    +0.000 NA
ATOM     32  C   UNL     1      45.650   2.060   8.533  0.00  0.00    +0.000 A 
ENDBRANCH  25  27
ENDBRANCH  24  25
ENDBRANCH  21  24
ENDBRANCH  17  18
ENDBRANCH   3  17
TORSDOF 6
ENDMDL
MODEL 3
REMARK VINA RESULT:    -8.120      2.192      3.723
REMARK INTER + INTRA:         -11.644
REMARK INTER:                 -10.669
REMARK INTRA:                  -0.975
REMARK UNBOUND:                -0.676
REMARK  Name = 
REMARK  7 active torsions:
REMARK  status: ('A' for Active; 'I' for Inactive)
REMARK    1  A    between atoms: C_1  and  C_2
REMARK    2  A    between atoms: C_7  and  C_8
REMARK    3  A    between atoms: N_10  and  C_11
REMARK    4  A    between atoms: C_11  and  C_12
REMARK    5  A    between atoms: C_15  and  C_16
REMARK    6  A    between atoms: C_16  and  N_17
REMARK    7  A    between atoms: N_17  and  C_18
REMARK                            x       y       z     vdW  Elec       q    Type
REMARK                         _______ _______ _______ _____ _____    ______ ____
ROOT
ATOM      1  C   UNL     1      46.722   5.806  13.969  0.00  0.00    +0.000 C 
ATOM      2  O   UNL     1      46.511   4.646  14.317  0.00  0.00    +0.000 OA
ATOM      3  N   UNL     1      45.758   6.553  13.345  0.00  0.00    +0.000 N 
ATOM      4  H   UNL     1      45.957   7.504  13.055  0.00  0.00    +0.000 HD
ENDROOT
BRANCH   1  11
ATOM      5  C   UNL     1      52.021   9.364  11.447  0.00  0.00    +0.000 C 
ATOM      6  C   UNL     1      50.964   8.602  12.190  0.00  0.00    +0.000 A 
ATOM      7  N   UNL     1      51.092   8.327  13.449  0.00  0.00    +0.000 NA
ATOM      8  C   UNL     1      50.060   7.623  13.988  0.00  0.00    +0.000 A 
ATOM      9  S   UNL     1      50.078   7.182  15.629  0.00  0.00    +0.000 S 
ATOM     10  C   UNL     1      48.572   6.400  15.492  0.00  0.00    +0.000 A 
ATOM     11  C   UNL     1      48.024   6.450  14.214  0.00  0.00    +0.000 A 
ATOM     12  C   UNL     1      48.916   7.187  13.342  0.00  0.00    +0.000 A 
ATOM     13  C   UNL     1      48.808   7.534  11.938  0.00  0.00    +0.000 A 
ATOM     14  O   UNL     1      47.850   7.248  11.225  0.00  0.00    +0.000 OA
ATOM     15  N   UNL     1      49.879   8.232  11.432  0.00  0.00    +0.000 N 
ATOM     16  H   UNL     1      49.822   8.477  10.455  0.00  0.00    +0.000 HD
ENDBRANCH   1  11
BRANCH   3  17
ATOM     17  C   UNL     1      44.432   6.054  13.079  0.00  0.00    +0.000 C 
BRANCH  17  18
ATOM     18  C   UNL     1      44.408   5.066  11.952  0.00  0.00    +0.000 A 
ATOM     19  C   UNL     1      45.038   5.330  10.734  0.00  0.00    +0.000 A 
ATOM     20  C   UNL     1      45.021   4.375   9.718  0.00  0.00    +0.000 A 
ATOM     21  C   UNL     1      44.371   3.164   9.942  0.00  0.00    +0.000 A 
ATOM     22  N   UNL     1      43.730   2.897  11.111  0.00  0.00    +0.000 NA
ATOM     23  C   UNL     1      43.756   3.845  12.074  0.00  0.00    +0.000 A 
BRANCH  21  24
ATOM     24  C   UNL     1      44.373   2.077   8.882  0.00  0.00    +0.000 C 
BRANCH  24  25
ATOM     25  N   UNL     1      45.719   1.553   8.648  0.00  0.00    +0.000 N 
ATOM     26  H   UNL     1      45.815   0.575   8.902  0.00  0.00    +0.000 HD
BRANCH  25  27
ATOM     27  C   UNL     1      46.390   1.893   7.470  0.00  0.00    +0.000 A 
ATOM     28  C   UNL     1      46.050   2.989   6.672  0.00  0.00    +0.000 A 
ATOM     29  C   UNL     1      46.817   3.325   5.554  0.00  0.00    +0.000 A 
ATOM     30  C   UNL     1      47.934   2.564   5.268  0.00  0.00    +0.000 A 
ATOM     31  N   UNL     1      48.329   1.516   6.016  0.00  0.00    +0.000 NA
ATOM     32  C   UNL     1      47.564   1.227   7.101  0.00  0.00    +0.000 A 
ENDBRANCH  25  27
ENDBRANCH  24  25
ENDBRANCH  21  24
ENDBRANCH  17  18
ENDBRANCH   3  17
TORSDOF 6
ENDMDL
MODEL 4
REMARK VINA RESULT:    -7.942      3.214      4.072
REMARK INTER + INTRA:         -11.404
REMARK INTER:                 -10.441
REMARK INTRA:                  -0.964
REMARK UNBOUND:                -0.676
REMARK  Name = 
REMARK  7 active torsions:
REMARK  status: ('A' for Active; 'I' for Inactive)
REMARK    1  A    between atoms: C_1  and  C_2
REMARK    2  A    between atoms: C_7  and  C_8
REMARK    3  A    between atoms: N_10  and  C_11
REMARK    4  A    between atoms: C_11  and  C_12
REMARK    5  A    between atoms: C_15  and  C_16
REMARK    6  A    between atoms: C_16  and  N_17
REMARK    7  A    between atoms: N_17  and  C_18
REMARK                            x       y       z     vdW  Elec       q    Type
REMARK                         _______ _______ _______ _____ _____    ______ ____
ROOT
ATOM      1  C   UNL     1      48.723   6.002  16.755  0.00  0.00    +0.000 C 
ATOM      2  O   UNL     1      49.692   5.267  16.575  0.00  0.00    +0.000 OA
ATOM      3  N   UNL     1      47.983   6.481  15.706  0.00  0.00    +0.000 N 
ATOM      4  H   UNL     1      47.195   7.097  15.876  0.00  0.00    +0.000 HD
ENDROOT
BRANCH   1  11
ATOM      5  C   UNL     1      46.805  11.022  21.022  0.00  0.00    +0.000 C 
ATOM      6  C   UNL     1      47.193   9.792  20.258  0.00  0.00    +0.000 A 
ATOM      7  N   UNL     1      47.242   8.632  20.831  0.00  0.00    +0.000 NA
ATOM      8  C   UNL     1      47.617   7.608  20.017  0.00  0.00    +0.000 A 
ATOM      9  S   UNL     1      47.733   6.022  20.619  0.00  0.00    +0.000 S 
ATOM     10  C   UNL     1      48.220   5.424  19.102  0.00  0.00    +0.000 A 
ATOM     11  C   UNL     1      48.308   6.398  18.112  0.00  0.00    +0.000 A 
ATOM     12  C   UNL     1      47.938   7.681  18.672  0.00  0.00    +0.000 A 
ATOM     13  C   UNL     1      47.851   8.998  18.070  0.00  0.00    +0.000 A 
ATOM     14  O   UNL     1      48.076   9.233  16.886  0.00  0.00    +0.000 OA
ATOM     15  N   UNL     1      47.483  10.003  18.932  0.00  0.00    +0.000 N 
ATOM     16  H   UNL     1      47.422  10.926  18.529  0.00  0.00    +0.000 HD
ENDBRANCH   1  11
BRANCH   3  17
ATOM     17  C   UNL     1      48.260   6.141  14.333  0.00  0.00    +0.000 C 
BRANCH  17  18
ATOM     18  C   UNL     1      47.136   5.382  13.693  0.00  0.00    +0.000 A 
ATOM     19  C   UNL     1      46.134   6.031  12.969  0.00  0.00    +0.000 A 
ATOM     20  C   UNL     1      45.120   5.291  12.362  0.00  0.00    +0.000 A 
ATOM     21  C   UNL     1      45.130   3.903  12.490  0.00  0.00    +0.000 A 
ATOM     22  N   UNL     1      46.082   3.255  13.211  0.00  0.00    +0.000 NA
ATOM     23  C   UNL     1      47.047   3.999  13.795  0.00  0.00    +0.000 A 
BRANCH  21  24
ATOM     24  C   UNL     1      44.075   3.056  11.802  0.00  0.00    +0.000 C 
BRANCH  24  25
ATOM     25  N   UNL     1      43.835   3.501  10.428  0.00  0.00    +0.000 N 
ATOM     26  H   UNL     1      43.421   4.427  10.376  0.00  0.00    +0.000 HD
BRANCH  25  27
ATOM     27  C   UNL     1      44.809   3.267   9.453  0.00  0.00    +0.000 A 
ATOM     28  C   UNL     1      45.264   1.994   9.101  0.00  0.00    +0.000 A 
ATOM     29  C   UNL     1      46.176   1.825   8.056  0.00  0.00    +0.000 A 
ATOM     30  C   UNL     1      46.600   2.942   7.363  0.00  0.00    +0.000 A 
ATOM     31  N   UNL     1      46.174   4.190   7.637  0.00  0.00    +0.000 NA
ATOM     32  C   UNL     1      45.280   4.314   8.652  0.00  0.00    +0.000 A 
ENDBRANCH  25  27
ENDBRANCH  24  25
ENDBRANCH  21  24
ENDBRANCH  17  18
ENDBRANCH   3  17
TORSDOF 6
ENDMDL
MODEL 5
REMARK VINA RESULT:    -7.937      2.317      3.005
REMARK INTER + INTRA:         -11.398
REMARK INTER:                 -10.683
REMARK INTRA:                  -0.714
REMARK UNBOUND:                -0.676
REMARK  Name = 
REMARK  7 active torsions:
REMARK  status: ('A' for Active; 'I' for Inactive)
REMARK    1  A    between atoms: C_1  and  C_2
REMARK    2  A    between atoms: C_7  and  C_8
REMARK    3  A    between atoms: N_10  and  C_11
REMARK    4  A    between atoms: C_11  and  C_12
REMARK    5  A    between atoms: C_15  and  C_16
REMARK    6  A    between atoms: C_16  and  N_17
REMARK    7  A    between atoms: N_17  and  C_18
REMARK                            x       y       z     vdW  Elec       q    Type
REMARK                         _______ _______ _______ _____ _____    ______ ____
ROOT
ATOM      1  C   UNL     1      48.640   6.810  15.829  0.00  0.00    +0.000 C 
ATOM      2  O   UNL     1      48.723   8.021  16.023  0.00  0.00    +0.000 OA
ATOM      3  N   UNL     1      48.056   6.305  14.697  0.00  0.00    +0.000 N 
ATOM      4  H   UNL     1      47.986   5.302  14.563  0.00  0.00    +0.000 HD
ENDROOT
BRANCH   1  11
ATOM      5  C   UNL     1      54.136   3.919  18.749  0.00  0.00    +0.000 C 
ATOM      6  C   UNL     1      52.818   4.429  18.247  0.00  0.00    +0.000 A 
ATOM      7  N   UNL     1      51.700   3.964  18.704  0.00  0.00    +0.000 NA
ATOM      8  C   UNL     1      50.585   4.513  18.151  0.00  0.00    +0.000 A 
ATOM      9  S   UNL     1      49.037   4.008  18.641  0.00  0.00    +0.000 S 
ATOM     10  C   UNL     1      48.283   5.083  17.557  0.00  0.00    +0.000 A 
ATOM     11  C   UNL     1      49.173   5.843  16.805  0.00  0.00    +0.000 A 
ATOM     12  C   UNL     1      50.529   5.497  17.178  0.00  0.00    +0.000 A 
ATOM     13  C   UNL     1      51.807   6.000  16.711  0.00  0.00    +0.000 A 
ATOM     14  O   UNL     1      51.937   6.888  15.873  0.00  0.00    +0.000 OA
ATOM     15  N   UNL     1      52.906   5.407  17.286  0.00  0.00    +0.000 N 
ATOM     16  H   UNL     1      53.803   5.742  16.968  0.00  0.00    +0.000 HD
ENDBRANCH   1  11
BRANCH   3  17
ATOM     17  C   UNL     1      47.528   7.142  13.649  0.00  0.00    +0.000 C 
BRANCH  17  18
ATOM     18  C   UNL     1      46.584   6.403  12.748  0.00  0.00    +0.000 A 
ATOM     19  C   UNL     1      46.487   6.702  11.387  0.00  0.00    +0.000 A 
ATOM     20  C   UNL     1      45.620   5.975  10.573  0.00  0.00    +0.000 A 
ATOM     21  C   UNL     1      44.862   4.952  11.140  0.00  0.00    +0.000 A 
ATOM     22  N   UNL     1      44.923   4.663  12.466  0.00  0.00    +0.000 NA
ATOM     23  C   UNL     1      45.766   5.391  13.232  0.00  0.00    +0.000 A 
BRANCH  21  24
ATOM     24  C   UNL     1      43.945   4.103  10.279  0.00  0.00    +0.000 C 
BRANCH  24  25
ATOM     25  N   UNL     1      44.268   4.226   8.857  0.00  0.00    +0.000 N 
ATOM     26  H   UNL     1      44.422   5.186   8.566  0.00  0.00    +0.000 HD
BRANCH  25  27
ATOM     27  C   UNL     1      45.155   3.316   8.275  0.00  0.00    +0.000 A 
ATOM     28  C   UNL     1      46.068   3.654   7.272  0.00  0.00    +0.000 A 
ATOM     29  C   UNL     1      46.986   2.716   6.795  0.00  0.00    +0.000 A 
ATOM     30  C   UNL     1      46.989   1.453   7.354  0.00  0.00    +0.000 A 
ATOM     31  N   UNL     1      46.155   1.077   8.343  0.00  0.00    +0.000 NA
ATOM     32  C   UNL     1      45.283   2.020   8.787  0.00  0.00    +0.000 A 
ENDBRANCH  25  27
ENDBRANCH  24  25
ENDBRANCH  21  24
ENDBRANCH  17  18
ENDBRANCH   3  17
TORSDOF 6
ENDMDL
MODEL 6
REMARK VINA RESULT:    -7.894      1.852      2.180
REMARK INTER + INTRA:         -11.339
REMARK INTER:                 -10.426
REMARK INTRA:                  -0.912
REMARK UNBOUND:                -0.676
REMARK  Name = 
REMARK  7 active torsions:
REMARK  status: ('A' for Active; 'I' for Inactive)
REMARK    1  A    between atoms: C_1  and  C_2
REMARK    2  A    between atoms: C_7  and  C_8
REMARK    3  A    between atoms: N_10  and  C_11
REMARK    4  A    between atoms: C_11  and  C_12
REMARK    5  A    between atoms: C_15  and  C_16
REMARK    6  A    between atoms: C_16  and  N_17
REMARK    7  A    between atoms: N_17  and  C_18
REMARK                            x       y       z     vdW  Elec       q    Type
REMARK                         _______ _______ _______ _____ _____    ______ ____
ROOT
ATOM      1  C   UNL     1      48.126   9.059  14.501  0.00  0.00    +0.000 C 
ATOM      2  O   UNL     1      49.018   9.437  13.743  0.00  0.00    +0.000 OA
ATOM      3  N   UNL     1      46.841   8.880  14.062  0.00  0.00    +0.000 N 
ATOM      4  H   UNL     1      46.118   8.580  14.707  0.00  0.00    +0.000 HD
ENDROOT
BRANCH   1  11
ATOM      5  C   UNL     1      49.351   4.374  19.364  0.00  0.00    +0.000 C 
ATOM      6  C   UNL     1      49.111   5.545  18.458  0.00  0.00    +0.000 A 
ATOM      7  N   UNL     1      49.094   6.756  18.915  0.00  0.00    +0.000 NA
ATOM      8  C   UNL     1      48.855   7.716  17.982  0.00  0.00    +0.000 A 
ATOM      9  S   UNL     1      48.799   9.357  18.423  0.00  0.00    +0.000 S 
ATOM     10  C   UNL     1      48.477   9.832  16.820  0.00  0.00    +0.000 A 
ATOM     11  C   UNL     1      48.403   8.774  15.920  0.00  0.00    +0.000 A 
ATOM     12  C   UNL     1      48.639   7.531  16.626  0.00  0.00    +0.000 A 
ATOM     13  C   UNL     1      48.686   6.159  16.158  0.00  0.00    +0.000 A 
ATOM     14  O   UNL     1      48.541   5.823  14.986  0.00  0.00    +0.000 OA
ATOM     15  N   UNL     1      48.914   5.222  17.137  0.00  0.00    +0.000 N 
ATOM     16  H   UNL     1      48.945   4.263  16.828  0.00  0.00    +0.000 HD
ENDBRANCH   1  11
BRANCH   3  17
ATOM     17  C   UNL     1      46.446   9.089  12.692  0.00  0.00    +0.000 C 
BRANCH  17  18
ATOM     18  C   UNL     1      45.873   7.853  12.066  0.00  0.00    +0.000 A 
ATOM     19  C   UNL     1      46.656   6.721  11.832  0.00  0.00    +0.000 A 
ATOM     20  C   UNL     1      46.083   5.578  11.277  0.00  0.00    +0.000 A 
ATOM     21  C   UNL     1      44.725   5.589  10.966  0.00  0.00    +0.000 A 
ATOM     22  N   UNL     1      43.951   6.688  11.163  0.00  0.00    +0.000 NA
ATOM     23  C   UNL     1      44.536   7.784  11.695  0.00  0.00    +0.000 A 
BRANCH  21  24
ATOM     24  C   UNL     1      44.050   4.349  10.408  0.00  0.00    +0.000 C 
BRANCH  24  25
ATOM     25  N   UNL     1      44.163   4.281   8.950  0.00  0.00    +0.000 N 
ATOM     26  H   UNL     1      44.141   5.193   8.507  0.00  0.00    +0.000 HD
BRANCH  25  27
ATOM     27  C   UNL     1      45.084   3.400   8.376  0.00  0.00    +0.000 A 
ATOM     28  C   UNL     1      46.068   3.792   7.465  0.00  0.00    +0.000 A 
ATOM     29  C   UNL     1      47.013   2.877   6.995  0.00  0.00    +0.000 A 
ATOM     30  C   UNL     1      46.967   1.580   7.468  0.00  0.00    +0.000 A 
ATOM     31  N   UNL     1      46.062   1.151   8.369  0.00  0.00    +0.000 NA
ATOM     32  C   UNL     1      45.166   2.072   8.810  0.00  0.00    +0.000 A 
ENDBRANCH  25  27
ENDBRANCH  24  25
ENDBRANCH  21  24
ENDBRANCH  17  18
ENDBRANCH   3  17
TORSDOF 6
ENDMDL
MODEL 7
REMARK VINA RESULT:    -7.714      2.133      3.704
REMARK INTER + INTRA:         -11.096
REMARK INTER:                 -10.082
REMARK INTRA:                  -1.014
REMARK UNBOUND:                -0.676
REMARK  Name = 
REMARK  7 active torsions:
REMARK  status: ('A' for Active; 'I' for Inactive)
REMARK    1  A    between atoms: C_1  and  C_2
REMARK    2  A    between atoms: C_7  and  C_8
REMARK    3  A    between atoms: N_10  and  C_11
REMARK    4  A    between atoms: C_11  and  C_12
REMARK    5  A    between atoms: C_15  and  C_16
REMARK    6  A    between atoms: C_16  and  N_17
REMARK    7  A    between atoms: N_17  and  C_18
REMARK                            x       y       z     vdW  Elec       q    Type
REMARK                         _______ _______ _______ _____ _____    ______ ____
ROOT
ATOM      1  C   UNL     1      48.265   5.194  16.123  0.00  0.00    +0.000 C 
ATOM      2  O   UNL     1      48.623   4.140  16.645  0.00  0.00    +0.000 OA
ATOM      3  N   UNL     1      47.373   5.212  15.085  0.00  0.00    +0.000 N 
ATOM      4  H   UNL     1      47.100   6.092  14.660  0.00  0.00    +0.000 HD
ENDROOT
BRANCH   1  11
ATOM      5  C   UNL     1      51.415  11.106  14.633  0.00  0.00    +0.000 C 
ATOM      6  C   UNL     1      50.709   9.893  15.160  0.00  0.00    +0.000 A 
ATOM      7  N   UNL     1      50.389   9.791  16.411  0.00  0.00    +0.000 NA
ATOM      8  C   UNL     1      49.760   8.633  16.747  0.00  0.00    +0.000 A 
ATOM      9  S   UNL     1      49.278   8.345  18.352  0.00  0.00    +0.000 S 
ATOM     10  C   UNL     1      48.641   6.819  17.944  0.00  0.00    +0.000 A 
ATOM     11  C   UNL     1      48.777   6.492  16.599  0.00  0.00    +0.000 A 
ATOM     12  C   UNL     1      49.433   7.582  15.907  0.00  0.00    +0.000 A 
ATOM     13  C   UNL     1      49.794   7.749  14.512  0.00  0.00    +0.000 A 
ATOM     14  O   UNL     1      49.555   6.928  13.631  0.00  0.00    +0.000 OA
ATOM     15  N   UNL     1      50.440   8.927  14.220  0.00  0.00    +0.000 N 
ATOM     16  H   UNL     1      50.703   9.057  13.255  0.00  0.00    +0.000 HD
ENDBRANCH   1  11
BRANCH   3  17
ATOM     17  C   UNL     1      46.770   4.017  14.550  0.00  0.00    +0.000 C 
BRANCH  17  18
ATOM     18  C   UNL     1      46.141   4.244  13.208  0.00  0.00    +0.000 A 
ATOM     19  C   UNL     1      46.331   5.435  12.503  0.00  0.00    +0.000 A 
ATOM     20  C   UNL     1      45.755   5.600  11.244  0.00  0.00    +0.000 A 
ATOM     21  C   UNL     1      44.996   4.561  10.709  0.00  0.00    +0.000 A 
ATOM     22  N   UNL     1      44.778   3.405  11.389  0.00  0.00    +0.000 NA
ATOM     23  C   UNL     1      45.342   3.277  12.611  0.00  0.00    +0.000 A 
BRANCH  21  24
ATOM     24  C   UNL     1      44.395   4.680   9.320  0.00  0.00    +0.000 C 
BRANCH  24  25
ATOM     25  N   UNL     1      44.244   3.371   8.682  0.00  0.00    +0.000 N 
ATOM     26  H   UNL     1      43.387   3.287   8.144  0.00  0.00    +0.000 HD
BRANCH  25  27
ATOM     27  C   UNL     1      45.351   2.777   8.069  0.00  0.00    +0.000 A 
ATOM     28  C   UNL     1      46.241   3.466   7.241  0.00  0.00    +0.000 A 
ATOM     29  C   UNL     1      47.377   2.833   6.730  0.00  0.00    +0.000 A 
ATOM     30  C   UNL     1      47.614   1.519   7.081  0.00  0.00    +0.000 A 
ATOM     31  N   UNL     1      46.809   0.813   7.899  0.00  0.00    +0.000 NA
ATOM     32  C   UNL     1      45.720   1.465   8.384  0.00  0.00    +0.000 A 
ENDBRANCH  25  27
ENDBRANCH  24  25
ENDBRANCH  21  24
ENDBRANCH  17  18
ENDBRANCH   3  17
TORSDOF 6
ENDMDL
MODEL 8
REMARK VINA RESULT:    -7.673      2.843      3.665
REMARK INTER + INTRA:         -11.040
REMARK INTER:                 -10.109
REMARK INTRA:                  -0.931
REMARK UNBOUND:                -0.676
REMARK  Name = 
REMARK  7 active torsions:
REMARK  status: ('A' for Active; 'I' for Inactive)
REMARK    1  A    between atoms: C_1  and  C_2
REMARK    2  A    between atoms: C_7  and  C_8
REMARK    3  A    between atoms: N_10  and  C_11
REMARK    4  A    between atoms: C_11  and  C_12
REMARK    5  A    between atoms: C_15  and  C_16
REMARK    6  A    between atoms: C_16  and  N_17
REMARK    7  A    between atoms: N_17  and  C_18
REMARK                            x       y       z     vdW  Elec       q    Type
REMARK                         _______ _______ _______ _____ _____    ______ ____
ROOT
ATOM      1  C   UNL     1      47.297   8.030  12.853  0.00  0.00    +0.000 C 
ATOM      2  O   UNL     1      46.361   8.827  12.812  0.00  0.00    +0.000 OA
ATOM      3  N   UNL     1      47.092   6.697  13.090  0.00  0.00    +0.000 N 
ATOM      4  H   UNL     1      47.879   6.059  13.133  0.00  0.00    +0.000 HD
ENDROOT
BRANCH   1  11
ATOM      5  C   UNL     1      53.824   7.934  14.969  0.00  0.00    +0.000 C 
ATOM      6  C   UNL     1      52.469   8.075  14.341  0.00  0.00    +0.000 A 
ATOM      7  N   UNL     1      52.293   8.794  13.279  0.00  0.00    +0.000 NA
ATOM      8  C   UNL     1      51.011   8.838  12.826  0.00  0.00    +0.000 A 
ATOM      9  S   UNL     1      50.613   9.741  11.441  0.00  0.00    +0.000 S 
ATOM     10  C   UNL     1      48.972   9.304  11.562  0.00  0.00    +0.000 A 
ATOM     11  C   UNL     1      48.686   8.475  12.641  0.00  0.00    +0.000 A 
ATOM     12  C   UNL     1      49.907   8.203  13.370  0.00  0.00    +0.000 A 
ATOM     13  C   UNL     1      50.157   7.395  14.549  0.00  0.00    +0.000 A 
ATOM     14  O   UNL     1      49.298   6.747  15.139  0.00  0.00    +0.000 OA
ATOM     15  N   UNL     1      51.463   7.392  14.980  0.00  0.00    +0.000 N 
ATOM     16  H   UNL     1      51.653   6.838  15.801  0.00  0.00    +0.000 HD
ENDBRANCH   1  11
BRANCH   3  17
ATOM     17  C   UNL     1      45.781   6.128  13.278  0.00  0.00    +0.000 C 
BRANCH  17  18
ATOM     18  C   UNL     1      45.405   5.182  12.176  0.00  0.00    +0.000 A 
ATOM     19  C   UNL     1      45.568   5.523  10.831  0.00  0.00    +0.000 A 
ATOM     20  C   UNL     1      45.236   4.608   9.834  0.00  0.00    +0.000 A 
ATOM     21  C   UNL     1      44.746   3.356  10.204  0.00  0.00    +0.000 A 
ATOM     22  N   UNL     1      44.557   3.014  11.505  0.00  0.00    +0.000 NA
ATOM     23  C   UNL     1      44.879   3.926  12.450  0.00  0.00    +0.000 A 
BRANCH  21  24
ATOM     24  C   UNL     1      44.422   2.312   9.152  0.00  0.00    +0.000 C 
BRANCH  24  25
ATOM     25  N   UNL     1      45.606   1.540   8.771  0.00  0.00    +0.000 N 
ATOM     26  H   UNL     1      45.485   0.540   8.893  0.00  0.00    +0.000 HD
BRANCH  25  27
ATOM     27  C   UNL     1      46.302   1.883   7.608  0.00  0.00    +0.000 A 
ATOM     28  C   UNL     1      45.989   2.991   6.815  0.00  0.00    +0.000 A 
ATOM     29  C   UNL     1      46.779   3.327   5.714  0.00  0.00    +0.000 A 
ATOM     30  C   UNL     1      47.891   2.555   5.439  0.00  0.00    +0.000 A 
ATOM     31  N   UNL     1      48.260   1.495   6.184  0.00  0.00    +0.000 NA
ATOM     32  C   UNL     1      47.472   1.205   7.253  0.00  0.00    +0.000 A 
ENDBRANCH  25  27
ENDBRANCH  24  25
ENDBRANCH  21  24
ENDBRANCH  17  18
ENDBRANCH   3  17
TORSDOF 6
ENDMDL
MODEL 9
REMARK VINA RESULT:    -7.333      2.488      3.882
REMARK INTER + INTRA:         -10.581
REMARK INTER:                  -9.700
REMARK INTRA:                  -0.881
REMARK UNBOUND:                -0.676
REMARK  Name = 
REMARK  7 active torsions:
REMARK  status: ('A' for Active; 'I' for Inactive)
REMARK    1  A    between atoms: C_1  and  C_2
REMARK    2  A    between atoms: C_7  and  C_8
REMARK    3  A    between atoms: N_10  and  C_11
REMARK    4  A    between atoms: C_11  and  C_12
REMARK    5  A    between atoms: C_15  and  C_16
REMARK    6  A    between atoms: C_16  and  N_17
REMARK    7  A    between atoms: N_17  and  C_18
REMARK                            x       y       z     vdW  Elec       q    Type
REMARK                         _______ _______ _______ _____ _____    ______ ____
ROOT
ATOM      1  C   UNL     1      47.840   4.928  17.373  0.00  0.00    +0.000 C 
ATOM      2  O   UNL     1      47.739   3.836  17.930  0.00  0.00    +0.000 OA
ATOM      3  N   UNL     1      47.581   5.075  16.036  0.00  0.00    +0.000 N 
ATOM      4  H   UNL     1      47.683   5.982  15.593  0.00  0.00    +0.000 HD
ENDROOT
BRANCH   1  11
ATOM      5  C   UNL     1      52.078  10.297  17.924  0.00  0.00    +0.000 C 
ATOM      6  C   UNL     1      51.053   9.204  17.979  0.00  0.00    +0.000 A 
ATOM      7  N   UNL     1      50.179   9.149  18.933  0.00  0.00    +0.000 NA
ATOM      8  C   UNL     1      49.318   8.099  18.859  0.00  0.00    +0.000 A 
ATOM      9  S   UNL     1      48.112   7.884  20.038  0.00  0.00    +0.000 S 
ATOM     10  C   UNL     1      47.540   6.474  19.275  0.00  0.00    +0.000 A 
ATOM     11  C   UNL     1      48.241   6.132  18.122  0.00  0.00    +0.000 A 
ATOM     12  C   UNL     1      49.282   7.112  17.889  0.00  0.00    +0.000 A 
ATOM     13  C   UNL     1      50.268   7.225  16.832  0.00  0.00    +0.000 A 
ATOM     14  O   UNL     1      50.358   6.451  15.883  0.00  0.00    +0.000 OA
ATOM     15  N   UNL     1      51.126   8.292  16.955  0.00  0.00    +0.000 N 
ATOM     16  H   UNL     1      51.821   8.382  16.230  0.00  0.00    +0.000 HD
ENDBRANCH   1  11
BRANCH   3  17
ATOM     17  C   UNL     1      47.147   3.986  15.198  0.00  0.00    +0.000 C 
BRANCH  17  18
ATOM     18  C   UNL     1      46.619   4.456  13.876  0.00  0.00    +0.000 A 
ATOM     19  C   UNL     1      47.101   5.618  13.267  0.00  0.00    +0.000 A 
ATOM     20  C   UNL     1      46.609   6.009  12.023  0.00  0.00    +0.000 A 
ATOM     21  C   UNL     1      45.639   5.223  11.404  0.00  0.00    +0.000 A 
ATOM     22  N   UNL     1      45.140   4.103  11.990  0.00  0.00    +0.000 NA
ATOM     23  C   UNL     1      45.629   3.754  13.201  0.00  0.00    +0.000 A 
BRANCH  21  24
ATOM     24  C   UNL     1      45.115   5.585  10.027  0.00  0.00    +0.000 C 
BRANCH  24  25
ATOM     25  N   UNL     1      44.472   4.442   9.375  0.00  0.00    +0.000 N 
ATOM     26  H   UNL     1      43.598   4.684   8.920  0.00  0.00    +0.000 HD
BRANCH  25  27
ATOM     27  C   UNL     1      45.254   3.543   8.644  0.00  0.00    +0.000 A 
ATOM     28  C   UNL     1      46.156   3.929   7.648  0.00  0.00    +0.000 A 
ATOM     29  C   UNL     1      46.970   2.987   7.017  0.00  0.00    +0.000 A 
ATOM     30  C   UNL     1      46.882   1.667   7.414  0.00  0.00    +0.000 A 
ATOM     31  N   UNL     1      46.055   1.239   8.388  0.00  0.00    +0.000 NA
ATOM     32  C   UNL     1      45.286   2.187   8.985  0.00  0.00    +0.000 A 
ENDBRANCH  25  27
ENDBRANCH  24  25
ENDBRANCH  21  24
ENDBRANCH  17  18
ENDBRANCH   3  17
TORSDOF 6
ENDMDL
