MODEL 1
REMARK VINA RESULT:    -8.357      0.000      0.000
REMARK INTER + INTRA:         -13.078
REMARK INTER:                 -11.777
REMARK INTRA:                  -1.301
REMARK UNBOUND:                -1.301
REMARK  Name = 
REMARK  8 active torsions:
REMARK  status: ('A' for Active; 'I' for Inactive)
REMARK    1  A    between atoms: C_1  and  O_2
REMARK    2  A    between atoms: O_2  and  C_3
REMARK    3  A    between atoms: C_10  and  C_11
REMARK    4  A    between atoms: N_13  and  C_14
REMARK    5  A    between atoms: C_14  and  C_15
REMARK    6  A    between atoms: C_18  and  C_19
REMARK    7  A    between atoms: C_19  and  C_20
REMARK    8  A    between atoms: C_20  and  N_21
REMARK                            x       y       z     vdW  Elec       q    Type
REMARK                         _______ _______ _______ _____ _____    ______ ____
ROOT
ATOM      1  C   UNL     1      47.210   8.258  13.308  0.00  0.00    +0.000 C 
ENDROOT
BRANCH   1   2
ATOM      2  C   UNL     1      46.272   7.418  12.479  0.00  0.00    +0.000 A 
ATOM      3  C   UNL     1      46.768   6.632  11.434  0.00  0.00    +0.000 A 
ATOM      4  C   UNL     1      45.928   5.764  10.726  0.00  0.00    +0.000 A 
ATOM      5  C   UNL     1      44.562   5.666  11.028  0.00  0.00    +0.000 A 
ATOM      6  C   UNL     1      44.056   6.508  12.031  0.00  0.00    +0.000 A 
ATOM      7  C   UNL     1      44.897   7.377  12.743  0.00  0.00    +0.000 A 
BRANCH   5   8
ATOM      8  C   UNL     1      43.628   4.673  10.350  0.00  0.00    +0.000 C 
BRANCH   8   9
ATOM      9  C   UNL     1      44.322   3.493   9.654  0.00  0.00    +0.000 C 
BRANCH   9  10
ATOM     10  N   UNL     1      44.466   3.702   8.218  0.00  0.00    +0.000 N 
ATOM     11  C   UNL     1      45.542   2.987   7.687  0.00  0.00    +0.000 A 
ATOM     12  N   UNL     1      45.898   1.808   8.222  0.00  0.00    +0.000 NA
ATOM     13  C   UNL     1      46.963   1.181   7.692  0.00  0.00    +0.000 A 
ATOM     14  C   UNL     1      47.688   1.684   6.645  0.00  0.00    +0.000 A 
ATOM     15  C   UNL     1      47.249   2.892   6.162  0.00  0.00    +0.000 A 
ATOM     16  N   UNL     1      46.192   3.563   6.667  0.00  0.00    +0.000 NA
ATOM     17  H   UNL     1      44.607   4.661   7.917  0.00  0.00    +0.000 HD
ENDBRANCH   9  10
ENDBRANCH   8   9
ENDBRANCH   5   8
ENDBRANCH   1   2
BRANCH   1  20
ATOM     18  C   UNL     1      48.738   6.907  14.679  0.00  0.00    +0.000 C 
ATOM     19  O   UNL     1      49.528   6.797  13.744  0.00  0.00    +0.000 OA
ATOM     20  N   UNL     1      47.574   7.620  14.548  0.00  0.00    +0.000 N 
ATOM     21  H   UNL     1      46.947   7.730  15.332  0.00  0.00    +0.000 HD
BRANCH  18  29
ATOM     22  C   UNL     1      47.283   4.250  16.300  0.00  0.00    +0.000 A 
ATOM     23  N   UNL     1      46.978   3.191  17.074  0.00  0.00    +0.000 NA
ATOM     24  C   UNL     1      47.713   2.988  18.172  0.00  0.00    +0.000 A 
ATOM     25  N   UNL     1      48.719   3.739  18.615  0.00  0.00    +0.000 NA
ATOM     26  C   UNL     1      48.999   4.773  17.803  0.00  0.00    +0.000 A 
ATOM     27  S   UNL     1      50.239   5.857  18.218  0.00  0.00    +0.000 S 
ATOM     28  C   UNL     1      49.994   6.756  16.794  0.00  0.00    +0.000 A 
ATOM     29  C   UNL     1      48.991   6.251  15.974  0.00  0.00    +0.000 A 
ATOM     30  C   UNL     1      48.363   5.095  16.609  0.00  0.00    +0.000 A 
BRANCH  22  32
ATOM     31  C   UNL     1      47.004   3.768  14.031  0.00  0.00    +0.000 C 
ATOM     32  O   UNL     1      46.524   4.472  15.173  0.00  0.00    +0.000 OA
ENDBRANCH  22  32
ENDBRANCH  18  29
ENDBRANCH   1  20
TORSDOF 7
ENDMDL
MODEL 2
REMARK VINA RESULT:    -7.963      1.595      2.118
REMARK INTER + INTRA:         -12.522
REMARK INTER:                 -11.399
REMARK INTRA:                  -1.123
REMARK UNBOUND:                -1.301
REMARK  Name = 
REMARK  8 active torsions:
REMARK  status: ('A' for Active; 'I' for Inactive)
REMARK    1  A    between atoms: C_1  and  O_2
REMARK    2  A    between atoms: O_2  and  C_3
REMARK    3  A    between atoms: C_10  and  C_11
REMARK    4  A    between atoms: N_13  and  C_14
REMARK    5  A    between atoms: C_14  and  C_15
REMARK    6  A    between atoms: C_18  and  C_19
REMARK    7  A    between atoms: C_19  and  C_20
REMARK    8  A    between atoms: C_20  and  N_21
REMARK                            x       y       z     vdW  Elec       q    Type
REMARK                         _______ _______ _______ _____ _____    ______ ____
ROOT
ATOM      1  C   UNL     1      48.056   7.208  13.248  0.00  0.00    +0.000 C 
ENDROOT
BRANCH   1   2
ATOM      2  C   UNL     1      47.053   6.256  12.645  0.00  0.00    +0.000 A 
ATOM      3  C   UNL     1      46.634   5.130  13.360  0.00  0.00    +0.000 A 
ATOM      4  C   UNL     1      45.625   4.297  12.863  0.00  0.00    +0.000 A 
ATOM      5  C   UNL     1      45.014   4.554  11.627  0.00  0.00    +0.000 A 
ATOM      6  C   UNL     1      45.486   5.646  10.882  0.00  0.00    +0.000 A 
ATOM      7  C   UNL     1      46.497   6.483  11.380  0.00  0.00    +0.000 A 
BRANCH   5   8
ATOM      8  C   UNL     1      43.851   3.733  11.085  0.00  0.00    +0.000 C 
BRANCH   8   9
ATOM      9  C   UNL     1      44.085   3.098   9.706  0.00  0.00    +0.000 C 
BRANCH   9  10
ATOM     10  N   UNL     1      45.159   2.112   9.724  0.00  0.00    +0.000 N 
ATOM     11  C   UNL     1      45.921   2.142   8.554  0.00  0.00    +0.000 A 
ATOM     12  N   UNL     1      46.095   3.297   7.891  0.00  0.00    +0.000 NA
ATOM     13  C   UNL     1      46.808   3.260   6.752  0.00  0.00    +0.000 A 
ATOM     14  C   UNL     1      47.358   2.112   6.246  0.00  0.00    +0.000 A 
ATOM     15  C   UNL     1      47.130   0.981   6.991  0.00  0.00    +0.000 A 
ATOM     16  N   UNL     1      46.413   0.969   8.135  0.00  0.00    +0.000 NA
ATOM     17  H   UNL     1      44.876   1.144   9.835  0.00  0.00    +0.000 HD
ENDBRANCH   9  10
ENDBRANCH   8   9
ENDBRANCH   5   8
ENDBRANCH   1   2
BRANCH   1  20
ATOM     18  C   UNL     1      48.980   7.004  15.516  0.00  0.00    +0.000 C 
ATOM     19  O   UNL     1      50.071   6.652  15.073  0.00  0.00    +0.000 OA
ATOM     20  N   UNL     1      47.935   7.306  14.680  0.00  0.00    +0.000 N 
ATOM     21  H   UNL     1      47.053   7.623  15.054  0.00  0.00    +0.000 HD
BRANCH  18  29
ATOM     22  C   UNL     1      48.862   4.661  18.026  0.00  0.00    +0.000 A 
ATOM     23  N   UNL     1      48.882   3.976  19.185  0.00  0.00    +0.000 NA
ATOM     24  C   UNL     1      48.732   4.665  20.320  0.00  0.00    +0.000 A 
ATOM     25  N   UNL     1      48.538   5.977  20.443  0.00  0.00    +0.000 NA
ATOM     26  C   UNL     1      48.542   6.620  19.264  0.00  0.00    +0.000 A 
ATOM     27  S   UNL     1      48.284   8.298  19.220  0.00  0.00    +0.000 S 
ATOM     28  C   UNL     1      48.462   8.330  17.528  0.00  0.00    +0.000 A 
ATOM     29  C   UNL     1      48.735   7.087  16.967  0.00  0.00    +0.000 A 
ATOM     30  C   UNL     1      48.729   6.059  18.005  0.00  0.00    +0.000 A 
BRANCH  22  32
ATOM     31  C   UNL     1      47.810   3.291  16.451  0.00  0.00    +0.000 C 
ATOM     32  O   UNL     1      49.005   3.956  16.851  0.00  0.00    +0.000 OA
ENDBRANCH  22  32
ENDBRANCH  18  29
ENDBRANCH   1  20
TORSDOF 7
ENDMDL
MODEL 3
REMARK VINA RESULT:    -7.626      2.535      3.415
REMARK INTER + INTRA:         -12.048
REMARK INTER:                 -10.900
REMARK INTRA:                  -1.149
REMARK UNBOUND:                -1.301
REMARK  Name = 
REMARK  8 active torsions:
REMARK  status: ('A' for Active; 'I' for Inactive)
REMARK    1  A    between atoms: C_1  and  O_2
REMARK    2  A    between atoms: O_2  and  C_3
REMARK    3  A    between atoms: C_10  and  C_11
REMARK    4  A    between atoms: N_13  and  C_14
REMARK    5  A    between atoms: C_14  and  C_15
REMARK    6  A    between atoms: C_18  and  C_19
REMARK    7  A    between atoms: C_19  and  C_20
REMARK    8  A    between atoms: C_20  and  N_21
REMARK                            x       y       z     vdW  Elec       q    Type
REMARK                         _______ _______ _______ _____ _____    ______ ____
ROOT
ATOM      1  C   UNL     1      48.633   6.777  13.994  0.00  0.00    +0.000 C 
ENDROOT
BRANCH   1   2
ATOM      2  C   UNL     1      47.446   6.320  13.184  0.00  0.00    +0.000 A 
ATOM      3  C   UNL     1      46.617   5.301  13.663  0.00  0.00    +0.000 A 
ATOM      4  C   UNL     1      45.451   4.940  12.978  0.00  0.00    +0.000 A 
ATOM      5  C   UNL     1      45.084   5.575  11.783  0.00  0.00    +0.000 A 
ATOM      6  C   UNL     1      45.954   6.550  11.270  0.00  0.00    +0.000 A 
ATOM      7  C   UNL     1      47.123   6.914  11.958  0.00  0.00    +0.000 A 
BRANCH   5   8
ATOM      8  C   UNL     1      43.782   5.284  11.050  0.00  0.00    +0.000 C 
BRANCH   8   9
ATOM      9  C   UNL     1      43.802   4.037  10.152  0.00  0.00    +0.000 C 
BRANCH   9  10
ATOM     10  N   UNL     1      44.152   4.353   8.772  0.00  0.00    +0.000 N 
ATOM     11  C   UNL     1      45.131   3.494   8.267  0.00  0.00    +0.000 A 
ATOM     12  N   UNL     1      45.195   2.221   8.691  0.00  0.00    +0.000 NA
ATOM     13  C   UNL     1      46.180   1.450   8.197  0.00  0.00    +0.000 A 
ATOM     14  C   UNL     1      47.105   1.899   7.293  0.00  0.00    +0.000 A 
ATOM     15  C   UNL     1      46.959   3.212   6.916  0.00  0.00    +0.000 A 
ATOM     16  N   UNL     1      45.993   4.026   7.392  0.00  0.00    +0.000 NA
ATOM     17  H   UNL     1      44.503   5.290   8.602  0.00  0.00    +0.000 HD
ENDBRANCH   9  10
ENDBRANCH   8   9
ENDBRANCH   5   8
ENDBRANCH   1   2
BRANCH   1  20
ATOM     18  C   UNL     1      49.021   6.469  16.401  0.00  0.00    +0.000 C 
ATOM     19  O   UNL     1      49.995   5.752  16.183  0.00  0.00    +0.000 OA
ATOM     20  N   UNL     1      48.300   7.023  15.374  0.00  0.00    +0.000 N 
ATOM     21  H   UNL     1      47.521   7.635  15.565  0.00  0.00    +0.000 HD
BRANCH  18  29
ATOM     22  C   UNL     1      47.971   9.314  18.015  0.00  0.00    +0.000 A 
ATOM     23  N   UNL     1      47.419  10.235  18.827  0.00  0.00    +0.000 NA
ATOM     24  C   UNL     1      47.023   9.841  20.042  0.00  0.00    +0.000 A 
ATOM     25  N   UNL     1      47.135   8.621  20.565  0.00  0.00    +0.000 NA
ATOM     26  C   UNL     1      47.676   7.733  19.714  0.00  0.00    +0.000 A 
ATOM     27  S   UNL     1      47.920   6.128  20.215  0.00  0.00    +0.000 S 
ATOM     28  C   UNL     1      48.545   5.697  18.693  0.00  0.00    +0.000 A 
ATOM     29  C   UNL     1      48.566   6.743  17.776  0.00  0.00    +0.000 A 
ATOM     30  C   UNL     1      48.095   7.971  18.409  0.00  0.00    +0.000 A 
BRANCH  22  32
ATOM     31  C   UNL     1      49.714  10.244  16.765  0.00  0.00    +0.000 C 
ATOM     32  O   UNL     1      48.390   9.716  16.766  0.00  0.00    +0.000 OA
ENDBRANCH  22  32
ENDBRANCH  18  29
ENDBRANCH   1  20
TORSDOF 7
ENDMDL
MODEL 4
REMARK VINA RESULT:    -7.411      1.716      2.327
REMARK INTER + INTRA:         -11.745
REMARK INTER:                 -10.703
REMARK INTRA:                  -1.041
REMARK UNBOUND:                -1.301
REMARK  Name = 
REMARK  8 active torsions:
REMARK  status: ('A' for Active; 'I' for Inactive)
REMARK    1  A    between atoms: C_1  and  O_2
REMARK    2  A    between atoms: O_2  and  C_3
REMARK    3  A    between atoms: C_10  and  C_11
REMARK    4  A    between atoms: N_13  and  C_14
REMARK    5  A    between atoms: C_14  and  C_15
REMARK    6  A    between atoms: C_18  and  C_19
REMARK    7  A    between atoms: C_19  and  C_20
REMARK    8  A    between atoms: C_20  and  N_21
REMARK                            x       y       z     vdW  Elec       q    Type
REMARK                         _______ _______ _______ _____ _____    ______ ____
ROOT
ATOM      1  C   UNL     1      47.615   7.581  13.258  0.00  0.00    +0.000 C 
ENDROOT
BRANCH   1   2
ATOM      2  C   UNL     1      46.733   6.499  12.686  0.00  0.00    +0.000 A 
ATOM      3  C   UNL     1      46.213   5.502  13.517  0.00  0.00    +0.000 A 
ATOM      4  C   UNL     1      45.307   4.556  13.025  0.00  0.00    +0.000 A 
ATOM      5  C   UNL     1      44.904   4.565  11.681  0.00  0.00    +0.000 A 
ATOM      6  C   UNL     1      45.481   5.525  10.835  0.00  0.00    +0.000 A 
ATOM      7  C   UNL     1      46.389   6.476  11.329  0.00  0.00    +0.000 A 
BRANCH   5   8
ATOM      8  C   UNL     1      43.853   3.617  11.120  0.00  0.00    +0.000 C 
BRANCH   8   9
ATOM      9  C   UNL     1      44.140   3.086   9.707  0.00  0.00    +0.000 C 
BRANCH   9  10
ATOM     10  N   UNL     1      45.222   2.108   9.691  0.00  0.00    +0.000 N 
ATOM     11  C   UNL     1      45.956   2.154   8.504  0.00  0.00    +0.000 A 
ATOM     12  N   UNL     1      46.106   3.317   7.849  0.00  0.00    +0.000 NA
ATOM     13  C   UNL     1      46.795   3.296   6.694  0.00  0.00    +0.000 A 
ATOM     14  C   UNL     1      47.341   2.157   6.165  0.00  0.00    +0.000 A 
ATOM     15  C   UNL     1      47.138   1.018   6.904  0.00  0.00    +0.000 A 
ATOM     16  N   UNL     1      46.447   0.989   8.063  0.00  0.00    +0.000 NA
ATOM     17  H   UNL     1      44.948   1.137   9.800  0.00  0.00    +0.000 HD
ENDBRANCH   9  10
ENDBRANCH   8   9
ENDBRANCH   5   8
ENDBRANCH   1   2
BRANCH   1  20
ATOM     18  C   UNL     1      49.092   7.521  15.221  0.00  0.00    +0.000 C 
ATOM     19  O   UNL     1      48.444   8.406  15.774  0.00  0.00    +0.000 OA
ATOM     20  N   UNL     1      48.743   7.050  13.980  0.00  0.00    +0.000 N 
ATOM     21  H   UNL     1      49.264   6.301  13.549  0.00  0.00    +0.000 HD
BRANCH  18  29
ATOM     22  C   UNL     1      49.571   5.067  17.577  0.00  0.00    +0.000 A 
ATOM     23  N   UNL     1      50.030   4.084  18.374  0.00  0.00    +0.000 NA
ATOM     24  C   UNL     1      51.353   3.919  18.466  0.00  0.00    +0.000 A 
ATOM     25  N   UNL     1      52.295   4.645  17.866  0.00  0.00    +0.000 NA
ATOM     26  C   UNL     1      51.792   5.602  17.069  0.00  0.00    +0.000 A 
ATOM     27  S   UNL     1      52.844   6.645  16.238  0.00  0.00    +0.000 S 
ATOM     28  C   UNL     1      51.540   7.453  15.503  0.00  0.00    +0.000 A 
ATOM     29  C   UNL     1      50.294   6.945  15.852  0.00  0.00    +0.000 A 
ATOM     30  C   UNL     1      50.449   5.872  16.831  0.00  0.00    +0.000 A 
BRANCH  22  32
ATOM     31  C   UNL     1      47.584   4.334  16.590  0.00  0.00    +0.000 C 
ATOM     32  O   UNL     1      48.209   5.249  17.486  0.00  0.00    +0.000 OA
ENDBRANCH  22  32
ENDBRANCH  18  29
ENDBRANCH   1  20
TORSDOF 7
ENDMDL
MODEL 5
REMARK VINA RESULT:    -7.352      1.962      2.336
REMARK INTER + INTRA:         -11.661
REMARK INTER:                 -10.680
REMARK INTRA:                  -0.981
REMARK UNBOUND:                -1.301
REMARK  Name = 
REMARK  8 active torsions:
REMARK  status: ('A' for Active; 'I' for Inactive)
REMARK    1  A    between atoms: C_1  and  O_2
REMARK    2  A    between atoms: O_2  and  C_3
REMARK    3  A    between atoms: C_10  and  C_11
REMARK    4  A    between atoms: N_13  and  C_14
REMARK    5  A    between atoms: C_14  and  C_15
REMARK    6  A    between atoms: C_18  and  C_19
REMARK    7  A    between atoms: C_19  and  C_20
REMARK    8  A    between atoms: C_20  and  N_21
REMARK                            x       y       z     vdW  Elec       q    Type
REMARK                         _______ _______ _______ _____ _____    ______ ____
ROOT
ATOM      1  C   UNL     1      48.620   7.588  14.687  0.00  0.00    +0.000 C 
ENDROOT
BRANCH   1   2
ATOM      2  C   UNL     1      47.603   6.906  13.807  0.00  0.00    +0.000 A 
ATOM      3  C   UNL     1      47.233   5.581  14.055  0.00  0.00    +0.000 A 
ATOM      4  C   UNL     1      46.213   4.969  13.317  0.00  0.00    +0.000 A 
ATOM      5  C   UNL     1      45.541   5.657  12.296  0.00  0.00    +0.000 A 
ATOM      6  C   UNL     1      45.963   6.964  12.005  0.00  0.00    +0.000 A 
ATOM      7  C   UNL     1      46.985   7.579  12.746  0.00  0.00    +0.000 A 
BRANCH   5   8
ATOM      8  C   UNL     1      44.366   5.068  11.528  0.00  0.00    +0.000 C 
BRANCH   8   9
ATOM      9  C   UNL     1      44.718   3.913  10.578  0.00  0.00    +0.000 C 
BRANCH   9  10
ATOM     10  N   UNL     1      44.701   4.322   9.178  0.00  0.00    +0.000 N 
ATOM     11  C   UNL     1      45.494   3.496   8.379  0.00  0.00    +0.000 A 
ATOM     12  N   UNL     1      45.639   2.197   8.687  0.00  0.00    +0.000 NA
ATOM     13  C   UNL     1      46.443   1.458   7.901  0.00  0.00    +0.000 A 
ATOM     14  C   UNL     1      47.108   1.964   6.817  0.00  0.00    +0.000 A 
ATOM     15  C   UNL     1      46.898   3.300   6.579  0.00  0.00    +0.000 A 
ATOM     16  N   UNL     1      46.109   4.084   7.344  0.00  0.00    +0.000 NA
ATOM     17  H   UNL     1      45.016   5.267   8.984  0.00  0.00    +0.000 HD
ENDBRANCH   9  10
ENDBRANCH   8   9
ENDBRANCH   5   8
ENDBRANCH   1   2
BRANCH   1  20
ATOM     18  C   UNL     1      49.477   6.418  16.671  0.00  0.00    +0.000 C 
ATOM     19  O   UNL     1      48.660   6.983  17.395  0.00  0.00    +0.000 OA
ATOM     20  N   UNL     1      49.517   6.656  15.321  0.00  0.00    +0.000 N 
ATOM     21  H   UNL     1      50.173   6.163  14.732  0.00  0.00    +0.000 HD
BRANCH  18  29
ATOM     22  C   UNL     1      49.702   2.992  16.759  0.00  0.00    +0.000 A 
ATOM     23  N   UNL     1      50.083   1.702  16.822  0.00  0.00    +0.000 NA
ATOM     24  C   UNL     1      51.274   1.428  17.364  0.00  0.00    +0.000 A 
ATOM     25  N   UNL     1      52.139   2.298  17.882  0.00  0.00    +0.000 NA
ATOM     26  C   UNL     1      51.724   3.572  17.782  0.00  0.00    +0.000 A 
ATOM     27  S   UNL     1      52.687   4.822  18.411  0.00  0.00    +0.000 S 
ATOM     28  C   UNL     1      51.576   6.002  17.895  0.00  0.00    +0.000 A 
ATOM     29  C   UNL     1      50.473   5.484  17.227  0.00  0.00    +0.000 A 
ATOM     30  C   UNL     1      50.541   4.025  17.209  0.00  0.00    +0.000 A 
BRANCH  22  32
ATOM     31  C   UNL     1      47.425   3.313  17.179  0.00  0.00    +0.000 C 
ATOM     32  O   UNL     1      48.471   3.280  16.211  0.00  0.00    +0.000 OA
ENDBRANCH  22  32
ENDBRANCH  18  29
ENDBRANCH   1  20
TORSDOF 7
ENDMDL
MODEL 6
REMARK VINA RESULT:    -6.701      3.205      7.728
REMARK INTER + INTRA:         -10.744
REMARK INTER:                  -9.216
REMARK INTRA:                  -1.528
REMARK UNBOUND:                -1.301
REMARK  Name = 
REMARK  8 active torsions:
REMARK  status: ('A' for Active; 'I' for Inactive)
REMARK    1  A    between atoms: C_1  and  O_2
REMARK    2  A    between atoms: O_2  and  C_3
REMARK    3  A    between atoms: C_10  and  C_11
REMARK    4  A    between atoms: N_13  and  C_14
REMARK    5  A    between atoms: C_14  and  C_15
REMARK    6  A    between atoms: C_18  and  C_19
REMARK    7  A    between atoms: C_19  and  C_20
REMARK    8  A    between atoms: C_20  and  N_21
REMARK                            x       y       z     vdW  Elec       q    Type
REMARK                         _______ _______ _______ _____ _____    ______ ____
ROOT
ATOM      1  C   UNL     1      48.418   8.087  11.970  0.00  0.00    +0.000 C 
ENDROOT
BRANCH   1   2
ATOM      2  C   UNL     1      48.526   8.042  13.474  0.00  0.00    +0.000 A 
ATOM      3  C   UNL     1      49.381   7.123  14.090  0.00  0.00    +0.000 A 
ATOM      4  C   UNL     1      49.576   7.140  15.477  0.00  0.00    +0.000 A 
ATOM      5  C   UNL     1      48.909   8.065  16.293  0.00  0.00    +0.000 A 
ATOM      6  C   UNL     1      47.999   8.940  15.678  0.00  0.00    +0.000 A 
ATOM      7  C   UNL     1      47.805   8.924  14.287  0.00  0.00    +0.000 A 
BRANCH   5   8
ATOM      8  C   UNL     1      49.155   8.184  17.791  0.00  0.00    +0.000 C 
BRANCH   8   9
ATOM      9  C   UNL     1      49.659   6.904  18.475  0.00  0.00    +0.000 C 
BRANCH   9  10
ATOM     10  N   UNL     1      48.567   6.046  18.920  0.00  0.00    +0.000 N 
ATOM     11  C   UNL     1      48.550   4.823  18.247  0.00  0.00    +0.000 A 
ATOM     12  N   UNL     1      49.700   4.267  17.829  0.00  0.00    +0.000 NA
ATOM     13  C   UNL     1      49.620   3.106  17.155  0.00  0.00    +0.000 A 
ATOM     14  C   UNL     1      48.436   2.474  16.883  0.00  0.00    +0.000 A 
ATOM     15  C   UNL     1      47.315   3.115  17.350  0.00  0.00    +0.000 A 
ATOM     16  N   UNL     1      47.345   4.285  18.022  0.00  0.00    +0.000 NA
ATOM     17  H   UNL     1      47.631   6.423  18.816  0.00  0.00    +0.000 HD
ENDBRANCH   9  10
ENDBRANCH   8   9
ENDBRANCH   5   8
ENDBRANCH   1   2
BRANCH   1  20
ATOM     18  C   UNL     1      46.319   6.965  11.357  0.00  0.00    +0.000 C 
ATOM     19  O   UNL     1      45.658   7.931  11.728  0.00  0.00    +0.000 OA
ATOM     20  N   UNL     1      47.689   6.966  11.434  0.00  0.00    +0.000 N 
ATOM     21  H   UNL     1      48.223   6.179  11.097  0.00  0.00    +0.000 HD
BRANCH  18  29
ATOM     22  C   UNL     1      44.659   4.359  12.858  0.00  0.00    +0.000 A 
ATOM     23  N   UNL     1      43.879   3.309  13.178  0.00  0.00    +0.000 NA
ATOM     24  C   UNL     1      43.410   2.553  12.181  0.00  0.00    +0.000 A 
ATOM     25  N   UNL     1      43.647   2.704  10.879  0.00  0.00    +0.000 NA
ATOM     26  C   UNL     1      44.415   3.772  10.606  0.00  0.00    +0.000 A 
ATOM     27  S   UNL     1      44.843   4.112   8.999  0.00  0.00    +0.000 S 
ATOM     28  C   UNL     1      45.702   5.502   9.471  0.00  0.00    +0.000 A 
ATOM     29  C   UNL     1      45.669   5.747  10.839  0.00  0.00    +0.000 A 
ATOM     30  C   UNL     1      44.941   4.679  11.519  0.00  0.00    +0.000 A 
BRANCH  22  32
ATOM     31  C   UNL     1      46.480   4.778  14.262  0.00  0.00    +0.000 C 
ATOM     32  O   UNL     1      45.154   5.137  13.882  0.00  0.00    +0.000 OA
ENDBRANCH  22  32
ENDBRANCH  18  29
ENDBRANCH   1  20
TORSDOF 7
ENDMDL
MODEL 7
REMARK VINA RESULT:    -6.409      2.009      3.525
REMARK INTER + INTRA:         -10.333
REMARK INTER:                  -9.320
REMARK INTRA:                  -1.013
REMARK UNBOUND:                -1.301
REMARK  Name = 
REMARK  8 active torsions:
REMARK  status: ('A' for Active; 'I' for Inactive)
REMARK    1  A    between atoms: C_1  and  O_2
REMARK    2  A    between atoms: O_2  and  C_3
REMARK    3  A    between atoms: C_10  and  C_11
REMARK    4  A    between atoms: N_13  and  C_14
REMARK    5  A    between atoms: C_14  and  C_15
REMARK    6  A    between atoms: C_18  and  C_19
REMARK    7  A    between atoms: C_19  and  C_20
REMARK    8  A    between atoms: C_20  and  N_21
REMARK                            x       y       z     vdW  Elec       q    Type
REMARK                         _______ _______ _______ _____ _____    ______ ____
ROOT
ATOM      1  C   UNL     1      47.143   4.325  15.033  0.00  0.00    +0.000 C 
ENDROOT
BRANCH   1   2
ATOM      2  C   UNL     1      46.340   4.668  13.803  0.00  0.00    +0.000 A 
ATOM      3  C   UNL     1      46.862   5.542  12.844  0.00  0.00    +0.000 A 
ATOM      4  C   UNL     1      46.178   5.785  11.646  0.00  0.00    +0.000 A 
ATOM      5  C   UNL     1      44.943   5.177  11.377  0.00  0.00    +0.000 A 
ATOM      6  C   UNL     1      44.392   4.355  12.373  0.00  0.00    +0.000 A 
ATOM      7  C   UNL     1      45.077   4.109  13.573  0.00  0.00    +0.000 A 
BRANCH   5   8
ATOM      8  C   UNL     1      44.206   5.337  10.055  0.00  0.00    +0.000 C 
BRANCH   8   9
ATOM      9  C   UNL     1      44.116   4.065   9.198  0.00  0.00    +0.000 C 
BRANCH   9  10
ATOM     10  N   UNL     1      45.182   3.117   9.498  0.00  0.00    +0.000 N 
ATOM     11  C   UNL     1      45.897   2.750   8.357  0.00  0.00    +0.000 A 
ATOM     12  N   UNL     1      46.054   3.624   7.349  0.00  0.00    +0.000 NA
ATOM     13  C   UNL     1      46.723   3.204   6.260  0.00  0.00    +0.000 A 
ATOM     14  C   UNL     1      47.243   1.943   6.137  0.00  0.00    +0.000 A 
ATOM     15  C   UNL     1      47.036   1.121   7.216  0.00  0.00    +0.000 A 
ATOM     16  N   UNL     1      46.364   1.494   8.326  0.00  0.00    +0.000 NA
ATOM     17  H   UNL     1      44.896   2.243   9.929  0.00  0.00    +0.000 HD
ENDBRANCH   9  10
ENDBRANCH   8   9
ENDBRANCH   5   8
ENDBRANCH   1   2
BRANCH   1  20
ATOM     18  C   UNL     1      48.634   5.491  16.600  0.00  0.00    +0.000 C 
ATOM     19  O   UNL     1      49.344   4.495  16.713  0.00  0.00    +0.000 OA
ATOM     20  N   UNL     1      47.532   5.492  15.782  0.00  0.00    +0.000 N 
ATOM     21  H   UNL     1      46.974   6.326  15.674  0.00  0.00    +0.000 HD
BRANCH  18  29
ATOM     22  C   UNL     1      48.843   8.808  15.730  0.00  0.00    +0.000 A 
ATOM     23  N   UNL     1      48.861  10.153  15.677  0.00  0.00    +0.000 NA
ATOM     24  C   UNL     1      49.033  10.821  16.823  0.00  0.00    +0.000 A 
ATOM     25  N   UNL     1      49.217  10.301  18.035  0.00  0.00    +0.000 NA
ATOM     26  C   UNL     1      49.175   8.958  18.041  0.00  0.00    +0.000 A 
ATOM     27  S   UNL     1      49.413   8.115  19.496  0.00  0.00    +0.000 S 
ATOM     28  C   UNL     1      49.190   6.617  18.721  0.00  0.00    +0.000 A 
ATOM     29  C   UNL     1      48.916   6.721  17.362  0.00  0.00    +0.000 A 
ATOM     30  C   UNL     1      48.961   8.122  16.950  0.00  0.00    +0.000 A 
BRANCH  22  32
ATOM     31  C   UNL     1      49.890   7.954  13.823  0.00  0.00    +0.000 C 
ATOM     32  O   UNL     1      48.676   8.113  14.552  0.00  0.00    +0.000 OA
ENDBRANCH  22  32
ENDBRANCH  18  29
ENDBRANCH   1  20
TORSDOF 7
ENDMDL
MODEL 8
REMARK VINA RESULT:    -6.317      3.351      4.916
REMARK INTER + INTRA:         -10.203
REMARK INTER:                  -9.118
REMARK INTRA:                  -1.084
REMARK UNBOUND:                -1.301
REMARK  Name = 
REMARK  8 active torsions:
REMARK  status: ('A' for Active; 'I' for Inactive)
REMARK    1  A    between atoms: C_1  and  O_2
REMARK    2  A    between atoms: O_2  and  C_3
REMARK    3  A    between atoms: C_10  and  C_11
REMARK    4  A    between atoms: N_13  and  C_14
REMARK    5  A    between atoms: C_14  and  C_15
REMARK    6  A    between atoms: C_18  and  C_19
REMARK    7  A    between atoms: C_19  and  C_20
REMARK    8  A    between atoms: C_20  and  N_21
REMARK                            x       y       z     vdW  Elec       q    Type
REMARK                         _______ _______ _______ _____ _____    ______ ____
ROOT
ATOM      1  C   UNL     1      47.728   8.253  14.116  0.00  0.00    +0.000 C 
ENDROOT
BRANCH   1   2
ATOM      2  C   UNL     1      46.769   7.527  13.206  0.00  0.00    +0.000 A 
ATOM      3  C   UNL     1      46.815   6.134  13.102  0.00  0.00    +0.000 A 
ATOM      4  C   UNL     1      45.863   5.437  12.348  0.00  0.00    +0.000 A 
ATOM      5  C   UNL     1      44.844   6.112  11.660  0.00  0.00    +0.000 A 
ATOM      6  C   UNL     1      44.844   7.515  11.711  0.00  0.00    +0.000 A 
ATOM      7  C   UNL     1      45.797   8.215  12.469  0.00  0.00    +0.000 A 
BRANCH   5   8
ATOM      8  C   UNL     1      43.734   5.397  10.903  0.00  0.00    +0.000 C 
BRANCH   8   9
ATOM      9  C   UNL     1      44.175   4.153  10.116  0.00  0.00    +0.000 C 
BRANCH   9  10
ATOM     10  N   UNL     1      44.514   4.465   8.732  0.00  0.00    +0.000 N 
ATOM     11  C   UNL     1      45.416   3.546   8.191  0.00  0.00    +0.000 A 
ATOM     12  N   UNL     1      45.398   2.265   8.596  0.00  0.00    +0.000 NA
ATOM     13  C   UNL     1      46.313   1.433   8.066  0.00  0.00    +0.000 A 
ATOM     14  C   UNL     1      47.246   1.829   7.146  0.00  0.00    +0.000 A 
ATOM     15  C   UNL     1      47.187   3.154   6.792  0.00  0.00    +0.000 A 
ATOM     16  N   UNL     1      46.294   4.028   7.302  0.00  0.00    +0.000 NA
ATOM     17  H   UNL     1      44.928   5.376   8.567  0.00  0.00    +0.000 HD
ENDBRANCH   9  10
ENDBRANCH   8   9
ENDBRANCH   5   8
ENDBRANCH   1   2
BRANCH   1  20
ATOM     18  C   UNL     1      50.132   8.675  14.404  0.00  0.00    +0.000 C 
ATOM     19  O   UNL     1      49.919   9.397  15.375  0.00  0.00    +0.000 OA
ATOM     20  N   UNL     1      49.104   8.064  13.732  0.00  0.00    +0.000 N 
ATOM     21  H   UNL     1      49.293   7.448  12.955  0.00  0.00    +0.000 HD
BRANCH  18  29
ATOM     22  C   UNL     1      51.567   8.940  11.295  0.00  0.00    +0.000 A 
ATOM     23  N   UNL     1      52.383   9.082  10.232  0.00  0.00    +0.000 NA
ATOM     24  C   UNL     1      53.689   8.866  10.414  0.00  0.00    +0.000 A 
ATOM     25  N   UNL     1      54.292   8.496  11.543  0.00  0.00    +0.000 NA
ATOM     26  C   UNL     1      53.443   8.383  12.578  0.00  0.00    +0.000 A 
ATOM     27  S   UNL     1      54.028   7.897  14.097  0.00  0.00    +0.000 S 
ATOM     28  C   UNL     1      52.479   8.028  14.789  0.00  0.00    +0.000 A 
ATOM     29  C   UNL     1      51.499   8.456  13.900  0.00  0.00    +0.000 A 
ATOM     30  C   UNL     1      52.072   8.616  12.566  0.00  0.00    +0.000 A 
BRANCH  22  32
ATOM     31  C   UNL     1      49.861  10.530  11.139  0.00  0.00    +0.000 C 
ATOM     32  O   UNL     1      50.218   9.151  11.112  0.00  0.00    +0.000 OA
ENDBRANCH  22  32
ENDBRANCH  18  29
ENDBRANCH   1  20
TORSDOF 7
ENDMDL
MODEL 9
REMARK VINA RESULT:    -6.051      5.335      7.410
REMARK INTER + INTRA:          -9.828
REMARK INTER:                  -8.838
REMARK INTRA:                  -0.991
REMARK UNBOUND:                -1.301
REMARK  Name = 
REMARK  8 active torsions:
REMARK  status: ('A' for Active; 'I' for Inactive)
REMARK    1  A    between atoms: C_1  and  O_2
REMARK    2  A    between atoms: O_2  and  C_3
REMARK    3  A    between atoms: C_10  and  C_11
REMARK    4  A    between atoms: N_13  and  C_14
REMARK    5  A    between atoms: C_14  and  C_15
REMARK    6  A    between atoms: C_18  and  C_19
REMARK    7  A    between atoms: C_19  and  C_20
REMARK    8  A    between atoms: C_20  and  N_21
REMARK                            x       y       z     vdW  Elec       q    Type
REMARK                         _______ _______ _______ _____ _____    ______ ____
ROOT
ATOM      1  C   UNL     1      51.340   8.906  11.476  0.00  0.00    +0.000 C 
ENDROOT
BRANCH   1   2
ATOM      2  C   UNL     1      49.892   8.563  11.719  0.00  0.00    +0.000 A 
ATOM      3  C   UNL     1      49.524   7.252  12.039  0.00  0.00    +0.000 A 
ATOM      4  C   UNL     1      48.201   6.939  12.375  0.00  0.00    +0.000 A 
ATOM      5  C   UNL     1      47.201   7.922  12.384  0.00  0.00    +0.000 A 
ATOM      6  C   UNL     1      47.562   9.222  11.995  0.00  0.00    +0.000 A 
ATOM      7  C   UNL     1      48.888   9.537  11.661  0.00  0.00    +0.000 A 
BRANCH   5   8
ATOM      8  C   UNL     1      45.770   7.651  12.829  0.00  0.00    +0.000 C 
BRANCH   8   9
ATOM      9  C   UNL     1      44.906   6.882  11.819  0.00  0.00    +0.000 C 
BRANCH   9  10
ATOM     10  N   UNL     1      44.945   5.441  12.038  0.00  0.00    +0.000 N 
ATOM     11  C   UNL     1      44.992   4.727  10.839  0.00  0.00    +0.000 A 
ATOM     12  N   UNL     1      45.609   5.249   9.767  0.00  0.00    +0.000 NA
ATOM     13  C   UNL     1      45.593   4.532   8.629  0.00  0.00    +0.000 A 
ATOM     14  C   UNL     1      44.986   3.310   8.519  0.00  0.00    +0.000 A 
ATOM     15  C   UNL     1      44.383   2.855   9.666  0.00  0.00    +0.000 A 
ATOM     16  N   UNL     1      44.365   3.543  10.827  0.00  0.00    +0.000 NA
ATOM     17  H   UNL     1      44.167   5.046  12.556  0.00  0.00    +0.000 HD
ENDBRANCH   9  10
ENDBRANCH   8   9
ENDBRANCH   5   8
ENDBRANCH   1   2
BRANCH   1  20
ATOM     18  C   UNL     1      53.097   7.877  10.099  0.00  0.00    +0.000 C 
ATOM     19  O   UNL     1      53.367   8.958   9.582  0.00  0.00    +0.000 OA
ATOM     20  N   UNL     1      52.115   7.768  11.051  0.00  0.00    +0.000 N 
ATOM     21  H   UNL     1      51.923   6.881  11.492  0.00  0.00    +0.000 HD
BRANCH  18  29
ATOM     22  C   UNL     1      53.102   5.998   7.224  0.00  0.00    +0.000 A 
ATOM     23  N   UNL     1      53.372   5.173   6.195  0.00  0.00    +0.000 NA
ATOM     24  C   UNL     1      54.294   4.222   6.382  0.00  0.00    +0.000 A 
ATOM     25  N   UNL     1      54.975   3.974   7.498  0.00  0.00    +0.000 NA
ATOM     26  C   UNL     1      54.685   4.831   8.491  0.00  0.00    +0.000 A 
ATOM     27  S   UNL     1      55.440   4.656  10.002  0.00  0.00    +0.000 S 
ATOM     28  C   UNL     1      54.632   6.020  10.619  0.00  0.00    +0.000 A 
ATOM     29  C   UNL     1      53.795   6.642   9.699  0.00  0.00    +0.000 A 
ATOM     30  C   UNL     1      53.791   5.895   8.444  0.00  0.00    +0.000 A 
BRANCH  22  32
ATOM     31  C   UNL     1      52.629   8.096   6.309  0.00  0.00    +0.000 C 
ATOM     32  O   UNL     1      52.146   6.973   7.041  0.00  0.00    +0.000 OA
ENDBRANCH  22  32
ENDBRANCH  18  29
ENDBRANCH   1  20
TORSDOF 7
ENDMDL
