MODEL 1
REMARK VINA RESULT:    -8.945      0.000      0.000
REMARK INTER + INTRA:         -11.429
REMARK INTER:                 -11.037
REMARK INTRA:                  -0.392
REMARK UNBOUND:                -0.392
REMARK  Name = 
REMARK  5 active torsions:
REMARK  status: ('A' for Active; 'I' for Inactive)
REMARK    1  A    between atoms: C_1  and  C_2
REMARK    2  A    between atoms: C_4  and  C_5
REMARK    3  A    between atoms: N_10  and  C_11
REMARK    4  A    between atoms: C_11  and  C_12
REMARK    5  A    between atoms: C_14  and  C_15
REMARK                            x       y       z     vdW  Elec       q    Type
REMARK                         _______ _______ _______ _____ _____    ______ ____
ROOT
ATOM      1  C   UNL     1      49.057   8.718  13.744  0.00  0.00    +0.000 C 
ATOM      2  C   UNL     1      48.078   7.602  13.543  0.00  0.00    +0.000 A 
ATOM      3  C   UNL     1      48.120   6.477  14.325  0.00  0.00    +0.000 A 
ATOM      4  C   UNL     1      47.170   5.526  14.031  0.00  0.00    +0.000 A 
ATOM      5  N   UNL     1      46.245   5.636  13.045  0.00  0.00    +0.000 NA
ATOM      6  C   UNL     1      46.299   6.760  12.326  0.00  0.00    +0.000 A 
ATOM      7  N   UNL     1      45.449   6.958  11.249  0.00  0.00    +0.000 N 
ATOM      8  N   UNL     1      47.174   7.751  12.552  0.00  0.00    +0.000 NA
ATOM      9  H   UNL     1      45.467   7.955  11.061  0.00  0.00    +0.000 HD
ENDROOT
BRANCH   4  10
ATOM     10  C   UNL     1      47.146   4.262  14.831  0.00  0.00    +0.000 C 
ATOM     11  N   UNL     1      46.775   4.396  16.141  0.00  0.00    +0.000 N 
ATOM     12  O   UNL     1      47.436   3.172  14.353  0.00  0.00    +0.000 OA
ATOM     13  H   UNL     1      46.508   5.306  16.498  0.00  0.00    +0.000 HD
ATOM     14  H   UNL     1      46.709   3.576  16.726  0.00  0.00    +0.000 HD
ENDBRANCH   4  10
BRANCH   7  15
ATOM     15  C   UNL     1      44.125   6.388  11.384  0.00  0.00    +0.000 C 
BRANCH  15  16
ATOM     16  C   UNL     1      44.163   4.932  10.988  0.00  0.00    +0.000 A 
ATOM     17  C   UNL     1      44.895   4.506   9.863  0.00  0.00    +0.000 A 
ATOM     18  C   UNL     1      44.937   3.153   9.459  0.00  0.00    +0.000 A 
ATOM     19  C   UNL     1      44.200   2.231  10.226  0.00  0.00    +0.000 A 
ATOM     20  C   UNL     1      43.464   2.639  11.344  0.00  0.00    +0.000 A 
ATOM     21  C   UNL     1      43.448   3.980  11.710  0.00  0.00    +0.000 A 
ATOM     22  F   UNL     1      42.730   4.349  12.780  0.00  0.00    +0.000 F 
BRANCH  18  23
ATOM     23  C   UNL     1      45.730   2.727   8.282  0.00  0.00    +0.000 A 
ATOM     24  C   UNL     1      46.011   3.594   7.215  0.00  0.00    +0.000 A 
ATOM     25  C   UNL     1      46.789   3.174   6.136  0.00  0.00    +0.000 A 
ATOM     26  C   UNL     1      47.265   1.877   6.134  0.00  0.00    +0.000 A 
ATOM     27  N   UNL     1      47.017   0.995   7.121  0.00  0.00    +0.000 NA
ATOM     28  C   UNL     1      46.267   1.441   8.162  0.00  0.00    +0.000 A 
ENDBRANCH  18  23
ENDBRANCH  15  16
ENDBRANCH   7  15
TORSDOF 4
ENDMDL
MODEL 2
REMARK VINA RESULT:    -7.858      1.959      2.452
REMARK INTER + INTRA:         -10.089
REMARK INTER:                  -9.502
REMARK INTRA:                  -0.587
REMARK UNBOUND:                -0.392
REMARK  Name = 
REMARK  5 active torsions:
REMARK  status: ('A' for Active; 'I' for Inactive)
REMARK    1  A    between atoms: C_1  and  C_2
REMARK    2  A    between atoms: C_4  and  C_5
REMARK    3  A    between atoms: N_10  and  C_11
REMARK    4  A    between atoms: C_11  and  C_12
REMARK    5  A    between atoms: C_14  and  C_15
REMARK                            x       y       z     vdW  Elec       q    Type
REMARK                         _______ _______ _______ _____ _____    ______ ____
ROOT
ATOM      1  C   UNL     1      50.279   7.570  15.666  0.00  0.00    +0.000 C 
ATOM      2  C   UNL     1      49.271   6.467  15.769  0.00  0.00    +0.000 A 
ATOM      3  C   UNL     1      49.150   5.727  16.916  0.00  0.00    +0.000 A 
ATOM      4  C   UNL     1      48.191   4.740  16.877  0.00  0.00    +0.000 A 
ATOM      5  N   UNL     1      47.404   4.471  15.805  0.00  0.00    +0.000 NA
ATOM      6  C   UNL     1      47.610   5.234  14.730  0.00  0.00    +0.000 A 
ATOM      7  N   UNL     1      46.913   5.010  13.553  0.00  0.00    +0.000 N 
ATOM      8  N   UNL     1      48.506   6.231  14.682  0.00  0.00    +0.000 NA
ATOM      9  H   UNL     1      47.011   5.860  13.006  0.00  0.00    +0.000 HD
ENDROOT
BRANCH   4  10
ATOM     10  C   UNL     1      47.996   3.879  18.084  0.00  0.00    +0.000 C 
ATOM     11  N   UNL     1      47.150   2.816  17.924  0.00  0.00    +0.000 N 
ATOM     12  O   UNL     1      48.556   4.101  19.151  0.00  0.00    +0.000 OA
ATOM     13  H   UNL     1      46.730   2.639  17.019  0.00  0.00    +0.000 HD
ATOM     14  H   UNL     1      47.001   2.178  18.692  0.00  0.00    +0.000 HD
ENDBRANCH   4  10
BRANCH   7  15
ATOM     15  C   UNL     1      45.552   4.543  13.711  0.00  0.00    +0.000 C 
BRANCH  15  16
ATOM     16  C   UNL     1      44.877   4.500  12.363  0.00  0.00    +0.000 A 
ATOM     17  C   UNL     1      45.500   3.887  11.259  0.00  0.00    +0.000 A 
ATOM     18  C   UNL     1      44.899   3.845   9.981  0.00  0.00    +0.000 A 
ATOM     19  C   UNL     1      43.639   4.457   9.844  0.00  0.00    +0.000 A 
ATOM     20  C   UNL     1      43.008   5.074  10.930  0.00  0.00    +0.000 A 
ATOM     21  C   UNL     1      43.632   5.094  12.172  0.00  0.00    +0.000 A 
ATOM     22  F   UNL     1      43.013   5.698  13.196  0.00  0.00    +0.000 F 
BRANCH  18  23
ATOM     23  C   UNL     1      45.568   3.177   8.840  0.00  0.00    +0.000 A 
ATOM     24  C   UNL     1      46.060   3.893   7.737  0.00  0.00    +0.000 A 
ATOM     25  C   UNL     1      46.716   3.240   6.693  0.00  0.00    +0.000 A 
ATOM     26  C   UNL     1      46.857   1.867   6.762  0.00  0.00    +0.000 A 
ATOM     27  N   UNL     1      46.394   1.125   7.786  0.00  0.00    +0.000 NA
ATOM     28  C   UNL     1      45.772   1.795   8.791  0.00  0.00    +0.000 A 
ENDBRANCH  18  23
ENDBRANCH  15  16
ENDBRANCH   7  15
TORSDOF 4
ENDMDL
MODEL 3
REMARK VINA RESULT:    -7.749      1.702      2.667
REMARK INTER + INTRA:          -9.953
REMARK INTER:                  -9.289
REMARK INTRA:                  -0.664
REMARK UNBOUND:                -0.392
REMARK  Name = 
REMARK  5 active torsions:
REMARK  status: ('A' for Active; 'I' for Inactive)
REMARK    1  A    between atoms: C_1  and  C_2
REMARK    2  A    between atoms: C_4  and  C_5
REMARK    3  A    between atoms: N_10  and  C_11
REMARK    4  A    between atoms: C_11  and  C_12
REMARK    5  A    between atoms: C_14  and  C_15
REMARK                            x       y       z     vdW  Elec       q    Type
REMARK                         _______ _______ _______ _____ _____    ______ ____
ROOT
ATOM      1  C   UNL     1      48.681   5.962  15.709  0.00  0.00    +0.000 C 
ATOM      2  C   UNL     1      48.195   6.591  14.439  0.00  0.00    +0.000 A 
ATOM      3  C   UNL     1      49.050   7.286  13.624  0.00  0.00    +0.000 A 
ATOM      4  C   UNL     1      48.475   7.820  12.494  0.00  0.00    +0.000 A 
ATOM      5  N   UNL     1      47.163   7.705  12.167  0.00  0.00    +0.000 NA
ATOM      6  C   UNL     1      46.409   7.026  13.033  0.00  0.00    +0.000 A 
ATOM      7  N   UNL     1      45.041   6.900  12.842  0.00  0.00    +0.000 N 
ATOM      8  N   UNL     1      46.883   6.454  14.150  0.00  0.00    +0.000 NA
ATOM      9  H   UNL     1      44.749   6.127  13.431  0.00  0.00    +0.000 HD
ENDROOT
BRANCH   4  10
ATOM     10  C   UNL     1      49.333   8.601  11.550  0.00  0.00    +0.000 C 
ATOM     11  N   UNL     1      48.917   9.877  11.286  0.00  0.00    +0.000 N 
ATOM     12  O   UNL     1      50.348   8.137  11.043  0.00  0.00    +0.000 OA
ATOM     13  H   UNL     1      48.093  10.242  11.748  0.00  0.00    +0.000 HD
ATOM     14  H   UNL     1      49.470  10.465  10.681  0.00  0.00    +0.000 HD
ENDBRANCH   4  10
BRANCH   7  15
ATOM     15  C   UNL     1      44.609   6.811  11.463  0.00  0.00    +0.000 C 
BRANCH  15  16
ATOM     16  C   UNL     1      44.425   5.361  11.088  0.00  0.00    +0.000 A 
ATOM     17  C   UNL     1      45.113   4.803   9.993  0.00  0.00    +0.000 A 
ATOM     18  C   UNL     1      44.949   3.453   9.609  0.00  0.00    +0.000 A 
ATOM     19  C   UNL     1      44.052   2.675  10.365  0.00  0.00    +0.000 A 
ATOM     20  C   UNL     1      43.359   3.215  11.453  0.00  0.00    +0.000 A 
ATOM     21  C   UNL     1      43.547   4.547  11.800  0.00  0.00    +0.000 A 
ATOM     22  F   UNL     1      42.866   5.046  12.842  0.00  0.00    +0.000 F 
BRANCH  18  23
ATOM     23  C   UNL     1      45.698   2.885   8.463  0.00  0.00    +0.000 A 
ATOM     24  C   UNL     1      46.097   3.666   7.368  0.00  0.00    +0.000 A 
ATOM     25  C   UNL     1      46.831   3.110   6.320  0.00  0.00    +0.000 A 
ATOM     26  C   UNL     1      47.143   1.765   6.377  0.00  0.00    +0.000 A 
ATOM     27  N   UNL     1      46.776   0.961   7.394  0.00  0.00    +0.000 NA
ATOM     28  C   UNL     1      46.074   1.539   8.403  0.00  0.00    +0.000 A 
ENDBRANCH  18  23
ENDBRANCH  15  16
ENDBRANCH   7  15
TORSDOF 4
ENDMDL
MODEL 4
REMARK VINA RESULT:    -7.660      3.395      5.469
REMARK INTER + INTRA:          -9.843
REMARK INTER:                  -9.018
REMARK INTRA:                  -0.825
REMARK UNBOUND:                -0.392
REMARK  Name = 
REMARK  5 active torsions:
REMARK  status: ('A' for Active; 'I' for Inactive)
REMARK    1  A    between atoms: C_1  and  C_2
REMARK    2  A    between atoms: C_4  and  C_5
REMARK    3  A    between atoms: N_10  and  C_11
REMARK    4  A    between atoms: C_11  and  C_12
REMARK    5  A    between atoms: C_14  and  C_15
REMARK                            x       y       z     vdW  Elec       q    Type
REMARK                         _______ _______ _______ _____ _____    ______ ____
ROOT
ATOM      1  C   UNL     1      47.193   5.924  19.906  0.00  0.00    +0.000 C 
ATOM      2  C   UNL     1      47.943   5.522  18.673  0.00  0.00    +0.000 A 
ATOM      3  C   UNL     1      48.354   4.228  18.488  0.00  0.00    +0.000 A 
ATOM      4  C   UNL     1      49.039   3.994  17.317  0.00  0.00    +0.000 A 
ATOM      5  N   UNL     1      49.322   4.939  16.386  0.00  0.00    +0.000 NA
ATOM      6  C   UNL     1      48.895   6.173  16.666  0.00  0.00    +0.000 A 
ATOM      7  N   UNL     1      49.182   7.235  15.823  0.00  0.00    +0.000 N 
ATOM      8  N   UNL     1      48.203   6.492  17.770  0.00  0.00    +0.000 NA
ATOM      9  H   UNL     1      48.530   7.971  16.072  0.00  0.00    +0.000 HD
ENDROOT
BRANCH   4  10
ATOM     10  C   UNL     1      49.532   2.610  17.036  0.00  0.00    +0.000 C 
ATOM     11  N   UNL     1      50.508   2.146  17.875  0.00  0.00    +0.000 N 
ATOM     12  O   UNL     1      49.094   1.927  16.118  0.00  0.00    +0.000 OA
ATOM     13  H   UNL     1      50.824   2.722  18.646  0.00  0.00    +0.000 HD
ATOM     14  H   UNL     1      50.860   1.208  17.757  0.00  0.00    +0.000 HD
ENDBRANCH   4  10
BRANCH   7  15
ATOM     15  C   UNL     1      49.230   6.917  14.412  0.00  0.00    +0.000 C 
BRANCH  15  16
ATOM     16  C   UNL     1      47.873   7.154  13.798  0.00  0.00    +0.000 A 
ATOM     17  C   UNL     1      47.091   6.080  13.332  0.00  0.00    +0.000 A 
ATOM     18  C   UNL     1      45.823   6.271  12.739  0.00  0.00    +0.000 A 
ATOM     19  C   UNL     1      45.365   7.597  12.617  0.00  0.00    +0.000 A 
ATOM     20  C   UNL     1      46.132   8.676  13.071  0.00  0.00    +0.000 A 
ATOM     21  C   UNL     1      47.374   8.446  13.650  0.00  0.00    +0.000 A 
ATOM     22  F   UNL     1      48.095   9.495  14.070  0.00  0.00    +0.000 F 
BRANCH  18  23
ATOM     23  C   UNL     1      45.011   5.122  12.273  0.00  0.00    +0.000 A 
ATOM     24  C   UNL     1      44.773   4.877  10.912  0.00  0.00    +0.000 A 
ATOM     25  C   UNL     1      44.033   3.767  10.502  0.00  0.00    +0.000 A 
ATOM     26  C   UNL     1      43.526   2.921  11.471  0.00  0.00    +0.000 A 
ATOM     27  N   UNL     1      43.709   3.112  12.791  0.00  0.00    +0.000 NA
ATOM     28  C   UNL     1      44.445   4.195  13.154  0.00  0.00    +0.000 A 
ENDBRANCH  18  23
ENDBRANCH  15  16
ENDBRANCH   7  15
TORSDOF 4
ENDMDL
MODEL 5
REMARK VINA RESULT:    -7.492      2.372      3.425
REMARK INTER + INTRA:          -9.636
REMARK INTER:                  -9.060
REMARK INTRA:                  -0.576
REMARK UNBOUND:                -0.392
REMARK  Name = 
REMARK  5 active torsions:
REMARK  status: ('A' for Active; 'I' for Inactive)
REMARK    1  A    between atoms: C_1  and  C_2
REMARK    2  A    between atoms: C_4  and  C_5
REMARK    3  A    between atoms: N_10  and  C_11
REMARK    4  A    between atoms: C_11  and  C_12
REMARK    5  A    between atoms: C_14  and  C_15
REMARK                            x       y       z     vdW  Elec       q    Type
REMARK                         _______ _______ _______ _____ _____    ______ ____
ROOT
ATOM      1  C   UNL     1      49.587   1.771  16.998  0.00  0.00    +0.000 C 
ATOM      2  C   UNL     1      48.872   3.050  16.688  0.00  0.00    +0.000 A 
ATOM      3  C   UNL     1      49.149   4.199  17.381  0.00  0.00    +0.000 A 
ATOM      4  C   UNL     1      48.417   5.301  17.003  0.00  0.00    +0.000 A 
ATOM      5  N   UNL     1      47.471   5.303  16.030  0.00  0.00    +0.000 NA
ATOM      6  C   UNL     1      47.261   4.131  15.427  0.00  0.00    +0.000 A 
ATOM      7  N   UNL     1      46.273   3.993  14.463  0.00  0.00    +0.000 N 
ATOM      8  N   UNL     1      47.939   3.010  15.713  0.00  0.00    +0.000 NA
ATOM      9  H   UNL     1      46.495   3.141  13.959  0.00  0.00    +0.000 HD
ENDROOT
BRANCH   4  10
ATOM     10  C   UNL     1      48.650   6.598  17.711  0.00  0.00    +0.000 C 
ATOM     11  N   UNL     1      47.525   7.259  18.123  0.00  0.00    +0.000 N 
ATOM     12  O   UNL     1      49.771   7.046  17.917  0.00  0.00    +0.000 OA
ATOM     13  H   UNL     1      46.614   6.846  17.970  0.00  0.00    +0.000 HD
ATOM     14  H   UNL     1      47.617   8.124  18.635  0.00  0.00    +0.000 HD
ENDBRANCH   4  10
BRANCH   7  15
ATOM     15  C   UNL     1      46.048   5.153  13.628  0.00  0.00    +0.000 C 
BRANCH  15  16
ATOM     16  C   UNL     1      45.173   4.768  12.460  0.00  0.00    +0.000 A 
ATOM     17  C   UNL     1      45.728   4.215  11.290  0.00  0.00    +0.000 A 
ATOM     18  C   UNL     1      44.937   3.859  10.175  0.00  0.00    +0.000 A 
ATOM     19  C   UNL     1      43.551   4.091  10.272  0.00  0.00    +0.000 A 
ATOM     20  C   UNL     1      42.985   4.643  11.426  0.00  0.00    +0.000 A 
ATOM     21  C   UNL     1      43.797   4.979  12.502  0.00  0.00    +0.000 A 
ATOM     22  F   UNL     1      43.234   5.515  13.594  0.00  0.00    +0.000 F 
BRANCH  18  23
ATOM     23  C   UNL     1      45.543   3.262   8.962  0.00  0.00    +0.000 A 
ATOM     24  C   UNL     1      46.032   4.046   7.906  0.00  0.00    +0.000 A 
ATOM     25  C   UNL     1      46.629   3.456   6.792  0.00  0.00    +0.000 A 
ATOM     26  C   UNL     1      46.713   2.077   6.744  0.00  0.00    +0.000 A 
ATOM     27  N   UNL     1      46.250   1.272   7.719  0.00  0.00    +0.000 NA
ATOM     28  C   UNL     1      45.686   1.881   8.795  0.00  0.00    +0.000 A 
ENDBRANCH  18  23
ENDBRANCH  15  16
ENDBRANCH   7  15
TORSDOF 4
ENDMDL
MODEL 6
REMARK VINA RESULT:    -7.288      2.718      6.556
REMARK INTER + INTRA:          -9.385
REMARK INTER:                  -8.520
REMARK INTRA:                  -0.865
REMARK UNBOUND:                -0.392
REMARK  Name = 
REMARK  5 active torsions:
REMARK  status: ('A' for Active; 'I' for Inactive)
REMARK    1  A    between atoms: C_1  and  C_2
REMARK    2  A    between atoms: C_4  and  C_5
REMARK    3  A    between atoms: N_10  and  C_11
REMARK    4  A    between atoms: C_11  and  C_12
REMARK    5  A    between atoms: C_14  and  C_15
REMARK                            x       y       z     vdW  Elec       q    Type
REMARK                         _______ _______ _______ _____ _____    ______ ____
ROOT
ATOM      1  C   UNL     1      45.894   3.476   7.583  0.00  0.00    +0.000 C 
ATOM      2  C   UNL     1      45.294   3.906   8.888  0.00  0.00    +0.000 A 
ATOM      3  C   UNL     1      44.663   3.004   9.705  0.00  0.00    +0.000 A 
ATOM      4  C   UNL     1      44.150   3.530  10.869  0.00  0.00    +0.000 A 
ATOM      5  N   UNL     1      44.227   4.837  11.226  0.00  0.00    +0.000 NA
ATOM      6  C   UNL     1      44.844   5.638  10.355  0.00  0.00    +0.000 A 
ATOM      7  N   UNL     1      44.925   7.004  10.578  0.00  0.00    +0.000 N 
ATOM      8  N   UNL     1      45.392   5.214   9.207  0.00  0.00    +0.000 NA
ATOM      9  H   UNL     1      45.664   7.341   9.968  0.00  0.00    +0.000 HD
ENDROOT
BRANCH   4  10
ATOM     10  C   UNL     1      43.439   2.618  11.817  0.00  0.00    +0.000 C 
ATOM     11  N   UNL     1      43.536   2.946  13.142  0.00  0.00    +0.000 N 
ATOM     12  O   UNL     1      42.804   1.640  11.441  0.00  0.00    +0.000 OA
ATOM     13  H   UNL     1      44.039   3.780  13.417  0.00  0.00    +0.000 HD
ATOM     14  H   UNL     1      43.052   2.388  13.829  0.00  0.00    +0.000 HD
ENDBRANCH   4  10
BRANCH   7  15
ATOM     15  C   UNL     1      45.049   7.405  11.963  0.00  0.00    +0.000 C 
BRANCH  15  16
ATOM     16  C   UNL     1      46.495   7.316  12.383  0.00  0.00    +0.000 A 
ATOM     17  C   UNL     1      47.468   8.162  11.817  0.00  0.00    +0.000 A 
ATOM     18  C   UNL     1      48.832   8.091  12.179  0.00  0.00    +0.000 A 
ATOM     19  C   UNL     1      49.193   7.122  13.134  0.00  0.00    +0.000 A 
ATOM     20  C   UNL     1      48.239   6.272  13.703  0.00  0.00    +0.000 A 
ATOM     21  C   UNL     1      46.907   6.372  13.322  0.00  0.00    +0.000 A 
ATOM     22  F   UNL     1      46.011   5.542  13.874  0.00  0.00    +0.000 F 
BRANCH  18  23
ATOM     23  C   UNL     1      49.834   9.005  11.581  0.00  0.00    +0.000 A 
ATOM     24  C   UNL     1      49.523  10.326  11.223  0.00  0.00    +0.000 A 
ATOM     25  C   UNL     1      50.496  11.174  10.694  0.00  0.00    +0.000 A 
ATOM     26  C   UNL     1      51.774  10.677  10.515  0.00  0.00    +0.000 A 
ATOM     27  N   UNL     1      52.129   9.416  10.827  0.00  0.00    +0.000 NA
ATOM     28  C   UNL     1      51.159   8.622  11.351  0.00  0.00    +0.000 A 
ENDBRANCH  18  23
ENDBRANCH  15  16
ENDBRANCH   7  15
TORSDOF 4
ENDMDL
MODEL 7
REMARK VINA RESULT:    -7.274      3.253      6.871
REMARK INTER + INTRA:          -9.367
REMARK INTER:                  -8.727
REMARK INTRA:                  -0.639
REMARK UNBOUND:                -0.392
REMARK  Name = 
REMARK  5 active torsions:
REMARK  status: ('A' for Active; 'I' for Inactive)
REMARK    1  A    between atoms: C_1  and  C_2
REMARK    2  A    between atoms: C_4  and  C_5
REMARK    3  A    between atoms: N_10  and  C_11
REMARK    4  A    between atoms: C_11  and  C_12
REMARK    5  A    between atoms: C_14  and  C_15
REMARK                            x       y       z     vdW  Elec       q    Type
REMARK                         _______ _______ _______ _____ _____    ______ ____
ROOT
ATOM      1  C   UNL     1      45.596   3.272   7.314  0.00  0.00    +0.000 C 
ATOM      2  C   UNL     1      45.250   3.726   8.699  0.00  0.00    +0.000 A 
ATOM      3  C   UNL     1      44.530   2.923   9.544  0.00  0.00    +0.000 A 
ATOM      4  C   UNL     1      44.273   3.463  10.784  0.00  0.00    +0.000 A 
ATOM      5  N   UNL     1      44.671   4.696  11.188  0.00  0.00    +0.000 NA
ATOM      6  C   UNL     1      45.350   5.407  10.286  0.00  0.00    +0.000 A 
ATOM      7  N   UNL     1      45.751   6.706  10.558  0.00  0.00    +0.000 N 
ATOM      8  N   UNL     1      45.665   4.958   9.062  0.00  0.00    +0.000 NA
ATOM      9  H   UNL     1      46.475   6.921   9.880  0.00  0.00    +0.000 HD
ENDROOT
BRANCH   4  10
ATOM     10  C   UNL     1      43.487   2.658  11.770  0.00  0.00    +0.000 C 
ATOM     11  N   UNL     1      43.571   3.067  13.073  0.00  0.00    +0.000 N 
ATOM     12  O   UNL     1      42.805   1.694  11.441  0.00  0.00    +0.000 OA
ATOM     13  H   UNL     1      44.115   3.889  13.307  0.00  0.00    +0.000 HD
ATOM     14  H   UNL     1      43.038   2.585  13.781  0.00  0.00    +0.000 HD
ENDBRANCH   4  10
BRANCH   7  15
ATOM     15  C   UNL     1      46.109   6.974  11.935  0.00  0.00    +0.000 C 
BRANCH  15  16
ATOM     16  C   UNL     1      47.192   8.024  11.976  0.00  0.00    +0.000 A 
ATOM     17  C   UNL     1      48.536   7.689  11.727  0.00  0.00    +0.000 A 
ATOM     18  C   UNL     1      49.574   8.647  11.774  0.00  0.00    +0.000 A 
ATOM     19  C   UNL     1      49.212   9.969  12.094  0.00  0.00    +0.000 A 
ATOM     20  C   UNL     1      47.881  10.318  12.348  0.00  0.00    +0.000 A 
ATOM     21  C   UNL     1      46.889   9.346  12.292  0.00  0.00    +0.000 A 
ATOM     22  F   UNL     1      45.622   9.701  12.546  0.00  0.00    +0.000 F 
BRANCH  18  23
ATOM     23  C   UNL     1      50.979   8.272  11.491  0.00  0.00    +0.000 A 
ATOM     24  C   UNL     1      51.327   7.415  10.435  0.00  0.00    +0.000 A 
ATOM     25  C   UNL     1      52.662   7.107  10.172  0.00  0.00    +0.000 A 
ATOM     26  C   UNL     1      53.636   7.654  10.986  0.00  0.00    +0.000 A 
ATOM     27  N   UNL     1      53.363   8.471  12.021  0.00  0.00    +0.000 NA
ATOM     28  C   UNL     1      52.054   8.759  12.241  0.00  0.00    +0.000 A 
ENDBRANCH  18  23
ENDBRANCH  15  16
ENDBRANCH   7  15
TORSDOF 4
ENDMDL
MODEL 8
REMARK VINA RESULT:    -7.214      3.965      8.777
REMARK INTER + INTRA:          -9.294
REMARK INTER:                  -8.704
REMARK INTRA:                  -0.590
REMARK UNBOUND:                -0.392
REMARK  Name = 
REMARK  5 active torsions:
REMARK  status: ('A' for Active; 'I' for Inactive)
REMARK    1  A    between atoms: C_1  and  C_2
REMARK    2  A    between atoms: C_4  and  C_5
REMARK    3  A    between atoms: N_10  and  C_11
REMARK    4  A    between atoms: C_11  and  C_12
REMARK    5  A    between atoms: C_14  and  C_15
REMARK                            x       y       z     vdW  Elec       q    Type
REMARK                         _______ _______ _______ _____ _____    ______ ____
ROOT
ATOM      1  C   UNL     1      44.849   7.901  11.409  0.00  0.00    +0.000 C 
ATOM      2  C   UNL     1      44.999   6.498  11.913  0.00  0.00    +0.000 A 
ATOM      3  C   UNL     1      44.466   5.440  11.224  0.00  0.00    +0.000 A 
ATOM      4  C   UNL     1      44.668   4.206  11.799  0.00  0.00    +0.000 A 
ATOM      5  N   UNL     1      45.330   3.997  12.964  0.00  0.00    +0.000 NA
ATOM      6  C   UNL     1      45.796   5.091  13.569  0.00  0.00    +0.000 A 
ATOM      7  N   UNL     1      46.431   5.010  14.799  0.00  0.00    +0.000 N 
ATOM      8  N   UNL     1      45.665   6.332  13.076  0.00  0.00    +0.000 NA
ATOM      9  H   UNL     1      46.939   5.882  14.907  0.00  0.00    +0.000 HD
ENDROOT
BRANCH   4  10
ATOM     10  C   UNL     1      44.113   2.996  11.118  0.00  0.00    +0.000 C 
ATOM     11  N   UNL     1      44.873   2.487  10.100  0.00  0.00    +0.000 N 
ATOM     12  O   UNL     1      43.049   2.484  11.444  0.00  0.00    +0.000 OA
ATOM     13  H   UNL     1      45.764   2.912   9.878  0.00  0.00    +0.000 HD
ATOM     14  H   UNL     1      44.568   1.652   9.622  0.00  0.00    +0.000 HD
ENDBRANCH   4  10
BRANCH   7  15
ATOM     15  C   UNL     1      47.218   3.816  15.019  0.00  0.00    +0.000 C 
BRANCH  15  16
ATOM     16  C   UNL     1      47.943   3.929  16.337  0.00  0.00    +0.000 A 
ATOM     17  C   UNL     1      47.886   5.113  17.097  0.00  0.00    +0.000 A 
ATOM     18  C   UNL     1      48.567   5.254  18.326  0.00  0.00    +0.000 A 
ATOM     19  C   UNL     1      49.326   4.155  18.769  0.00  0.00    +0.000 A 
ATOM     20  C   UNL     1      49.397   2.973  18.025  0.00  0.00    +0.000 A 
ATOM     21  C   UNL     1      48.712   2.872  16.819  0.00  0.00    +0.000 A 
ATOM     22  F   UNL     1      48.800   1.733  16.118  0.00  0.00    +0.000 F 
BRANCH  18  23
ATOM     23  C   UNL     1      48.476   6.505  19.116  0.00  0.00    +0.000 A 
ATOM     24  C   UNL     1      47.548   6.669  20.155  0.00  0.00    +0.000 A 
ATOM     25  C   UNL     1      47.509   7.846  20.903  0.00  0.00    +0.000 A 
ATOM     26  C   UNL     1      48.398   8.856  20.586  0.00  0.00    +0.000 A 
ATOM     27  N   UNL     1      49.301   8.763  19.592  0.00  0.00    +0.000 NA
ATOM     28  C   UNL     1      49.320   7.598  18.892  0.00  0.00    +0.000 A 
ENDBRANCH  18  23
ENDBRANCH  15  16
ENDBRANCH   7  15
TORSDOF 4
ENDMDL
MODEL 9
REMARK VINA RESULT:    -7.031      3.338      4.898
REMARK INTER + INTRA:          -9.068
REMARK INTER:                  -8.468
REMARK INTRA:                  -0.599
REMARK UNBOUND:                -0.392
REMARK  Name = 
REMARK  5 active torsions:
REMARK  status: ('A' for Active; 'I' for Inactive)
REMARK    1  A    between atoms: C_1  and  C_2
REMARK    2  A    between atoms: C_4  and  C_5
REMARK    3  A    between atoms: N_10  and  C_11
REMARK    4  A    between atoms: C_11  and  C_12
REMARK    5  A    between atoms: C_14  and  C_15
REMARK                            x       y       z     vdW  Elec       q    Type
REMARK                         _______ _______ _______ _____ _____    ______ ____
ROOT
ATOM      1  C   UNL     1      48.606   3.300  18.604  0.00  0.00    +0.000 C 
ATOM      2  C   UNL     1      49.156   4.330  17.666  0.00  0.00    +0.000 A 
ATOM      3  C   UNL     1      50.485   4.666  17.687  0.00  0.00    +0.000 A 
ATOM      4  C   UNL     1      50.858   5.631  16.780  0.00  0.00    +0.000 A 
ATOM      5  N   UNL     1      50.014   6.244  15.913  0.00  0.00    +0.000 NA
ATOM      6  C   UNL     1      48.737   5.862  15.983  0.00  0.00    +0.000 A 
ATOM      7  N   UNL     1      47.769   6.465  15.194  0.00  0.00    +0.000 N 
ATOM      8  N   UNL     1      48.283   4.917  16.819  0.00  0.00    +0.000 NA
ATOM      9  H   UNL     1      46.974   5.834  15.200  0.00  0.00    +0.000 HD
ENDROOT
BRANCH   4  10
ATOM     10  C   UNL     1      52.289   6.063  16.738  0.00  0.00    +0.000 C 
ATOM     11  N   UNL     1      52.620   6.927  15.730  0.00  0.00    +0.000 N 
ATOM     12  O   UNL     1      53.120   5.677  17.552  0.00  0.00    +0.000 OA
ATOM     13  H   UNL     1      51.903   7.255  15.094  0.00  0.00    +0.000 HD
ATOM     14  H   UNL     1      53.563   7.280  15.667  0.00  0.00    +0.000 HD
ENDBRANCH   4  10
BRANCH   7  15
ATOM     15  C   UNL     1      48.205   6.883  13.879  0.00  0.00    +0.000 C 
BRANCH  15  16
ATOM     16  C   UNL     1      47.009   6.990  12.965  0.00  0.00    +0.000 A 
ATOM     17  C   UNL     1      46.646   5.925  12.119  0.00  0.00    +0.000 A 
ATOM     18  C   UNL     1      45.542   6.001  11.241  0.00  0.00    +0.000 A 
ATOM     19  C   UNL     1      44.811   7.204  11.234  0.00  0.00    +0.000 A 
ATOM     20  C   UNL     1      45.161   8.273  12.065  0.00  0.00    +0.000 A 
ATOM     21  C   UNL     1      46.254   8.159  12.915  0.00  0.00    +0.000 A 
ATOM     22  F   UNL     1      46.576   9.199  13.697  0.00  0.00    +0.000 F 
BRANCH  18  23
ATOM     23  C   UNL     1      45.169   4.859  10.374  0.00  0.00    +0.000 A 
ATOM     24  C   UNL     1      45.564   4.779   9.030  0.00  0.00    +0.000 A 
ATOM     25  C   UNL     1      45.227   3.674   8.248  0.00  0.00    +0.000 A 
ATOM     26  C   UNL     1      44.479   2.664   8.824  0.00  0.00    +0.000 A 
ATOM     27  N   UNL     1      44.060   2.690  10.103  0.00  0.00    +0.000 NA
ATOM     28  C   UNL     1      44.417   3.776  10.839  0.00  0.00    +0.000 A 
ENDBRANCH  18  23
ENDBRANCH  15  16
ENDBRANCH   7  15
TORSDOF 4
ENDMDL
