MODEL 1
REMARK VINA RESULT:    -6.777      0.000      0.000
REMARK INTER + INTRA:          -8.678
REMARK INTER:                  -8.362
REMARK INTRA:                  -0.316
REMARK UNBOUND:                -0.316
REMARK  Name = 
REMARK  5 active torsions:
REMARK  status: ('A' for Active; 'I' for Inactive)
REMARK    1  A    between atoms: N_1  and  C_2
REMARK    2  A    between atoms: C_2  and  C_3
REMARK    3  A    between atoms: C_3  and  C_4
REMARK    4  A    between atoms: C_8  and  C_9
REMARK    5  A    between atoms: C_9  and  N_10
REMARK                            x       y       z     vdW  Elec       q    Type
REMARK                         _______ _______ _______ _____ _____    ______ ____
ROOT
ATOM      1  C   UNL     1      44.770   5.065  10.568  0.00  0.00    +0.000 C 
ATOM      2  C   UNL     1      45.384   5.196   9.374  0.00  0.00    +0.000 C 
ATOM      3  C   UNL     1      45.635   4.033   8.571  0.00  0.00    +0.000 C 
ATOM      4  C   UNL     1      46.478   3.897   7.547  0.00  0.00    +0.000 C 
ATOM      5  C   UNL     1      46.548   2.467   7.086  0.00  0.00    +0.000 C 
ATOM      6  C   UNL     1      45.811   1.712   8.220  0.00  0.00    +0.000 C 
ATOM      7  C   UNL     1      44.914   2.755   8.893  0.00  0.00    +0.000 C 
ATOM      8  C   UNL     1      44.703   2.559  10.401  0.00  0.00    +0.000 C 
ATOM      9  N   UNL     1      44.347   3.825  11.045  0.00  0.00    +0.000 N 
ATOM     10  H   UNL     1      44.207   3.779  12.051  0.00  0.00    +0.000 HD
ENDROOT
BRANCH   1  11
ATOM     11  C   UNL     1      44.529   6.277  11.449  0.00  0.00    +0.000 C 
BRANCH  11  12
ATOM     12  C   UNL     1      44.346   5.882  12.921  0.00  0.00    +0.000 C 
BRANCH  12  13
ATOM     13  N   UNL     1      42.939   5.625  13.240  0.00  0.00    +0.000 NA
ATOM     14  H   UNL     1      42.577   6.409  13.773  0.00  0.00    +0.000 HD
ATOM     15  H   UNL     1      42.879   4.814  13.855  0.00  0.00    +0.000 HD
ENDBRANCH  12  13
ENDBRANCH  11  12
ENDBRANCH   1  11
BRANCH   5  16
ATOM     16  C   UNL     1      48.006   2.011   6.914  0.00  0.00    +0.000 C 
BRANCH  16  17
ATOM     17  N   UNL     1      48.416   1.939   5.513  0.00  0.00    +0.000 NA
ATOM     18  H   UNL     1      47.608   2.077   4.909  0.00  0.00    +0.000 HD
ATOM     19  H   UNL     1      48.755   0.997   5.317  0.00  0.00    +0.000 HD
ENDBRANCH  16  17
ENDBRANCH   5  16
TORSDOF 5
ENDMDL
MODEL 2
REMARK VINA RESULT:    -6.657      1.504      6.031
REMARK INTER + INTRA:          -8.530
REMARK INTER:                  -8.214
REMARK INTRA:                  -0.315
REMARK UNBOUND:                -0.316
REMARK  Name = 
REMARK  5 active torsions:
REMARK  status: ('A' for Active; 'I' for Inactive)
REMARK    1  A    between atoms: N_1  and  C_2
REMARK    2  A    between atoms: C_2  and  C_3
REMARK    3  A    between atoms: C_3  and  C_4
REMARK    4  A    between atoms: C_8  and  C_9
REMARK    5  A    between atoms: C_9  and  N_10
REMARK                            x       y       z     vdW  Elec       q    Type
REMARK                         _______ _______ _______ _____ _____    ______ ____
ROOT
ATOM      1  C   UNL     1      46.060   2.291   8.190  0.00  0.00    +0.000 C 
ATOM      2  C   UNL     1      45.166   1.889   9.118  0.00  0.00    +0.000 C 
ATOM      3  C   UNL     1      44.378   2.864   9.819  0.00  0.00    +0.000 C 
ATOM      4  C   UNL     1      43.694   2.718  10.953  0.00  0.00    +0.000 C 
ATOM      5  C   UNL     1      43.138   4.034  11.425  0.00  0.00    +0.000 C 
ATOM      6  C   UNL     1      43.868   5.053  10.517  0.00  0.00    +0.000 C 
ATOM      7  C   UNL     1      44.301   4.264   9.278  0.00  0.00    +0.000 C 
ATOM      8  C   UNL     1      45.618   4.724   8.638  0.00  0.00    +0.000 C 
ATOM      9  N   UNL     1      46.232   3.639   7.871  0.00  0.00    +0.000 N 
ATOM     10  H   UNL     1      47.120   3.862   7.430  0.00  0.00    +0.000 HD
ENDROOT
BRANCH   1  11
ATOM     11  C   UNL     1      46.927   1.280   7.466  0.00  0.00    +0.000 C 
BRANCH  11  12
ATOM     12  C   UNL     1      47.462   1.837   6.139  0.00  0.00    +0.000 C 
BRANCH  12  13
ATOM     13  N   UNL     1      48.721   2.565   6.326  0.00  0.00    +0.000 NA
ATOM     14  H   UNL     1      49.269   2.089   7.036  0.00  0.00    +0.000 HD
ATOM     15  H   UNL     1      48.518   3.491   6.700  0.00  0.00    +0.000 HD
ENDBRANCH  12  13
ENDBRANCH  11  12
ENDBRANCH   1  11
BRANCH   5  16
ATOM     16  C   UNL     1      43.425   4.252  12.920  0.00  0.00    +0.000 C 
BRANCH  16  17
ATOM     17  N   UNL     1      42.671   5.369  13.485  0.00  0.00    +0.000 NA
ATOM     18  H   UNL     1      41.679   5.252  13.290  0.00  0.00    +0.000 HD
ATOM     19  H   UNL     1      42.950   6.228  13.011  0.00  0.00    +0.000 HD
ENDBRANCH  16  17
ENDBRANCH   5  16
TORSDOF 5
ENDMDL
MODEL 3
REMARK VINA RESULT:    -6.288      1.538      5.781
REMARK INTER + INTRA:          -8.074
REMARK INTER:                  -7.964
REMARK INTRA:                  -0.110
REMARK UNBOUND:                -0.316
REMARK  Name = 
REMARK  5 active torsions:
REMARK  status: ('A' for Active; 'I' for Inactive)
REMARK    1  A    between atoms: N_1  and  C_2
REMARK    2  A    between atoms: C_2  and  C_3
REMARK    3  A    between atoms: C_3  and  C_4
REMARK    4  A    between atoms: C_8  and  C_9
REMARK    5  A    between atoms: C_9  and  N_10
REMARK                            x       y       z     vdW  Elec       q    Type
REMARK                         _______ _______ _______ _____ _____    ______ ____
ROOT
ATOM      1  C   UNL     1      45.945   3.282   7.924  0.00  0.00    +0.000 C 
ATOM      2  C   UNL     1      45.832   4.407   8.661  0.00  0.00    +0.000 C 
ATOM      3  C   UNL     1      45.076   4.387   9.881  0.00  0.00    +0.000 C 
ATOM      4  C   UNL     1      44.587   5.417  10.572  0.00  0.00    +0.000 C 
ATOM      5  C   UNL     1      43.719   4.947  11.707  0.00  0.00    +0.000 C 
ATOM      6  C   UNL     1      43.535   3.443  11.390  0.00  0.00    +0.000 C 
ATOM      7  C   UNL     1      44.720   3.063  10.496  0.00  0.00    +0.000 C 
ATOM      8  C   UNL     1      44.425   1.983   9.446  0.00  0.00    +0.000 C 
ATOM      9  N   UNL     1      45.360   2.080   8.323  0.00  0.00    +0.000 N 
ATOM     10  H   UNL     1      45.217   1.407   7.576  0.00  0.00    +0.000 HD
ENDROOT
BRANCH   1  11
ATOM     11  C   UNL     1      46.709   3.292   6.613  0.00  0.00    +0.000 C 
BRANCH  11  12
ATOM     12  C   UNL     1      47.996   2.458   6.700  0.00  0.00    +0.000 C 
BRANCH  12  13
ATOM     13  N   UNL     1      48.419   1.980   5.381  0.00  0.00    +0.000 NA
ATOM     14  H   UNL     1      47.750   1.289   5.055  0.00  0.00    +0.000 HD
ATOM     15  H   UNL     1      49.309   1.490   5.473  0.00  0.00    +0.000 HD
ENDBRANCH  12  13
ENDBRANCH  11  12
ENDBRANCH   1  11
BRANCH   5  16
ATOM     16  C   UNL     1      42.389   5.718  11.742  0.00  0.00    +0.000 C 
BRANCH  16  17
ATOM     17  N   UNL     1      42.510   7.082  11.231  0.00  0.00    +0.000 NA
ATOM     18  H   UNL     1      41.969   7.179  10.373  0.00  0.00    +0.000 HD
ATOM     19  H   UNL     1      43.481   7.250  10.969  0.00  0.00    +0.000 HD
ENDBRANCH  16  17
ENDBRANCH   5  16
TORSDOF 5
ENDMDL
MODEL 4
REMARK VINA RESULT:    -5.582      1.934      2.144
REMARK INTER + INTRA:          -7.203
REMARK INTER:                  -6.850
REMARK INTRA:                  -0.352
REMARK UNBOUND:                -0.316
REMARK  Name = 
REMARK  5 active torsions:
REMARK  status: ('A' for Active; 'I' for Inactive)
REMARK    1  A    between atoms: N_1  and  C_2
REMARK    2  A    between atoms: C_2  and  C_3
REMARK    3  A    between atoms: C_3  and  C_4
REMARK    4  A    between atoms: C_8  and  C_9
REMARK    5  A    between atoms: C_9  and  N_10
REMARK                            x       y       z     vdW  Elec       q    Type
REMARK                         _______ _______ _______ _____ _____    ______ ____
ROOT
ATOM      1  C   UNL     1      45.409   5.851  11.761  0.00  0.00    +0.000 C 
ATOM      2  C   UNL     1      45.661   5.848  10.436  0.00  0.00    +0.000 C 
ATOM      3  C   UNL     1      45.364   4.679   9.656  0.00  0.00    +0.000 C 
ATOM      4  C   UNL     1      45.809   4.356   8.442  0.00  0.00    +0.000 C 
ATOM      5  C   UNL     1      45.378   2.967   8.057  0.00  0.00    +0.000 C 
ATOM      6  C   UNL     1      44.837   2.401   9.392  0.00  0.00    +0.000 C 
ATOM      7  C   UNL     1      44.469   3.623  10.239  0.00  0.00    +0.000 C 
ATOM      8  C   UNL     1      44.664   3.452  11.752  0.00  0.00    +0.000 C 
ATOM      9  N   UNL     1      44.843   4.750  12.404  0.00  0.00    +0.000 N 
ATOM     10  H   UNL     1      44.996   4.718  13.408  0.00  0.00    +0.000 HD
ENDROOT
BRANCH   1  11
ATOM     11  C   UNL     1      45.750   7.063  12.608  0.00  0.00    +0.000 C 
BRANCH  11  12
ATOM     12  C   UNL     1      47.092   6.889  13.334  0.00  0.00    +0.000 C 
BRANCH  12  13
ATOM     13  N   UNL     1      47.059   5.761  14.268  0.00  0.00    +0.000 NA
ATOM     14  H   UNL     1      46.292   5.900  14.919  0.00  0.00    +0.000 HD
ATOM     15  H   UNL     1      47.911   5.767  14.829  0.00  0.00    +0.000 HD
ENDBRANCH  12  13
ENDBRANCH  11  12
ENDBRANCH   1  11
BRANCH   5  16
ATOM     16  C   UNL     1      46.558   2.156   7.497  0.00  0.00    +0.000 C 
BRANCH  16  17
ATOM     17  N   UNL     1      46.567   0.771   7.963  0.00  0.00    +0.000 NA
ATOM     18  H   UNL     1      47.030   0.714   8.868  0.00  0.00    +0.000 HD
ATOM     19  H   UNL     1      47.132   0.212   7.324  0.00  0.00    +0.000 HD
ENDBRANCH  16  17
ENDBRANCH   5  16
TORSDOF 5
ENDMDL
MODEL 5
REMARK VINA RESULT:    -5.308      2.657      4.118
REMARK INTER + INTRA:          -6.865
REMARK INTER:                  -6.514
REMARK INTRA:                  -0.351
REMARK UNBOUND:                -0.316
REMARK  Name = 
REMARK  5 active torsions:
REMARK  status: ('A' for Active; 'I' for Inactive)
REMARK    1  A    between atoms: N_1  and  C_2
REMARK    2  A    between atoms: C_2  and  C_3
REMARK    3  A    between atoms: C_3  and  C_4
REMARK    4  A    between atoms: C_8  and  C_9
REMARK    5  A    between atoms: C_9  and  N_10
REMARK                            x       y       z     vdW  Elec       q    Type
REMARK                         _______ _______ _______ _____ _____    ______ ____
ROOT
ATOM      1  C   UNL     1      45.564   7.227  12.693  0.00  0.00    +0.000 C 
ATOM      2  C   UNL     1      44.716   6.823  11.725  0.00  0.00    +0.000 C 
ATOM      3  C   UNL     1      44.451   5.422  11.549  0.00  0.00    +0.000 C 
ATOM      4  C   UNL     1      43.918   4.804  10.495  0.00  0.00    +0.000 C 
ATOM      5  C   UNL     1      43.963   3.310  10.662  0.00  0.00    +0.000 C 
ATOM      6  C   UNL     1      44.895   3.135  11.886  0.00  0.00    +0.000 C 
ATOM      7  C   UNL     1      44.833   4.466  12.643  0.00  0.00    +0.000 C 
ATOM      8  C   UNL     1      46.129   4.871  13.357  0.00  0.00    +0.000 C 
ATOM      9  N   UNL     1      46.184   6.321  13.553  0.00  0.00    +0.000 N 
ATOM     10  H   UNL     1      47.025   6.670  14.006  0.00  0.00    +0.000 HD
ENDROOT
BRANCH   1  11
ATOM     11  C   UNL     1      45.885   8.699  12.871  0.00  0.00    +0.000 C 
BRANCH  11  12
ATOM     12  C   UNL     1      47.292   8.908  13.451  0.00  0.00    +0.000 C 
BRANCH  12  13
ATOM     13  N   UNL     1      47.272   8.942  14.916  0.00  0.00    +0.000 NA
ATOM     14  H   UNL     1      48.229   8.975  15.253  0.00  0.00    +0.000 HD
ATOM     15  H   UNL     1      46.880   8.068  15.265  0.00  0.00    +0.000 HD
ENDBRANCH  12  13
ENDBRANCH  11  12
ENDBRANCH   1  11
BRANCH   5  16
ATOM     16  C   UNL     1      44.506   2.627   9.395  0.00  0.00    +0.000 C 
BRANCH  16  17
ATOM     17  N   UNL     1      44.351   3.450   8.197  0.00  0.00    +0.000 NA
ATOM     18  H   UNL     1      44.402   2.864   7.366  0.00  0.00    +0.000 HD
ATOM     19  H   UNL     1      45.141   4.093   8.135  0.00  0.00    +0.000 HD
ENDBRANCH  16  17
ENDBRANCH   5  16
TORSDOF 5
ENDMDL
MODEL 6
REMARK VINA RESULT:    -5.223      4.052      5.838
REMARK INTER + INTRA:          -6.760
REMARK INTER:                  -6.602
REMARK INTRA:                  -0.157
REMARK UNBOUND:                -0.316
REMARK  Name = 
REMARK  5 active torsions:
REMARK  status: ('A' for Active; 'I' for Inactive)
REMARK    1  A    between atoms: N_1  and  C_2
REMARK    2  A    between atoms: C_2  and  C_3
REMARK    3  A    between atoms: C_3  and  C_4
REMARK    4  A    between atoms: C_8  and  C_9
REMARK    5  A    between atoms: C_9  and  N_10
REMARK                            x       y       z     vdW  Elec       q    Type
REMARK                         _______ _______ _______ _____ _____    ______ ____
ROOT
ATOM      1  C   UNL     1      47.337   5.136  14.891  0.00  0.00    +0.000 C 
ATOM      2  C   UNL     1      46.580   4.271  14.185  0.00  0.00    +0.000 C 
ATOM      3  C   UNL     1      46.028   4.674  12.922  0.00  0.00    +0.000 C 
ATOM      4  C   UNL     1      45.030   4.116  12.237  0.00  0.00    +0.000 C 
ATOM      5  C   UNL     1      44.663   4.947  11.038  0.00  0.00    +0.000 C 
ATOM      6  C   UNL     1      45.429   6.267  11.296  0.00  0.00    +0.000 C 
ATOM      7  C   UNL     1      46.574   5.899  12.246  0.00  0.00    +0.000 C 
ATOM      8  C   UNL     1      46.974   6.996  13.242  0.00  0.00    +0.000 C 
ATOM      9  N   UNL     1      47.622   6.418  14.421  0.00  0.00    +0.000 N 
ATOM     10  H   UNL     1      47.901   7.083  15.137  0.00  0.00    +0.000 HD
ENDROOT
BRANCH   1  11
ATOM     11  C   UNL     1      47.899   4.742  16.244  0.00  0.00    +0.000 C 
BRANCH  11  12
ATOM     12  C   UNL     1      47.689   3.248  16.534  0.00  0.00    +0.000 C 
BRANCH  12  13
ATOM     13  N   UNL     1      46.691   3.037  17.586  0.00  0.00    +0.000 NA
ATOM     14  H   UNL     1      46.861   3.703  18.334  0.00  0.00    +0.000 HD
ATOM     15  H   UNL     1      46.827   2.113  17.995  0.00  0.00    +0.000 HD
ENDBRANCH  12  13
ENDBRANCH  11  12
ENDBRANCH   1  11
BRANCH   5  16
ATOM     16  C   UNL     1      43.141   5.147  10.949  0.00  0.00    +0.000 C 
BRANCH  16  17
ATOM     17  N   UNL     1      42.746   6.550  11.056  0.00  0.00    +0.000 NA
ATOM     18  H   UNL     1      42.907   7.024  10.169  0.00  0.00    +0.000 HD
ATOM     19  H   UNL     1      43.352   7.012  11.734  0.00  0.00    +0.000 HD
ENDBRANCH  16  17
ENDBRANCH   5  16
TORSDOF 5
ENDMDL
MODEL 7
REMARK VINA RESULT:    -4.873      2.888      5.772
REMARK INTER + INTRA:          -6.328
REMARK INTER:                  -5.923
REMARK INTRA:                  -0.405
REMARK UNBOUND:                -0.316
REMARK  Name = 
REMARK  5 active torsions:
REMARK  status: ('A' for Active; 'I' for Inactive)
REMARK    1  A    between atoms: N_1  and  C_2
REMARK    2  A    between atoms: C_2  and  C_3
REMARK    3  A    between atoms: C_3  and  C_4
REMARK    4  A    between atoms: C_8  and  C_9
REMARK    5  A    between atoms: C_9  and  N_10
REMARK                            x       y       z     vdW  Elec       q    Type
REMARK                         _______ _______ _______ _____ _____    ______ ____
ROOT
ATOM      1  C   UNL     1      44.447   4.727  11.255  0.00  0.00    +0.000 C 
ATOM      2  C   UNL     1      45.473   4.592  12.121  0.00  0.00    +0.000 C 
ATOM      3  C   UNL     1      46.036   5.755  12.747  0.00  0.00    +0.000 C 
ATOM      4  C   UNL     1      47.211   5.879  13.363  0.00  0.00    +0.000 C 
ATOM      5  C   UNL     1      47.479   7.312  13.739  0.00  0.00    +0.000 C 
ATOM      6  C   UNL     1      46.375   8.074  12.966  0.00  0.00    +0.000 C 
ATOM      7  C   UNL     1      45.269   7.046  12.708  0.00  0.00    +0.000 C 
ATOM      8  C   UNL     1      44.495   7.236  11.396  0.00  0.00    +0.000 C 
ATOM      9  N   UNL     1      43.895   5.974  10.960  0.00  0.00    +0.000 N 
ATOM     10  H   UNL     1      43.379   6.015  10.085  0.00  0.00    +0.000 HD
ENDROOT
BRANCH   1  11
ATOM     11  C   UNL     1      43.863   3.515  10.555  0.00  0.00    +0.000 C 
BRANCH  11  12
ATOM     12  C   UNL     1      44.559   3.244   9.213  0.00  0.00    +0.000 C 
BRANCH  12  13
ATOM     13  N   UNL     1      44.788   4.482   8.464  0.00  0.00    +0.000 NA
ATOM     14  H   UNL     1      45.616   4.365   7.888  0.00  0.00    +0.000 HD
ATOM     15  H   UNL     1      45.004   5.233   9.119  0.00  0.00    +0.000 HD
ENDBRANCH  12  13
ENDBRANCH  11  12
ENDBRANCH   1  11
BRANCH   5  16
ATOM     16  C   UNL     1      48.899   7.735  13.327  0.00  0.00    +0.000 C 
BRANCH  16  17
ATOM     17  N   UNL     1      49.620   6.684  12.613  0.00  0.00    +0.000 NA
ATOM     18  H   UNL     1      50.575   6.623  12.959  0.00  0.00    +0.000 HD
ATOM     19  H   UNL     1      49.695   6.945  11.630  0.00  0.00    +0.000 HD
ENDBRANCH  16  17
ENDBRANCH   5  16
TORSDOF 5
ENDMDL
MODEL 8
REMARK VINA RESULT:    -4.740      1.839      5.711
REMARK INTER + INTRA:          -6.164
REMARK INTER:                  -6.057
REMARK INTRA:                  -0.107
REMARK UNBOUND:                -0.316
REMARK  Name = 
REMARK  5 active torsions:
REMARK  status: ('A' for Active; 'I' for Inactive)
REMARK    1  A    between atoms: N_1  and  C_2
REMARK    2  A    between atoms: C_2  and  C_3
REMARK    3  A    between atoms: C_3  and  C_4
REMARK    4  A    between atoms: C_8  and  C_9
REMARK    5  A    between atoms: C_9  and  N_10
REMARK                            x       y       z     vdW  Elec       q    Type
REMARK                         _______ _______ _______ _____ _____    ______ ____
ROOT
ATOM      1  C   UNL     1      44.896   2.698   9.757  0.00  0.00    +0.000 C 
ATOM      2  C   UNL     1      45.603   3.847   9.746  0.00  0.00    +0.000 C 
ATOM      3  C   UNL     1      45.354   4.846  10.747  0.00  0.00    +0.000 C 
ATOM      4  C   UNL     1      45.696   6.134  10.738  0.00  0.00    +0.000 C 
ATOM      5  C   UNL     1      45.102   6.864  11.912  0.00  0.00    +0.000 C 
ATOM      6  C   UNL     1      44.089   5.834  12.470  0.00  0.00    +0.000 C 
ATOM      7  C   UNL     1      44.578   4.468  11.977  0.00  0.00    +0.000 C 
ATOM      8  C   UNL     1      43.471   3.445  11.687  0.00  0.00    +0.000 C 
ATOM      9  N   UNL     1      43.933   2.437  10.731  0.00  0.00    +0.000 N 
ATOM     10  H   UNL     1      43.247   1.731  10.474  0.00  0.00    +0.000 HD
ENDROOT
BRANCH   1  11
ATOM     11  C   UNL     1      45.119   1.646   8.686  0.00  0.00    +0.000 C 
BRANCH  11  12
ATOM     12  C   UNL     1      46.412   1.903   7.898  0.00  0.00    +0.000 C 
BRANCH  12  13
ATOM     13  N   UNL     1      46.980   0.659   7.372  0.00  0.00    +0.000 NA
ATOM     14  H   UNL     1      46.735  -0.101   7.999  0.00  0.00    +0.000 HD
ATOM     15  H   UNL     1      47.998   0.723   7.390  0.00  0.00    +0.000 HD
ENDBRANCH  12  13
ENDBRANCH  11  12
ENDBRANCH   1  11
BRANCH   5  16
ATOM     16  C   UNL     1      44.436   8.177  11.468  0.00  0.00    +0.000 C 
BRANCH  16  17
ATOM     17  N   UNL     1      45.256   9.353  11.752  0.00  0.00    +0.000 NA
ATOM     18  H   UNL     1      45.341   9.480  12.759  0.00  0.00    +0.000 HD
ATOM     19  H   UNL     1      44.774  10.182  11.405  0.00  0.00    +0.000 HD
ENDBRANCH  16  17
ENDBRANCH   5  16
TORSDOF 5
ENDMDL
MODEL 9
REMARK VINA RESULT:    -4.713      4.179      5.736
REMARK INTER + INTRA:          -6.131
REMARK INTER:                  -5.786
REMARK INTRA:                  -0.345
REMARK UNBOUND:                -0.316
REMARK  Name = 
REMARK  5 active torsions:
REMARK  status: ('A' for Active; 'I' for Inactive)
REMARK    1  A    between atoms: N_1  and  C_2
REMARK    2  A    between atoms: C_2  and  C_3
REMARK    3  A    between atoms: C_3  and  C_4
REMARK    4  A    between atoms: C_8  and  C_9
REMARK    5  A    between atoms: C_9  and  N_10
REMARK                            x       y       z     vdW  Elec       q    Type
REMARK                         _______ _______ _______ _____ _____    ______ ____
ROOT
ATOM      1  C   UNL     1      44.740   6.364  11.473  0.00  0.00    +0.000 C 
ATOM      2  C   UNL     1      46.010   5.984  11.721  0.00  0.00    +0.000 C 
ATOM      3  C   UNL     1      46.975   6.959  12.148  0.00  0.00    +0.000 C 
ATOM      4  C   UNL     1      48.305   6.868  12.141  0.00  0.00    +0.000 C 
ATOM      5  C   UNL     1      48.941   8.177  12.524  0.00  0.00    +0.000 C 
ATOM      6  C   UNL     1      47.745   9.159  12.474  0.00  0.00    +0.000 C 
ATOM      7  C   UNL     1      46.493   8.292  12.645  0.00  0.00    +0.000 C 
ATOM      8  C   UNL     1      45.249   8.788  11.895  0.00  0.00    +0.000 C 
ATOM      9  N   UNL     1      44.322   7.685  11.639  0.00  0.00    +0.000 N 
ATOM     10  H   UNL     1      43.478   7.932  11.128  0.00  0.00    +0.000 HD
ENDROOT
BRANCH   1  11
ATOM     11  C   UNL     1      43.715   5.357  10.987  0.00  0.00    +0.000 C 
BRANCH  11  12
ATOM     12  C   UNL     1      42.412   5.436  11.796  0.00  0.00    +0.000 C 
BRANCH  12  13
ATOM     13  N   UNL     1      42.669   5.392  13.238  0.00  0.00    +0.000 NA
ATOM     14  H   UNL     1      41.795   5.553  13.729  0.00  0.00    +0.000 HD
ATOM     15  H   UNL     1      43.282   6.167  13.492  0.00  0.00    +0.000 HD
ENDBRANCH  12  13
ENDBRANCH  11  12
ENDBRANCH   1  11
BRANCH   5  16
ATOM     16  C   UNL     1      50.065   8.553  11.545  0.00  0.00    +0.000 C 
BRANCH  16  17
ATOM     17  N   UNL     1      50.996   7.454  11.300  0.00  0.00    +0.000 NA
ATOM     18  H   UNL     1      51.776   7.780  10.732  0.00  0.00    +0.000 HD
ATOM     19  H   UNL     1      50.525   6.740  10.744  0.00  0.00    +0.000 HD
ENDBRANCH  16  17
ENDBRANCH   5  16
TORSDOF 5
ENDMDL
