MODEL 1
REMARK VINA RESULT:    -7.802      0.000      0.000
REMARK INTER + INTRA:         -12.222
REMARK INTER:                 -11.223
REMARK INTRA:                  -0.998
REMARK UNBOUND:                -0.998
REMARK  Name = 
REMARK  9 active torsions:
REMARK  status: ('A' for Active; 'I' for Inactive)
REMARK    1  A    between atoms: C_1  and  C_2
REMARK    2  A    between atoms: C_2  and  C_3
REMARK    3  A    between atoms: C_2  and  C_22
REMARK    4  A    between atoms: C_3  and  N_4
REMARK    5  A    between atoms: N_4  and  C_5
REMARK    6  A    between atoms: C_9  and  C_10
REMARK    7  A    between atoms: C_13  and  O_14
REMARK    8  A    between atoms: O_14  and  C_15
REMARK    9  A    between atoms: C_26  and  O_27
REMARK                            x       y       z     vdW  Elec       q    Type
REMARK                         _______ _______ _______ _____ _____    ______ ____
ROOT
ATOM      1  C   UNL     1      45.580   5.548  11.921  0.00  0.00    +0.000 A 
ATOM      2  C   UNL     1      45.415   4.786  13.080  0.00  0.00    +0.000 A 
ATOM      3  N   UNL     1      46.263   4.764  14.130  0.00  0.00    +0.000 NA
ATOM      4  C   UNL     1      47.370   5.531  14.016  0.00  0.00    +0.000 A 
ATOM      5  C   UNL     1      47.690   6.321  12.910  0.00  0.00    +0.000 A 
ATOM      6  C   UNL     1      46.761   6.301  11.851  0.00  0.00    +0.000 A 
ENDROOT
BRANCH   5   7
ATOM      7  C   UNL     1      48.919   7.142  12.878  0.00  0.00    +0.000 A 
ATOM      8  C   UNL     1      49.407   7.704  11.685  0.00  0.00    +0.000 A 
ATOM      9  C   UNL     1      50.559   8.507  11.666  0.00  0.00    +0.000 A 
ATOM     10  C   UNL     1      51.237   8.786  12.849  0.00  0.00    +0.000 A 
ATOM     11  C   UNL     1      50.802   8.192  14.032  0.00  0.00    +0.000 A 
ATOM     12  C   UNL     1      49.657   7.390  14.048  0.00  0.00    +0.000 A 
BRANCH  10  13
ATOM     13  O   UNL     1      52.343   9.567  12.983  0.00  0.00    +0.000 OA
BRANCH  13  14
ATOM     14  C   UNL     1      53.615   9.044  12.630  0.00  0.00    +0.000 C 
ATOM     15  F   UNL     1      53.720   7.705  12.753  0.00  0.00    +0.000 F 
ATOM     16  F   UNL     1      53.860   9.357  11.337  0.00  0.00    +0.000 F 
ATOM     17  F   UNL     1      54.565   9.629  13.390  0.00  0.00    +0.000 F 
ENDBRANCH  13  14
ENDBRANCH  10  13
ENDBRANCH   5   7
BRANCH   1  18
ATOM     18  N   UNL     1      44.723   5.511  10.809  0.00  0.00    +0.000 N 
ATOM     19  H   UNL     1      43.828   5.081  11.049  0.00  0.00    +0.000 HD
BRANCH  18  20
ATOM     20  C   UNL     1      45.271   5.039   9.535  0.00  0.00    +0.000 C 
BRANCH  20  22
ATOM     21  C   UNL     1      44.092   2.897  10.257  0.00  0.00    +0.000 C 
ATOM     22  C   UNL     1      44.690   3.682   9.083  0.00  0.00    +0.000 C 
BRANCH  22  23
ATOM     23  C   UNL     1      45.667   2.896   8.222  0.00  0.00    +0.000 A 
ATOM     24  C   UNL     1      46.410   3.571   7.237  0.00  0.00    +0.000 A 
ATOM     25  C   UNL     1      47.322   2.886   6.430  0.00  0.00    +0.000 A 
ATOM     26  C   UNL     1      47.512   1.515   6.599  0.00  0.00    +0.000 A 
ATOM     27  C   UNL     1      46.793   0.848   7.583  0.00  0.00    +0.000 A 
ATOM     28  C   UNL     1      45.877   1.521   8.386  0.00  0.00    +0.000 A 
BRANCH  27  29
ATOM     29  O   UNL     1      46.962  -0.487   7.810  0.00  0.00    +0.000 OA
ATOM     30  H   UNL     1      46.352  -0.977   7.234  0.00  0.00    +0.000 HD
ENDBRANCH  27  29
ENDBRANCH  22  23
ENDBRANCH  20  22
ENDBRANCH  18  20
ENDBRANCH   1  18
TORSDOF 8
ENDMDL
MODEL 2
REMARK VINA RESULT:    -7.734      4.141      4.914
REMARK INTER + INTRA:         -12.124
REMARK INTER:                 -11.081
REMARK INTRA:                  -1.042
REMARK UNBOUND:                -0.998
REMARK  Name = 
REMARK  9 active torsions:
REMARK  status: ('A' for Active; 'I' for Inactive)
REMARK    1  A    between atoms: C_1  and  C_2
REMARK    2  A    between atoms: C_2  and  C_3
REMARK    3  A    between atoms: C_2  and  C_22
REMARK    4  A    between atoms: C_3  and  N_4
REMARK    5  A    between atoms: N_4  and  C_5
REMARK    6  A    between atoms: C_9  and  C_10
REMARK    7  A    between atoms: C_13  and  O_14
REMARK    8  A    between atoms: O_14  and  C_15
REMARK    9  A    between atoms: C_26  and  O_27
REMARK                            x       y       z     vdW  Elec       q    Type
REMARK                         _______ _______ _______ _____ _____    ______ ____
ROOT
ATOM      1  C   UNL     1      45.717   5.839  11.780  0.00  0.00    +0.000 A 
ATOM      2  C   UNL     1      46.147   7.112  11.396  0.00  0.00    +0.000 A 
ATOM      3  N   UNL     1      47.040   7.871  12.065  0.00  0.00    +0.000 NA
ATOM      4  C   UNL     1      47.525   7.346  13.213  0.00  0.00    +0.000 A 
ATOM      5  C   UNL     1      47.170   6.104  13.742  0.00  0.00    +0.000 A 
ATOM      6  C   UNL     1      46.236   5.361  12.992  0.00  0.00    +0.000 A 
ENDROOT
BRANCH   5   7
ATOM      7  C   UNL     1      47.764   5.602  14.998  0.00  0.00    +0.000 A 
ATOM      8  C   UNL     1      47.336   4.404  15.598  0.00  0.00    +0.000 A 
ATOM      9  C   UNL     1      47.924   3.918  16.777  0.00  0.00    +0.000 A 
ATOM     10  C   UNL     1      48.975   4.610  17.371  0.00  0.00    +0.000 A 
ATOM     11  C   UNL     1      49.375   5.828  16.825  0.00  0.00    +0.000 A 
ATOM     12  C   UNL     1      48.786   6.311  15.653  0.00  0.00    +0.000 A 
BRANCH  10  13
ATOM     13  O   UNL     1      49.654   4.244  18.491  0.00  0.00    +0.000 OA
BRANCH  13  14
ATOM     14  C   UNL     1      49.043   4.402  19.763  0.00  0.00    +0.000 C 
ATOM     15  F   UNL     1      48.129   5.393  19.822  0.00  0.00    +0.000 F 
ATOM     16  F   UNL     1      48.415   3.246  20.081  0.00  0.00    +0.000 F 
ATOM     17  F   UNL     1      49.995   4.630  20.691  0.00  0.00    +0.000 F 
ENDBRANCH  13  14
ENDBRANCH  10  13
ENDBRANCH   5   7
BRANCH   1  18
ATOM     18  N   UNL     1      44.739   5.087  11.109  0.00  0.00    +0.000 N 
ATOM     19  H   UNL     1      44.489   4.252  11.641  0.00  0.00    +0.000 HD
BRANCH  18  20
ATOM     20  C   UNL     1      44.932   4.830   9.680  0.00  0.00    +0.000 C 
BRANCH  20  22
ATOM     21  C   UNL     1      43.996   2.582  10.435  0.00  0.00    +0.000 C 
ATOM     22  C   UNL     1      44.492   3.414   9.246  0.00  0.00    +0.000 C 
BRANCH  22  23
ATOM     23  C   UNL     1      45.535   2.728   8.378  0.00  0.00    +0.000 A 
ATOM     24  C   UNL     1      46.323   3.503   7.509  0.00  0.00    +0.000 A 
ATOM     25  C   UNL     1      47.296   2.911   6.700  0.00  0.00    +0.000 A 
ATOM     26  C   UNL     1      47.503   1.533   6.752  0.00  0.00    +0.000 A 
ATOM     27  C   UNL     1      46.739   0.766   7.623  0.00  0.00    +0.000 A 
ATOM     28  C   UNL     1      45.763   1.347   8.426  0.00  0.00    +0.000 A 
BRANCH  27  29
ATOM     29  O   UNL     1      46.921  -0.582   7.734  0.00  0.00    +0.000 OA
ATOM     30  H   UNL     1      47.527  -0.870   7.031  0.00  0.00    +0.000 HD
ENDBRANCH  27  29
ENDBRANCH  22  23
ENDBRANCH  20  22
ENDBRANCH  18  20
ENDBRANCH   1  18
TORSDOF 8
ENDMDL
MODEL 3
REMARK VINA RESULT:    -7.665      1.775      2.118
REMARK INTER + INTRA:         -12.024
REMARK INTER:                 -11.151
REMARK INTRA:                  -0.873
REMARK UNBOUND:                -0.998
REMARK  Name = 
REMARK  9 active torsions:
REMARK  status: ('A' for Active; 'I' for Inactive)
REMARK    1  A    between atoms: C_1  and  C_2
REMARK    2  A    between atoms: C_2  and  C_3
REMARK    3  A    between atoms: C_2  and  C_22
REMARK    4  A    between atoms: C_3  and  N_4
REMARK    5  A    between atoms: N_4  and  C_5
REMARK    6  A    between atoms: C_9  and  C_10
REMARK    7  A    between atoms: C_13  and  O_14
REMARK    8  A    between atoms: O_14  and  C_15
REMARK    9  A    between atoms: C_26  and  O_27
REMARK                            x       y       z     vdW  Elec       q    Type
REMARK                         _______ _______ _______ _____ _____    ______ ____
ROOT
ATOM      1  C   UNL     1      45.807   5.855  11.773  0.00  0.00    +0.000 A 
ATOM      2  C   UNL     1      45.926   5.363  13.076  0.00  0.00    +0.000 A 
ATOM      3  N   UNL     1      46.913   5.674  13.942  0.00  0.00    +0.000 NA
ATOM      4  C   UNL     1      47.868   6.512  13.480  0.00  0.00    +0.000 A 
ATOM      5  C   UNL     1      47.903   7.060  12.197  0.00  0.00    +0.000 A 
ATOM      6  C   UNL     1      46.842   6.698  11.344  0.00  0.00    +0.000 A 
ENDROOT
BRANCH   5   7
ATOM      7  C   UNL     1      48.981   7.983  11.781  0.00  0.00    +0.000 A 
ATOM      8  C   UNL     1      48.800   9.377  11.757  0.00  0.00    +0.000 A 
ATOM      9  C   UNL     1      49.837  10.249  11.388  0.00  0.00    +0.000 A 
ATOM     10  C   UNL     1      51.091   9.745  11.058  0.00  0.00    +0.000 A 
ATOM     11  C   UNL     1      51.273   8.364  11.020  0.00  0.00    +0.000 A 
ATOM     12  C   UNL     1      50.239   7.498  11.384  0.00  0.00    +0.000 A 
BRANCH  10  13
ATOM     13  O   UNL     1      52.188  10.469  10.712  0.00  0.00    +0.000 OA
BRANCH  13  14
ATOM     14  C   UNL     1      52.473  10.697   9.340  0.00  0.00    +0.000 C 
ATOM     15  F   UNL     1      53.522  11.516   9.116  0.00  0.00    +0.000 F 
ATOM     16  F   UNL     1      52.752   9.507   8.759  0.00  0.00    +0.000 F 
ATOM     17  F   UNL     1      51.381  11.212   8.736  0.00  0.00    +0.000 F 
ENDBRANCH  13  14
ENDBRANCH  10  13
ENDBRANCH   5   7
BRANCH   1  18
ATOM     18  N   UNL     1      44.810   5.472  10.861  0.00  0.00    +0.000 N 
ATOM     19  H   UNL     1      44.137   4.840  11.296  0.00  0.00    +0.000 HD
BRANCH  18  20
ATOM     20  C   UNL     1      45.231   5.043   9.525  0.00  0.00    +0.000 C 
BRANCH  20  22
ATOM     21  C   UNL     1      44.154   2.879  10.337  0.00  0.00    +0.000 C 
ATOM     22  C   UNL     1      44.680   3.657   9.124  0.00  0.00    +0.000 C 
BRANCH  22  23
ATOM     23  C   UNL     1      45.649   2.885   8.243  0.00  0.00    +0.000 A 
ATOM     24  C   UNL     1      46.377   3.573   7.256  0.00  0.00    +0.000 A 
ATOM     25  C   UNL     1      47.281   2.901   6.430  0.00  0.00    +0.000 A 
ATOM     26  C   UNL     1      47.479   1.529   6.583  0.00  0.00    +0.000 A 
ATOM     27  C   UNL     1      46.776   0.849   7.569  0.00  0.00    +0.000 A 
ATOM     28  C   UNL     1      45.868   1.509   8.391  0.00  0.00    +0.000 A 
BRANCH  27  29
ATOM     29  O   UNL     1      46.954  -0.488   7.780  0.00  0.00    +0.000 OA
ATOM     30  H   UNL     1      47.877  -0.638   8.043  0.00  0.00    +0.000 HD
ENDBRANCH  27  29
ENDBRANCH  22  23
ENDBRANCH  20  22
ENDBRANCH  18  20
ENDBRANCH   1  18
TORSDOF 8
ENDMDL
MODEL 4
REMARK VINA RESULT:    -7.425      5.072      8.732
REMARK INTER + INTRA:         -11.679
REMARK INTER:                 -10.352
REMARK INTRA:                  -1.326
REMARK UNBOUND:                -0.998
REMARK  Name = 
REMARK  9 active torsions:
REMARK  status: ('A' for Active; 'I' for Inactive)
REMARK    1  A    between atoms: C_1  and  C_2
REMARK    2  A    between atoms: C_2  and  C_3
REMARK    3  A    between atoms: C_2  and  C_22
REMARK    4  A    between atoms: C_3  and  N_4
REMARK    5  A    between atoms: N_4  and  C_5
REMARK    6  A    between atoms: C_9  and  C_10
REMARK    7  A    between atoms: C_13  and  O_14
REMARK    8  A    between atoms: O_14  and  C_15
REMARK    9  A    between atoms: C_26  and  O_27
REMARK                            x       y       z     vdW  Elec       q    Type
REMARK                         _______ _______ _______ _____ _____    ______ ____
ROOT
ATOM      1  C   UNL     1      49.086   7.441  14.396  0.00  0.00    +0.000 A 
ATOM      2  C   UNL     1      48.571   8.740  14.389  0.00  0.00    +0.000 A 
ATOM      3  N   UNL     1      47.422   9.123  13.793  0.00  0.00    +0.000 NA
ATOM      4  C   UNL     1      46.745   8.158  13.131  0.00  0.00    +0.000 A 
ATOM      5  C   UNL     1      47.147   6.826  13.022  0.00  0.00    +0.000 A 
ATOM      6  C   UNL     1      48.352   6.492  13.671  0.00  0.00    +0.000 A 
ENDROOT
BRANCH   5   7
ATOM      7  C   UNL     1      46.333   5.832  12.290  0.00  0.00    +0.000 A 
ATOM      8  C   UNL     1      45.825   6.088  11.004  0.00  0.00    +0.000 A 
ATOM      9  C   UNL     1      45.077   5.129  10.302  0.00  0.00    +0.000 A 
ATOM     10  C   UNL     1      44.841   3.878  10.863  0.00  0.00    +0.000 A 
ATOM     11  C   UNL     1      45.287   3.626  12.159  0.00  0.00    +0.000 A 
ATOM     12  C   UNL     1      46.029   4.583  12.857  0.00  0.00    +0.000 A 
BRANCH  10  13
ATOM     13  O   UNL     1      44.162   2.849  10.289  0.00  0.00    +0.000 OA
BRANCH  13  14
ATOM     14  C   UNL     1      44.670   2.250   9.106  0.00  0.00    +0.000 C 
ATOM     15  F   UNL     1      44.372   2.917   7.972  0.00  0.00    +0.000 F 
ATOM     16  F   UNL     1      46.018   2.188   9.204  0.00  0.00    +0.000 F 
ATOM     17  F   UNL     1      44.199   0.989   9.007  0.00  0.00    +0.000 F 
ENDBRANCH  13  14
ENDBRANCH  10  13
ENDBRANCH   5   7
BRANCH   1  18
ATOM     18  N   UNL     1      50.315   7.070  14.965  0.00  0.00    +0.000 N 
ATOM     19  H   UNL     1      50.594   6.136  14.660  0.00  0.00    +0.000 HD
BRANCH  18  20
ATOM     20  C   UNL     1      50.501   7.291  16.401  0.00  0.00    +0.000 C 
BRANCH  20  22
ATOM     21  C   UNL     1      49.247   7.630  18.595  0.00  0.00    +0.000 C 
ATOM     22  C   UNL     1      49.270   6.898  17.247  0.00  0.00    +0.000 C 
BRANCH  22  23
ATOM     23  C   UNL     1      49.090   5.391  17.336  0.00  0.00    +0.000 A 
ATOM     24  C   UNL     1      50.227   4.566  17.392  0.00  0.00    +0.000 A 
ATOM     25  C   UNL     1      50.104   3.177  17.480  0.00  0.00    +0.000 A 
ATOM     26  C   UNL     1      48.840   2.590  17.522  0.00  0.00    +0.000 A 
ATOM     27  C   UNL     1      47.714   3.403  17.486  0.00  0.00    +0.000 A 
ATOM     28  C   UNL     1      47.828   4.787  17.391  0.00  0.00    +0.000 A 
BRANCH  27  29
ATOM     29  O   UNL     1      46.454   2.882  17.554  0.00  0.00    +0.000 OA
ATOM     30  H   UNL     1      46.059   3.140  18.403  0.00  0.00    +0.000 HD
ENDBRANCH  27  29
ENDBRANCH  22  23
ENDBRANCH  20  22
ENDBRANCH  18  20
ENDBRANCH   1  18
TORSDOF 8
ENDMDL
MODEL 5
REMARK VINA RESULT:    -7.171      5.146      8.722
REMARK INTER + INTRA:         -11.313
REMARK INTER:                  -9.234
REMARK INTRA:                  -2.079
REMARK UNBOUND:                -0.998
REMARK  Name = 
REMARK  9 active torsions:
REMARK  status: ('A' for Active; 'I' for Inactive)
REMARK    1  A    between atoms: C_1  and  C_2
REMARK    2  A    between atoms: C_2  and  C_3
REMARK    3  A    between atoms: C_2  and  C_22
REMARK    4  A    between atoms: C_3  and  N_4
REMARK    5  A    between atoms: N_4  and  C_5
REMARK    6  A    between atoms: C_9  and  C_10
REMARK    7  A    between atoms: C_13  and  O_14
REMARK    8  A    between atoms: O_14  and  C_15
REMARK    9  A    between atoms: C_26  and  O_27
REMARK                            x       y       z     vdW  Elec       q    Type
REMARK                         _______ _______ _______ _____ _____    ______ ____
ROOT
ATOM      1  C   UNL     1      50.601   7.653  15.303  0.00  0.00    +0.000 A 
ATOM      2  C   UNL     1      51.280   8.284  14.258  0.00  0.00    +0.000 A 
ATOM      3  N   UNL     1      50.873   8.324  12.972  0.00  0.00    +0.000 NA
ATOM      4  C   UNL     1      49.723   7.671  12.691  0.00  0.00    +0.000 A 
ATOM      5  C   UNL     1      48.951   6.970  13.619  0.00  0.00    +0.000 A 
ATOM      6  C   UNL     1      49.430   6.971  14.944  0.00  0.00    +0.000 A 
ENDROOT
BRANCH   5   7
ATOM      7  C   UNL     1      47.696   6.295  13.225  0.00  0.00    +0.000 A 
ATOM      8  C   UNL     1      47.117   5.282  14.009  0.00  0.00    +0.000 A 
ATOM      9  C   UNL     1      45.910   4.665  13.644  0.00  0.00    +0.000 A 
ATOM     10  C   UNL     1      45.239   5.067  12.493  0.00  0.00    +0.000 A 
ATOM     11  C   UNL     1      45.825   6.029  11.673  0.00  0.00    +0.000 A 
ATOM     12  C   UNL     1      47.028   6.640  12.037  0.00  0.00    +0.000 A 
BRANCH  10  13
ATOM     13  O   UNL     1      44.054   4.581  12.036  0.00  0.00    +0.000 OA
BRANCH  13  14
ATOM     14  C   UNL     1      44.050   3.536  11.075  0.00  0.00    +0.000 C 
ATOM     15  F   UNL     1      45.225   2.881  10.961  0.00  0.00    +0.000 F 
ATOM     16  F   UNL     1      43.110   2.631  11.433  0.00  0.00    +0.000 F 
ATOM     17  F   UNL     1      43.712   4.038   9.869  0.00  0.00    +0.000 F 
ENDBRANCH  13  14
ENDBRANCH  10  13
ENDBRANCH   5   7
BRANCH   1  18
ATOM     18  N   UNL     1      51.069   7.564  16.625  0.00  0.00    +0.000 N 
ATOM     19  H   UNL     1      51.867   6.931  16.689  0.00  0.00    +0.000 HD
BRANCH  18  20
ATOM     20  C   UNL     1      50.083   7.366  17.690  0.00  0.00    +0.000 C 
BRANCH  20  22
ATOM     21  C   UNL     1      51.757   5.683  18.620  0.00  0.00    +0.000 C 
ATOM     22  C   UNL     1      50.275   6.045  18.466  0.00  0.00    +0.000 C 
BRANCH  22  23
ATOM     23  C   UNL     1      49.399   4.926  17.923  0.00  0.00    +0.000 A 
ATOM     24  C   UNL     1      48.001   5.044  18.013  0.00  0.00    +0.000 A 
ATOM     25  C   UNL     1      47.161   4.042  17.520  0.00  0.00    +0.000 A 
ATOM     26  C   UNL     1      47.707   2.907  16.922  0.00  0.00    +0.000 A 
ATOM     27  C   UNL     1      49.088   2.794  16.816  0.00  0.00    +0.000 A 
ATOM     28  C   UNL     1      49.931   3.785  17.310  0.00  0.00    +0.000 A 
BRANCH  27  29
ATOM     29  O   UNL     1      49.672   1.718  16.213  0.00  0.00    +0.000 OA
ATOM     30  H   UNL     1      50.066   1.157  16.901  0.00  0.00    +0.000 HD
ENDBRANCH  27  29
ENDBRANCH  22  23
ENDBRANCH  20  22
ENDBRANCH  18  20
ENDBRANCH   1  18
TORSDOF 8
ENDMDL
MODEL 6
REMARK VINA RESULT:    -7.161      1.761      2.280
REMARK INTER + INTRA:         -11.299
REMARK INTER:                 -10.455
REMARK INTRA:                  -0.844
REMARK UNBOUND:                -0.998
REMARK  Name = 
REMARK  9 active torsions:
REMARK  status: ('A' for Active; 'I' for Inactive)
REMARK    1  A    between atoms: C_1  and  C_2
REMARK    2  A    between atoms: C_2  and  C_3
REMARK    3  A    between atoms: C_2  and  C_22
REMARK    4  A    between atoms: C_3  and  N_4
REMARK    5  A    between atoms: N_4  and  C_5
REMARK    6  A    between atoms: C_9  and  C_10
REMARK    7  A    between atoms: C_13  and  O_14
REMARK    8  A    between atoms: O_14  and  C_15
REMARK    9  A    between atoms: C_26  and  O_27
REMARK                            x       y       z     vdW  Elec       q    Type
REMARK                         _______ _______ _______ _____ _____    ______ ____
ROOT
ATOM      1  C   UNL     1      45.757   6.323  11.650  0.00  0.00    +0.000 A 
ATOM      2  C   UNL     1      44.975   7.481  11.638  0.00  0.00    +0.000 A 
ATOM      3  N   UNL     1      45.300   8.651  12.228  0.00  0.00    +0.000 NA
ATOM      4  C   UNL     1      46.471   8.672  12.902  0.00  0.00    +0.000 A 
ATOM      5  C   UNL     1      47.344   7.590  13.029  0.00  0.00    +0.000 A 
ATOM      6  C   UNL     1      46.947   6.400  12.387  0.00  0.00    +0.000 A 
ENDROOT
BRANCH   5   7
ATOM      7  C   UNL     1      48.616   7.708  13.775  0.00  0.00    +0.000 A 
ATOM      8  C   UNL     1      49.592   8.662  13.436  0.00  0.00    +0.000 A 
ATOM      9  C   UNL     1      50.784   8.787  14.166  0.00  0.00    +0.000 A 
ATOM     10  C   UNL     1      51.018   7.974  15.271  0.00  0.00    +0.000 A 
ATOM     11  C   UNL     1      50.090   6.984  15.587  0.00  0.00    +0.000 A 
ATOM     12  C   UNL     1      48.904   6.859  14.858  0.00  0.00    +0.000 A 
BRANCH  10  13
ATOM     13  O   UNL     1      52.109   8.005  16.082  0.00  0.00    +0.000 OA
BRANCH  13  14
ATOM     14  C   UNL     1      53.285   7.307  15.700  0.00  0.00    +0.000 C 
ATOM     15  F   UNL     1      53.525   7.306  14.372  0.00  0.00    +0.000 F 
ATOM     16  F   UNL     1      54.343   7.891  16.308  0.00  0.00    +0.000 F 
ATOM     17  F   UNL     1      53.207   6.031  16.130  0.00  0.00    +0.000 F 
ENDBRANCH  13  14
ENDBRANCH  10  13
ENDBRANCH   5   7
BRANCH   1  18
ATOM     18  N   UNL     1      45.377   5.094  11.087  0.00  0.00    +0.000 N 
ATOM     19  H   UNL     1      45.866   4.318  11.535  0.00  0.00    +0.000 HD
BRANCH  18  20
ATOM     20  C   UNL     1      45.338   4.990   9.627  0.00  0.00    +0.000 C 
BRANCH  20  22
ATOM     21  C   UNL     1      44.085   2.863  10.263  0.00  0.00    +0.000 C 
ATOM     22  C   UNL     1      44.716   3.670   9.122  0.00  0.00    +0.000 C 
BRANCH  22  23
ATOM     23  C   UNL     1      45.671   2.885   8.237  0.00  0.00    +0.000 A 
ATOM     24  C   UNL     1      46.399   3.561   7.242  0.00  0.00    +0.000 A 
ATOM     25  C   UNL     1      47.291   2.877   6.413  0.00  0.00    +0.000 A 
ATOM     26  C   UNL     1      47.477   1.504   6.571  0.00  0.00    +0.000 A 
ATOM     27  C   UNL     1      46.774   0.835   7.565  0.00  0.00    +0.000 A 
ATOM     28  C   UNL     1      45.878   1.508   8.390  0.00  0.00    +0.000 A 
BRANCH  27  29
ATOM     29  O   UNL     1      46.942  -0.502   7.781  0.00  0.00    +0.000 OA
ATOM     30  H   UNL     1      46.142  -0.847   8.212  0.00  0.00    +0.000 HD
ENDBRANCH  27  29
ENDBRANCH  22  23
ENDBRANCH  20  22
ENDBRANCH  18  20
ENDBRANCH   1  18
TORSDOF 8
ENDMDL
MODEL 7
REMARK VINA RESULT:    -7.082      4.554      8.615
REMARK INTER + INTRA:         -11.185
REMARK INTER:                 -10.157
REMARK INTRA:                  -1.029
REMARK UNBOUND:                -0.998
REMARK  Name = 
REMARK  9 active torsions:
REMARK  status: ('A' for Active; 'I' for Inactive)
REMARK    1  A    between atoms: C_1  and  C_2
REMARK    2  A    between atoms: C_2  and  C_3
REMARK    3  A    between atoms: C_2  and  C_22
REMARK    4  A    between atoms: C_3  and  N_4
REMARK    5  A    between atoms: N_4  and  C_5
REMARK    6  A    between atoms: C_9  and  C_10
REMARK    7  A    between atoms: C_13  and  O_14
REMARK    8  A    between atoms: O_14  and  C_15
REMARK    9  A    between atoms: C_26  and  O_27
REMARK                            x       y       z     vdW  Elec       q    Type
REMARK                         _______ _______ _______ _____ _____    ______ ____
ROOT
ATOM      1  C   UNL     1      44.648   4.636  13.341  0.00  0.00    +0.000 A 
ATOM      2  C   UNL     1      43.371   5.203  13.322  0.00  0.00    +0.000 A 
ATOM      3  N   UNL     1      42.626   5.417  12.217  0.00  0.00    +0.000 NA
ATOM      4  C   UNL     1      43.194   5.070  11.040  0.00  0.00    +0.000 A 
ATOM      5  C   UNL     1      44.470   4.524  10.895  0.00  0.00    +0.000 A 
ATOM      6  C   UNL     1      45.193   4.323  12.087  0.00  0.00    +0.000 A 
ENDROOT
BRANCH   5   7
ATOM      7  C   UNL     1      45.007   4.160   9.566  0.00  0.00    +0.000 A 
ATOM      8  C   UNL     1      45.882   5.003   8.860  0.00  0.00    +0.000 A 
ATOM      9  C   UNL     1      46.410   4.639   7.611  0.00  0.00    +0.000 A 
ATOM     10  C   UNL     1      46.093   3.405   7.050  0.00  0.00    +0.000 A 
ATOM     11  C   UNL     1      45.182   2.581   7.707  0.00  0.00    +0.000 A 
ATOM     12  C   UNL     1      44.655   2.947   8.949  0.00  0.00    +0.000 A 
BRANCH  10  13
ATOM     13  O   UNL     1      46.551   2.912   5.869  0.00  0.00    +0.000 OA
BRANCH  13  14
ATOM     14  C   UNL     1      47.754   2.157   5.846  0.00  0.00    +0.000 C 
ATOM     15  F   UNL     1      48.689   2.572   6.726  0.00  0.00    +0.000 F 
ATOM     16  F   UNL     1      47.456   0.871   6.140  0.00  0.00    +0.000 F 
ATOM     17  F   UNL     1      48.279   2.192   4.603  0.00  0.00    +0.000 F 
ENDBRANCH  13  14
ENDBRANCH  10  13
ENDBRANCH   5   7
BRANCH   1  18
ATOM     18  N   UNL     1      45.438   4.479  14.491  0.00  0.00    +0.000 N 
ATOM     19  H   UNL     1      45.110   5.083  15.247  0.00  0.00    +0.000 HD
BRANCH  18  20
ATOM     20  C   UNL     1      46.894   4.489  14.330  0.00  0.00    +0.000 C 
BRANCH  20  22
ATOM     21  C   UNL     1      48.376   6.534  13.985  0.00  0.00    +0.000 C 
ATOM     22  C   UNL     1      47.577   5.703  14.996  0.00  0.00    +0.000 C 
BRANCH  22  23
ATOM     23  C   UNL     1      48.343   5.315  16.251  0.00  0.00    +0.000 A 
ATOM     24  C   UNL     1      49.494   6.042  16.606  0.00  0.00    +0.000 A 
ATOM     25  C   UNL     1      50.222   5.721  17.754  0.00  0.00    +0.000 A 
ATOM     26  C   UNL     1      49.806   4.671  18.573  0.00  0.00    +0.000 A 
ATOM     27  C   UNL     1      48.660   3.962  18.236  0.00  0.00    +0.000 A 
ATOM     28  C   UNL     1      47.933   4.271  17.090  0.00  0.00    +0.000 A 
BRANCH  27  29
ATOM     29  O   UNL     1      48.194   2.945  19.018  0.00  0.00    +0.000 OA
ATOM     30  H   UNL     1      47.230   2.894  18.914  0.00  0.00    +0.000 HD
ENDBRANCH  27  29
ENDBRANCH  22  23
ENDBRANCH  20  22
ENDBRANCH  18  20
ENDBRANCH   1  18
TORSDOF 8
ENDMDL
MODEL 8
REMARK VINA RESULT:    -6.869      5.884      9.098
REMARK INTER + INTRA:         -10.879
REMARK INTER:                  -9.930
REMARK INTRA:                  -0.949
REMARK UNBOUND:                -0.998
REMARK  Name = 
REMARK  9 active torsions:
REMARK  status: ('A' for Active; 'I' for Inactive)
REMARK    1  A    between atoms: C_1  and  C_2
REMARK    2  A    between atoms: C_2  and  C_3
REMARK    3  A    between atoms: C_2  and  C_22
REMARK    4  A    between atoms: C_3  and  N_4
REMARK    5  A    between atoms: N_4  and  C_5
REMARK    6  A    between atoms: C_9  and  C_10
REMARK    7  A    between atoms: C_13  and  O_14
REMARK    8  A    between atoms: O_14  and  C_15
REMARK    9  A    between atoms: C_26  and  O_27
REMARK                            x       y       z     vdW  Elec       q    Type
REMARK                         _______ _______ _______ _____ _____    ______ ____
ROOT
ATOM      1  C   UNL     1      47.879   5.059  16.513  0.00  0.00    +0.000 A 
ATOM      2  C   UNL     1      48.701   6.178  16.357  0.00  0.00    +0.000 A 
ATOM      3  N   UNL     1      48.817   6.912  15.230  0.00  0.00    +0.000 NA
ATOM      4  C   UNL     1      48.089   6.495  14.171  0.00  0.00    +0.000 A 
ATOM      5  C   UNL     1      47.248   5.380  14.163  0.00  0.00    +0.000 A 
ATOM      6  C   UNL     1      47.169   4.661  15.371  0.00  0.00    +0.000 A 
ENDROOT
BRANCH   5   7
ATOM      7  C   UNL     1      46.475   5.006  12.960  0.00  0.00    +0.000 A 
ATOM      8  C   UNL     1      45.809   3.772  12.856  0.00  0.00    +0.000 A 
ATOM      9  C   UNL     1      45.053   3.434  11.722  0.00  0.00    +0.000 A 
ATOM     10  C   UNL     1      44.925   4.338  10.672  0.00  0.00    +0.000 A 
ATOM     11  C   UNL     1      45.623   5.543  10.731  0.00  0.00    +0.000 A 
ATOM     12  C   UNL     1      46.378   5.875  11.859  0.00  0.00    +0.000 A 
BRANCH  10  13
ATOM     13  O   UNL     1      44.205   4.158   9.533  0.00  0.00    +0.000 OA
BRANCH  13  14
ATOM     14  C   UNL     1      44.650   3.219   8.565  0.00  0.00    +0.000 C 
ATOM     15  F   UNL     1      44.265   3.496   7.302  0.00  0.00    +0.000 F 
ATOM     16  F   UNL     1      46.003   3.196   8.584  0.00  0.00    +0.000 F 
ATOM     17  F   UNL     1      44.206   1.989   8.897  0.00  0.00    +0.000 F 
ENDBRANCH  13  14
ENDBRANCH  10  13
ENDBRANCH   5   7
BRANCH   1  18
ATOM     18  N   UNL     1      47.816   4.266  17.671  0.00  0.00    +0.000 N 
ATOM     19  H   UNL     1      47.269   4.725  18.401  0.00  0.00    +0.000 HD
BRANCH  18  20
ATOM     20  C   UNL     1      49.061   3.672  18.164  0.00  0.00    +0.000 C 
BRANCH  20  22
ATOM     21  C   UNL     1      49.026   1.780  16.455  0.00  0.00    +0.000 C 
ATOM     22  C   UNL     1      49.852   2.913  17.076  0.00  0.00    +0.000 C 
BRANCH  22  23
ATOM     23  C   UNL     1      51.238   2.506  17.550  0.00  0.00    +0.000 A 
ATOM     24  C   UNL     1      52.155   3.503  17.926  0.00  0.00    +0.000 A 
ATOM     25  C   UNL     1      53.436   3.170  18.374  0.00  0.00    +0.000 A 
ATOM     26  C   UNL     1      53.819   1.832  18.460  0.00  0.00    +0.000 A 
ATOM     27  C   UNL     1      52.909   0.842  18.106  0.00  0.00    +0.000 A 
ATOM     28  C   UNL     1      51.634   1.166  17.653  0.00  0.00    +0.000 A 
BRANCH  27  29
ATOM     29  O   UNL     1      53.223  -0.483  18.200  0.00  0.00    +0.000 OA
ATOM     30  H   UNL     1      53.550  -0.783  17.336  0.00  0.00    +0.000 HD
ENDBRANCH  27  29
ENDBRANCH  22  23
ENDBRANCH  20  22
ENDBRANCH  18  20
ENDBRANCH   1  18
TORSDOF 8
ENDMDL
MODEL 9
REMARK VINA RESULT:    -6.702      4.680      8.282
REMARK INTER + INTRA:         -10.639
REMARK INTER:                  -9.090
REMARK INTRA:                  -1.549
REMARK UNBOUND:                -0.998
REMARK  Name = 
REMARK  9 active torsions:
REMARK  status: ('A' for Active; 'I' for Inactive)
REMARK    1  A    between atoms: C_1  and  C_2
REMARK    2  A    between atoms: C_2  and  C_3
REMARK    3  A    between atoms: C_2  and  C_22
REMARK    4  A    between atoms: C_3  and  N_4
REMARK    5  A    between atoms: N_4  and  C_5
REMARK    6  A    between atoms: C_9  and  C_10
REMARK    7  A    between atoms: C_13  and  O_14
REMARK    8  A    between atoms: O_14  and  C_15
REMARK    9  A    between atoms: C_26  and  O_27
REMARK                            x       y       z     vdW  Elec       q    Type
REMARK                         _______ _______ _______ _____ _____    ______ ____
ROOT
ATOM      1  C   UNL     1      48.747   6.640  15.362  0.00  0.00    +0.000 A 
ATOM      2  C   UNL     1      48.616   5.729  16.413  0.00  0.00    +0.000 A 
ATOM      3  N   UNL     1      47.848   4.619  16.397  0.00  0.00    +0.000 NA
ATOM      4  C   UNL     1      47.135   4.407  15.268  0.00  0.00    +0.000 A 
ATOM      5  C   UNL     1      47.136   5.240  14.149  0.00  0.00    +0.000 A 
ATOM      6  C   UNL     1      47.962   6.379  14.230  0.00  0.00    +0.000 A 
ENDROOT
BRANCH   5   7
ATOM      7  C   UNL     1      46.334   4.921  12.948  0.00  0.00    +0.000 A 
ATOM      8  C   UNL     1      46.161   5.844  11.901  0.00  0.00    +0.000 A 
ATOM      9  C   UNL     1      45.422   5.524  10.752  0.00  0.00    +0.000 A 
ATOM     10  C   UNL     1      44.857   4.259  10.612  0.00  0.00    +0.000 A 
ATOM     11  C   UNL     1      44.968   3.352  11.663  0.00  0.00    +0.000 A 
ATOM     12  C   UNL     1      45.702   3.673  12.808  0.00  0.00    +0.000 A 
BRANCH  10  13
ATOM     13  O   UNL     1      44.144   3.805   9.546  0.00  0.00    +0.000 OA
BRANCH  13  14
ATOM     14  C   UNL     1      44.803   3.064   8.529  0.00  0.00    +0.000 C 
ATOM     15  F   UNL     1      46.113   3.355   8.388  0.00  0.00    +0.000 F 
ATOM     16  F   UNL     1      44.705   1.748   8.830  0.00  0.00    +0.000 F 
ATOM     17  F   UNL     1      44.180   3.271   7.350  0.00  0.00    +0.000 F 
ENDBRANCH  13  14
ENDBRANCH  10  13
ENDBRANCH   5   7
BRANCH   1  18
ATOM     18  N   UNL     1      49.499   7.824  15.417  0.00  0.00    +0.000 N 
ATOM     19  H   UNL     1      50.022   7.887  16.292  0.00  0.00    +0.000 HD
BRANCH  18  20
ATOM     20  C   UNL     1      48.836   9.077  15.045  0.00  0.00    +0.000 C 
BRANCH  20  22
ATOM     21  C   UNL     1      50.342  10.592  13.653  0.00  0.00    +0.000 C 
ATOM     22  C   UNL     1      49.202   9.567  13.627  0.00  0.00    +0.000 C 
BRANCH  22  23
ATOM     23  C   UNL     1      47.978   9.994  12.833  0.00  0.00    +0.000 A 
ATOM     24  C   UNL     1      48.072  11.096  11.965  0.00  0.00    +0.000 A 
ATOM     25  C   UNL     1      46.972  11.516  11.213  0.00  0.00    +0.000 A 
ATOM     26  C   UNL     1      45.759  10.834  11.310  0.00  0.00    +0.000 A 
ATOM     27  C   UNL     1      45.667   9.733  12.153  0.00  0.00    +0.000 A 
ATOM     28  C   UNL     1      46.756   9.313  12.910  0.00  0.00    +0.000 A 
BRANCH  27  29
ATOM     29  O   UNL     1      44.512   9.013  12.262  0.00  0.00    +0.000 OA
ATOM     30  H   UNL     1      44.700   8.091  12.019  0.00  0.00    +0.000 HD
ENDBRANCH  27  29
ENDBRANCH  22  23
ENDBRANCH  20  22
ENDBRANCH  18  20
ENDBRANCH   1  18
TORSDOF 8
ENDMDL
