MODEL 1
REMARK VINA RESULT:    -7.772      0.000      0.000
REMARK INTER + INTRA:         -10.807
REMARK INTER:                 -10.043
REMARK INTRA:                  -0.764
REMARK UNBOUND:                -0.764
REMARK  Name = 
REMARK  6 active torsions:
REMARK  status: ('A' for Active; 'I' for Inactive)
REMARK    1  A    between atoms: C_1  and  C_2
REMARK    2  A    between atoms: C_2  and  C_3
REMARK    3  A    between atoms: C_3  and  N_4
REMARK    4  A    between atoms: C_3  and  C_15
REMARK    5  A    between atoms: N_4  and  C_5
REMARK    6  A    between atoms: C_8  and  C_9
REMARK                            x       y       z     vdW  Elec       q    Type
REMARK                         _______ _______ _______ _____ _____    ______ ____
ROOT
ATOM      1  C   UNL     1      45.161   4.411   9.262  0.00  0.00    +0.000 A 
ATOM      2  N   UNL     1      45.972   4.921   8.299  0.00  0.00    +0.000 NA
ATOM      3  C   UNL     1      46.645   4.043   7.509  0.00  0.00    +0.000 A 
ATOM      4  C   UNL     1      46.611   2.667   7.666  0.00  0.00    +0.000 A 
ATOM      5  C   UNL     1      45.755   2.135   8.628  0.00  0.00    +0.000 A 
ATOM      6  C   UNL     1      45.013   3.020   9.414  0.00  0.00    +0.000 A 
ATOM      7 CL   UNL     1      43.832   2.339  10.480  0.00  0.00    +0.000 Cl
ENDROOT
BRANCH   4   8
ATOM      8  C   UNL     1      47.445   1.797   6.815  0.00  0.00    +0.000 C 
ATOM      9  N   UNL     1      48.513   2.382   6.191  0.00  0.00    +0.000 N 
ATOM     10  O   UNL     1      47.174   0.614   6.655  0.00  0.00    +0.000 OA
ATOM     11  H   UNL     1      48.643   3.381   6.125  0.00  0.00    +0.000 HD
ATOM     12  H   UNL     1      49.038   1.802   5.548  0.00  0.00    +0.000 HD
ENDBRANCH   4   8
BRANCH   1  13
ATOM     13  N   UNL     1      44.556   5.294  10.180  0.00  0.00    +0.000 N 
ATOM     14  H   UNL     1      44.485   6.192   9.691  0.00  0.00    +0.000 HD
BRANCH  13  15
ATOM     15  C   UNL     1      45.201   5.446  11.500  0.00  0.00    +0.000 C 
BRANCH  15  16
ATOM     16  C   UNL     1      45.950   6.829  11.502  0.00  0.00    +0.000 C 
ATOM     17  C   UNL     1      47.438   6.664  11.865  0.00  0.00    +0.000 C 
ATOM     18  C   UNL     1      48.179   7.995  11.906  0.00  0.00    +0.000 C 
ATOM     19  C   UNL     1      47.502   8.982  12.848  0.00  0.00    +0.000 C 
ATOM     20  C   UNL     1      46.051   9.208  12.447  0.00  0.00    +0.000 C 
ATOM     21  C   UNL     1      45.280   7.893  12.408  0.00  0.00    +0.000 C 
ENDBRANCH  15  16
BRANCH  15  23
ATOM     22  C   UNL     1      42.726   5.230  12.374  0.00  0.00    +0.000 C 
ATOM     23  C   UNL     1      44.206   5.357  12.686  0.00  0.00    +0.000 C 
ENDBRANCH  15  23
ENDBRANCH  13  15
ENDBRANCH   1  13
TORSDOF 5
ENDMDL
MODEL 2
REMARK VINA RESULT:    -6.507      3.482      6.559
REMARK INTER + INTRA:          -9.173
REMARK INTER:                  -8.569
REMARK INTRA:                  -0.604
REMARK UNBOUND:                -0.764
REMARK  Name = 
REMARK  6 active torsions:
REMARK  status: ('A' for Active; 'I' for Inactive)
REMARK    1  A    between atoms: C_1  and  C_2
REMARK    2  A    between atoms: C_2  and  C_3
REMARK    3  A    between atoms: C_3  and  N_4
REMARK    4  A    between atoms: C_3  and  C_15
REMARK    5  A    between atoms: N_4  and  C_5
REMARK    6  A    between atoms: C_8  and  C_9
REMARK                            x       y       z     vdW  Elec       q    Type
REMARK                         _______ _______ _______ _____ _____    ______ ____
ROOT
ATOM      1  C   UNL     1      46.247   5.527  12.247  0.00  0.00    +0.000 A 
ATOM      2  N   UNL     1      46.237   6.778  11.720  0.00  0.00    +0.000 NA
ATOM      3  C   UNL     1      46.929   7.746  12.377  0.00  0.00    +0.000 A 
ATOM      4  C   UNL     1      47.585   7.555  13.582  0.00  0.00    +0.000 A 
ATOM      5  C   UNL     1      47.631   6.268  14.111  0.00  0.00    +0.000 A 
ATOM      6  C   UNL     1      46.971   5.247  13.421  0.00  0.00    +0.000 A 
ATOM      7 CL   UNL     1      47.183   3.630  14.000  0.00  0.00    +0.000 Cl
ENDROOT
BRANCH   4   8
ATOM      8  C   UNL     1      48.237   8.689  14.266  0.00  0.00    +0.000 C 
ATOM      9  N   UNL     1      47.606   9.189  15.373  0.00  0.00    +0.000 N 
ATOM     10  O   UNL     1      49.278   9.175  13.844  0.00  0.00    +0.000 OA
ATOM     11  H   UNL     1      46.654   8.962  15.623  0.00  0.00    +0.000 HD
ATOM     12  H   UNL     1      48.014  10.014  15.795  0.00  0.00    +0.000 HD
ENDBRANCH   4   8
BRANCH   1  13
ATOM     13  N   UNL     1      45.432   4.535  11.663  0.00  0.00    +0.000 N 
ATOM     14  H   UNL     1      46.076   3.805  11.342  0.00  0.00    +0.000 HD
BRANCH  13  15
ATOM     15  C   UNL     1      44.515   4.959  10.586  0.00  0.00    +0.000 C 
BRANCH  15  16
ATOM     16  C   UNL     1      44.746   3.996   9.363  0.00  0.00    +0.000 C 
ATOM     17  C   UNL     1      45.047   2.559   9.827  0.00  0.00    +0.000 C 
ATOM     18  C   UNL     1      45.306   1.612   8.661  0.00  0.00    +0.000 C 
ATOM     19  C   UNL     1      46.419   2.131   7.760  0.00  0.00    +0.000 C 
ATOM     20  C   UNL     1      46.090   3.521   7.236  0.00  0.00    +0.000 C 
ATOM     21  C   UNL     1      45.836   4.495   8.381  0.00  0.00    +0.000 C 
ENDBRANCH  15  16
BRANCH  15  23
ATOM     22  C   UNL     1      42.692   5.253  12.464  0.00  0.00    +0.000 C 
ATOM     23  C   UNL     1      43.024   4.960  11.011  0.00  0.00    +0.000 C 
ENDBRANCH  15  23
ENDBRANCH  13  15
ENDBRANCH   1  13
TORSDOF 5
ENDMDL
MODEL 3
REMARK VINA RESULT:    -6.346      3.567      6.359
REMARK INTER + INTRA:          -8.965
REMARK INTER:                  -8.697
REMARK INTRA:                  -0.268
REMARK UNBOUND:                -0.764
REMARK  Name = 
REMARK  6 active torsions:
REMARK  status: ('A' for Active; 'I' for Inactive)
REMARK    1  A    between atoms: C_1  and  C_2
REMARK    2  A    between atoms: C_2  and  C_3
REMARK    3  A    between atoms: C_3  and  N_4
REMARK    4  A    between atoms: C_3  and  C_15
REMARK    5  A    between atoms: N_4  and  C_5
REMARK    6  A    between atoms: C_8  and  C_9
REMARK                            x       y       z     vdW  Elec       q    Type
REMARK                         _______ _______ _______ _____ _____    ______ ____
ROOT
ATOM      1  C   UNL     1      45.932   5.264  11.975  0.00  0.00    +0.000 A 
ATOM      2  N   UNL     1      46.118   3.954  12.283  0.00  0.00    +0.000 NA
ATOM      3  C   UNL     1      46.569   3.656  13.529  0.00  0.00    +0.000 A 
ATOM      4  C   UNL     1      46.918   4.601  14.480  0.00  0.00    +0.000 A 
ATOM      5  C   UNL     1      46.698   5.945  14.186  0.00  0.00    +0.000 A 
ATOM      6  C   UNL     1      46.181   6.269  12.928  0.00  0.00    +0.000 A 
ATOM      7 CL   UNL     1      45.754   7.922  12.646  0.00  0.00    +0.000 Cl
ENDROOT
BRANCH   4   8
ATOM      8  C   UNL     1      47.483   4.183  15.777  0.00  0.00    +0.000 C 
ATOM      9  N   UNL     1      47.257   5.008  16.846  0.00  0.00    +0.000 N 
ATOM     10  O   UNL     1      48.147   3.161  15.883  0.00  0.00    +0.000 OA
ATOM     11  H   UNL     1      46.906   5.951  16.759  0.00  0.00    +0.000 HD
ATOM     12  H   UNL     1      47.710   4.759  17.717  0.00  0.00    +0.000 HD
ENDBRANCH   4   8
BRANCH   1  13
ATOM     13  N   UNL     1      45.593   5.611  10.651  0.00  0.00    +0.000 N 
ATOM     14  H   UNL     1      45.649   6.634  10.613  0.00  0.00    +0.000 HD
BRANCH  13  15
ATOM     15  C   UNL     1      44.301   5.120  10.131  0.00  0.00    +0.000 C 
BRANCH  15  16
ATOM     16  C   UNL     1      44.614   4.013   9.058  0.00  0.00    +0.000 C 
ATOM     17  C   UNL     1      44.669   2.611   9.694  0.00  0.00    +0.000 C 
ATOM     18  C   UNL     1      45.003   1.524   8.680  0.00  0.00    +0.000 C 
ATOM     19  C   UNL     1      46.300   1.830   7.942  0.00  0.00    +0.000 C 
ATOM     20  C   UNL     1      46.223   3.182   7.246  0.00  0.00    +0.000 C 
ATOM     21  C   UNL     1      45.900   4.293   8.239  0.00  0.00    +0.000 C 
ENDBRANCH  15  16
BRANCH  15  23
ATOM     22  C   UNL     1      42.339   5.506  11.846  0.00  0.00    +0.000 C 
ATOM     23  C   UNL     1      43.363   4.566  11.235  0.00  0.00    +0.000 C 
ENDBRANCH  15  23
ENDBRANCH  13  15
ENDBRANCH   1  13
TORSDOF 5
ENDMDL
MODEL 4
REMARK VINA RESULT:    -6.124      5.894      7.728
REMARK INTER + INTRA:          -8.678
REMARK INTER:                  -7.949
REMARK INTRA:                  -0.729
REMARK UNBOUND:                -0.764
REMARK  Name = 
REMARK  6 active torsions:
REMARK  status: ('A' for Active; 'I' for Inactive)
REMARK    1  A    between atoms: C_1  and  C_2
REMARK    2  A    between atoms: C_2  and  C_3
REMARK    3  A    between atoms: C_3  and  N_4
REMARK    4  A    between atoms: C_3  and  C_15
REMARK    5  A    between atoms: N_4  and  C_5
REMARK    6  A    between atoms: C_8  and  C_9
REMARK                            x       y       z     vdW  Elec       q    Type
REMARK                         _______ _______ _______ _____ _____    ______ ____
ROOT
ATOM      1  C   UNL     1      47.755   4.262  15.911  0.00  0.00    +0.000 A 
ATOM      2  N   UNL     1      47.887   2.935  15.655  0.00  0.00    +0.000 NA
ATOM      3  C   UNL     1      48.906   2.271  16.264  0.00  0.00    +0.000 A 
ATOM      4  C   UNL     1      49.856   2.873  17.072  0.00  0.00    +0.000 A 
ATOM      5  C   UNL     1      49.708   4.226  17.368  0.00  0.00    +0.000 A 
ATOM      6  C   UNL     1      48.635   4.914  16.795  0.00  0.00    +0.000 A 
ATOM      7 CL   UNL     1      48.369   6.544  17.310  0.00  0.00    +0.000 Cl
ENDROOT
BRANCH   4   8
ATOM      8  C   UNL     1      50.978   2.087  17.619  0.00  0.00    +0.000 C 
ATOM      9  N   UNL     1      51.851   2.744  18.443  0.00  0.00    +0.000 N 
ATOM     10  O   UNL     1      51.133   0.909  17.325  0.00  0.00    +0.000 OA
ATOM     11  H   UNL     1      51.882   3.749  18.536  0.00  0.00    +0.000 HD
ATOM     12  H   UNL     1      52.662   2.223  18.756  0.00  0.00    +0.000 HD
ENDBRANCH   4   8
BRANCH   1  13
ATOM     13  N   UNL     1      46.793   5.002  15.193  0.00  0.00    +0.000 N 
ATOM     14  H   UNL     1      45.896   4.794  15.643  0.00  0.00    +0.000 HD
BRANCH  13  15
ATOM     15  C   UNL     1      46.729   4.792  13.733  0.00  0.00    +0.000 C 
BRANCH  15  16
ATOM     16  C   UNL     1      45.238   4.440  13.373  0.00  0.00    +0.000 C 
ATOM     17  C   UNL     1      45.161   3.358  12.280  0.00  0.00    +0.000 C 
ATOM     18  C   UNL     1      43.727   3.022  11.891  0.00  0.00    +0.000 C 
ATOM     19  C   UNL     1      42.959   4.267  11.467  0.00  0.00    +0.000 C 
ATOM     20  C   UNL     1      42.965   5.312  12.575  0.00  0.00    +0.000 C 
ATOM     21  C   UNL     1      44.389   5.676  12.979  0.00  0.00    +0.000 C 
ENDBRANCH  15  16
BRANCH  15  23
ATOM     22  C   UNL     1      47.826   7.185  13.662  0.00  0.00    +0.000 C 
ATOM     23  C   UNL     1      47.219   6.012  12.912  0.00  0.00    +0.000 C 
ENDBRANCH  15  23
ENDBRANCH  13  15
ENDBRANCH   1  13
TORSDOF 5
ENDMDL
MODEL 5
REMARK VINA RESULT:    -5.591      3.219      4.750
REMARK INTER + INTRA:          -7.989
REMARK INTER:                  -7.248
REMARK INTRA:                  -0.741
REMARK UNBOUND:                -0.764
REMARK  Name = 
REMARK  6 active torsions:
REMARK  status: ('A' for Active; 'I' for Inactive)
REMARK    1  A    between atoms: C_1  and  C_2
REMARK    2  A    between atoms: C_2  and  C_3
REMARK    3  A    between atoms: C_3  and  N_4
REMARK    4  A    between atoms: C_3  and  C_15
REMARK    5  A    between atoms: N_4  and  C_5
REMARK    6  A    between atoms: C_8  and  C_9
REMARK                            x       y       z     vdW  Elec       q    Type
REMARK                         _______ _______ _______ _____ _____    ______ ____
ROOT
ATOM      1  C   UNL     1      46.336   6.404  12.995  0.00  0.00    +0.000 A 
ATOM      2  N   UNL     1      45.683   6.962  11.943  0.00  0.00    +0.000 NA
ATOM      3  C   UNL     1      44.917   6.148  11.170  0.00  0.00    +0.000 A 
ATOM      4  C   UNL     1      44.816   4.777  11.342  0.00  0.00    +0.000 A 
ATOM      5  C   UNL     1      45.454   4.201  12.438  0.00  0.00    +0.000 A 
ATOM      6  C   UNL     1      46.201   5.031  13.278  0.00  0.00    +0.000 A 
ATOM      7 CL   UNL     1      46.841   4.331  14.725  0.00  0.00    +0.000 Cl
ENDROOT
BRANCH   4   8
ATOM      8  C   UNL     1      44.029   3.961  10.398  0.00  0.00    +0.000 C 
ATOM      9  N   UNL     1      43.983   4.390   9.098  0.00  0.00    +0.000 N 
ATOM     10  O   UNL     1      43.424   2.964  10.767  0.00  0.00    +0.000 OA
ATOM     11  H   UNL     1      44.284   5.308   8.803  0.00  0.00    +0.000 HD
ATOM     12  H   UNL     1      43.381   3.873   8.469  0.00  0.00    +0.000 HD
ENDBRANCH   4   8
BRANCH   1  13
ATOM     13  N   UNL     1      47.241   7.195  13.733  0.00  0.00    +0.000 N 
ATOM     14  H   UNL     1      46.947   8.164  13.576  0.00  0.00    +0.000 HD
BRANCH  13  15
ATOM     15  C   UNL     1      48.680   7.013  13.459  0.00  0.00    +0.000 C 
BRANCH  15  16
ATOM     16  C   UNL     1      49.063   7.990  12.286  0.00  0.00    +0.000 C 
ATOM     17  C   UNL     1      50.590   8.133  12.148  0.00  0.00    +0.000 C 
ATOM     18  C   UNL     1      50.987   9.099  11.039  0.00  0.00    +0.000 C 
ATOM     19  C   UNL     1      50.334  10.463  11.227  0.00  0.00    +0.000 C 
ATOM     20  C   UNL     1      48.819  10.335  11.286  0.00  0.00    +0.000 C 
ATOM     21  C   UNL     1      48.390   9.382  12.396  0.00  0.00    +0.000 C 
ENDBRANCH  15  16
BRANCH  15  23
ATOM     22  C   UNL     1      49.099   6.758  16.046  0.00  0.00    +0.000 C 
ATOM     23  C   UNL     1      49.580   7.262  14.697  0.00  0.00    +0.000 C 
ENDBRANCH  15  23
ENDBRANCH  13  15
ENDBRANCH   1  13
TORSDOF 5
ENDMDL
MODEL 6
REMARK VINA RESULT:    -5.574      3.398      4.721
REMARK INTER + INTRA:          -7.967
REMARK INTER:                  -7.011
REMARK INTRA:                  -0.957
REMARK UNBOUND:                -0.764
REMARK  Name = 
REMARK  6 active torsions:
REMARK  status: ('A' for Active; 'I' for Inactive)
REMARK    1  A    between atoms: C_1  and  C_2
REMARK    2  A    between atoms: C_2  and  C_3
REMARK    3  A    between atoms: C_3  and  N_4
REMARK    4  A    between atoms: C_3  and  C_15
REMARK    5  A    between atoms: N_4  and  C_5
REMARK    6  A    between atoms: C_8  and  C_9
REMARK                            x       y       z     vdW  Elec       q    Type
REMARK                         _______ _______ _______ _____ _____    ______ ____
ROOT
ATOM      1  C   UNL     1      46.186   5.650  13.135  0.00  0.00    +0.000 A 
ATOM      2  N   UNL     1      46.243   4.322  13.413  0.00  0.00    +0.000 NA
ATOM      3  C   UNL     1      45.531   3.478  12.620  0.00  0.00    +0.000 A 
ATOM      4  C   UNL     1      44.698   3.890  11.592  0.00  0.00    +0.000 A 
ATOM      5  C   UNL     1      44.661   5.246  11.277  0.00  0.00    +0.000 A 
ATOM      6  C   UNL     1      45.429   6.124  12.046  0.00  0.00    +0.000 A 
ATOM      7 CL   UNL     1      45.504   7.775  11.532  0.00  0.00    +0.000 Cl
ENDROOT
BRANCH   4   8
ATOM      8  C   UNL     1      43.896   2.905  10.841  0.00  0.00    +0.000 C 
ATOM      9  N   UNL     1      44.147   2.795   9.500  0.00  0.00    +0.000 N 
ATOM     10  O   UNL     1      43.028   2.240  11.390  0.00  0.00    +0.000 OA
ATOM     11  H   UNL     1      44.693   3.465   8.978  0.00  0.00    +0.000 HD
ATOM     12  H   UNL     1      43.544   2.175   8.974  0.00  0.00    +0.000 HD
ENDBRANCH   4   8
BRANCH   1  13
ATOM     13  N   UNL     1      46.804   6.559  14.018  0.00  0.00    +0.000 N 
ATOM     14  H   UNL     1      46.555   7.490  13.671  0.00  0.00    +0.000 HD
BRANCH  13  15
ATOM     15  C   UNL     1      48.262   6.426  14.215  0.00  0.00    +0.000 C 
BRANCH  15  16
ATOM     16  C   UNL     1      48.945   7.665  13.527  0.00  0.00    +0.000 C 
ATOM     17  C   UNL     1      48.108   8.944  13.709  0.00  0.00    +0.000 C 
ATOM     18  C   UNL     1      48.733  10.153  13.023  0.00  0.00    +0.000 C 
ATOM     19  C   UNL     1      48.990   9.884  11.546  0.00  0.00    +0.000 C 
ATOM     20  C   UNL     1      49.882   8.665  11.363  0.00  0.00    +0.000 C 
ATOM     21  C   UNL     1      49.276   7.435  12.030  0.00  0.00    +0.000 C 
ENDBRANCH  15  16
BRANCH  15  23
ATOM     22  C   UNL     1      48.244   5.103  16.493  0.00  0.00    +0.000 C 
ATOM     23  C   UNL     1      48.675   6.328  15.706  0.00  0.00    +0.000 C 
ENDBRANCH  15  23
ENDBRANCH  13  15
ENDBRANCH   1  13
TORSDOF 5
ENDMDL
MODEL 7
REMARK VINA RESULT:    -5.494      4.956      6.184
REMARK INTER + INTRA:          -7.864
REMARK INTER:                  -7.255
REMARK INTRA:                  -0.609
REMARK UNBOUND:                -0.764
REMARK  Name = 
REMARK  6 active torsions:
REMARK  status: ('A' for Active; 'I' for Inactive)
REMARK    1  A    between atoms: C_1  and  C_2
REMARK    2  A    between atoms: C_2  and  C_3
REMARK    3  A    between atoms: C_3  and  N_4
REMARK    4  A    between atoms: C_3  and  C_15
REMARK    5  A    between atoms: N_4  and  C_5
REMARK    6  A    between atoms: C_8  and  C_9
REMARK                            x       y       z     vdW  Elec       q    Type
REMARK                         _______ _______ _______ _____ _____    ______ ____
ROOT
ATOM      1  C   UNL     1      46.414   4.712  14.169  0.00  0.00    +0.000 A 
ATOM      2  N   UNL     1      45.682   3.732  13.578  0.00  0.00    +0.000 NA
ATOM      3  C   UNL     1      45.340   3.898  12.273  0.00  0.00    +0.000 A 
ATOM      4  C   UNL     1      45.630   5.029  11.528  0.00  0.00    +0.000 A 
ATOM      5  C   UNL     1      46.411   6.023  12.114  0.00  0.00    +0.000 A 
ATOM      6  C   UNL     1      46.819   5.845  13.439  0.00  0.00    +0.000 A 
ATOM      7 CL   UNL     1      47.928   7.003  14.091  0.00  0.00    +0.000 Cl
ENDROOT
BRANCH   4   8
ATOM      8  C   UNL     1      45.141   5.156  10.142  0.00  0.00    +0.000 C 
ATOM      9  N   UNL     1      43.797   4.985   9.941  0.00  0.00    +0.000 N 
ATOM     10  O   UNL     1      45.906   5.378   9.213  0.00  0.00    +0.000 OA
ATOM     11  H   UNL     1      43.175   4.595  10.635  0.00  0.00    +0.000 HD
ATOM     12  H   UNL     1      43.475   4.997   8.981  0.00  0.00    +0.000 HD
ENDBRANCH   4   8
BRANCH   1  13
ATOM     13  N   UNL     1      46.670   4.631  15.553  0.00  0.00    +0.000 N 
ATOM     14  H   UNL     1      46.408   5.546  15.934  0.00  0.00    +0.000 HD
BRANCH  13  15
ATOM     15  C   UNL     1      48.032   4.242  15.969  0.00  0.00    +0.000 C 
BRANCH  15  16
ATOM     16  C   UNL     1      48.331   4.962  17.336  0.00  0.00    +0.000 C 
ATOM     17  C   UNL     1      47.035   5.250  18.117  0.00  0.00    +0.000 C 
ATOM     18  C   UNL     1      47.296   5.977  19.431  0.00  0.00    +0.000 C 
ATOM     19  C   UNL     1      48.087   7.260  19.210  0.00  0.00    +0.000 C 
ATOM     20  C   UNL     1      49.405   6.971  18.507  0.00  0.00    +0.000 C 
ATOM     21  C   UNL     1      49.176   6.253  17.182  0.00  0.00    +0.000 C 
ENDBRANCH  15  16
BRANCH  15  23
ATOM     22  C   UNL     1      49.440   2.198  16.851  0.00  0.00    +0.000 C 
ATOM     23  C   UNL     1      48.221   2.709  16.104  0.00  0.00    +0.000 C 
ENDBRANCH  15  23
ENDBRANCH  13  15
ENDBRANCH   1  13
TORSDOF 5
ENDMDL
MODEL 8
REMARK VINA RESULT:    -5.196      3.832      5.630
REMARK INTER + INTRA:          -7.479
REMARK INTER:                  -6.909
REMARK INTRA:                  -0.570
REMARK UNBOUND:                -0.764
REMARK  Name = 
REMARK  6 active torsions:
REMARK  status: ('A' for Active; 'I' for Inactive)
REMARK    1  A    between atoms: C_1  and  C_2
REMARK    2  A    between atoms: C_2  and  C_3
REMARK    3  A    between atoms: C_3  and  N_4
REMARK    4  A    between atoms: C_3  and  C_15
REMARK    5  A    between atoms: N_4  and  C_5
REMARK    6  A    between atoms: C_8  and  C_9
REMARK                            x       y       z     vdW  Elec       q    Type
REMARK                         _______ _______ _______ _____ _____    ______ ____
ROOT
ATOM      1  C   UNL     1      46.382   6.536  13.113  0.00  0.00    +0.000 A 
ATOM      2  N   UNL     1      46.487   5.182  13.072  0.00  0.00    +0.000 NA
ATOM      3  C   UNL     1      45.680   4.511  12.208  0.00  0.00    +0.000 A 
ATOM      4  C   UNL     1      44.711   5.110  11.420  0.00  0.00    +0.000 A 
ATOM      5  C   UNL     1      44.620   6.500  11.429  0.00  0.00    +0.000 A 
ATOM      6  C   UNL     1      45.479   7.212  12.270  0.00  0.00    +0.000 A 
ATOM      7 CL   UNL     1      45.470   8.937  12.140  0.00  0.00    +0.000 Cl
ENDROOT
BRANCH   4   8
ATOM      8  C   UNL     1      43.821   4.289  10.577  0.00  0.00    +0.000 C 
ATOM      9  N   UNL     1      43.882   4.497   9.225  0.00  0.00    +0.000 N 
ATOM     10  O   UNL     1      43.046   3.479  11.069  0.00  0.00    +0.000 OA
ATOM     11  H   UNL     1      44.342   5.291   8.803  0.00  0.00    +0.000 HD
ATOM     12  H   UNL     1      43.217   3.988   8.656  0.00  0.00    +0.000 HD
ENDBRANCH   4   8
BRANCH   1  13
ATOM     13  N   UNL     1      47.108   7.246  14.090  0.00  0.00    +0.000 N 
ATOM     14  H   UNL     1      46.519   8.046  14.342  0.00  0.00    +0.000 HD
BRANCH  13  15
ATOM     15  C   UNL     1      48.478   7.673  13.740  0.00  0.00    +0.000 C 
BRANCH  15  16
ATOM     16  C   UNL     1      49.468   6.913  14.698  0.00  0.00    +0.000 C 
ATOM     17  C   UNL     1      48.774   6.491  16.007  0.00  0.00    +0.000 C 
ATOM     18  C   UNL     1      49.720   5.781  16.966  0.00  0.00    +0.000 C 
ATOM     19  C   UNL     1      50.953   6.625  17.260  0.00  0.00    +0.000 C 
ATOM     20  C   UNL     1      51.687   6.980  15.974  0.00  0.00    +0.000 C 
ATOM     21  C   UNL     1      50.767   7.703  14.997  0.00  0.00    +0.000 C 
ENDBRANCH  15  16
BRANCH  15  23
ATOM     22  C   UNL     1      49.449   8.555  11.456  0.00  0.00    +0.000 C 
ATOM     23  C   UNL     1      48.843   7.415  12.255  0.00  0.00    +0.000 C 
ENDBRANCH  15  23
ENDBRANCH  13  15
ENDBRANCH   1  13
TORSDOF 5
ENDMDL
MODEL 9
REMARK VINA RESULT:    -5.159      3.486      5.313
REMARK INTER + INTRA:          -7.431
REMARK INTER:                  -6.599
REMARK INTRA:                  -0.832
REMARK UNBOUND:                -0.764
REMARK  Name = 
REMARK  6 active torsions:
REMARK  status: ('A' for Active; 'I' for Inactive)
REMARK    1  A    between atoms: C_1  and  C_2
REMARK    2  A    between atoms: C_2  and  C_3
REMARK    3  A    between atoms: C_3  and  N_4
REMARK    4  A    between atoms: C_3  and  C_15
REMARK    5  A    between atoms: N_4  and  C_5
REMARK    6  A    between atoms: C_8  and  C_9
REMARK                            x       y       z     vdW  Elec       q    Type
REMARK                         _______ _______ _______ _____ _____    ______ ____
ROOT
ATOM      1  C   UNL     1      47.091   6.103  12.537  0.00  0.00    +0.000 A 
ATOM      2  N   UNL     1      46.668   6.572  11.334  0.00  0.00    +0.000 NA
ATOM      3  C   UNL     1      45.631   5.931  10.734  0.00  0.00    +0.000 A 
ATOM      4  C   UNL     1      45.023   4.791  11.236  0.00  0.00    +0.000 A 
ATOM      5  C   UNL     1      45.426   4.325  12.485  0.00  0.00    +0.000 A 
ATOM      6  C   UNL     1      46.454   5.004  13.143  0.00  0.00    +0.000 A 
ATOM      7 CL   UNL     1      46.821   4.515  14.762  0.00  0.00    +0.000 Cl
ENDROOT
BRANCH   4   8
ATOM      8  C   UNL     1      43.960   4.113  10.469  0.00  0.00    +0.000 C 
ATOM      9  N   UNL     1      43.901   4.376   9.127  0.00  0.00    +0.000 N 
ATOM     10  O   UNL     1      43.155   3.372  11.016  0.00  0.00    +0.000 OA
ATOM     11  H   UNL     1      44.401   5.133   8.684  0.00  0.00    +0.000 HD
ATOM     12  H   UNL     1      43.125   3.970   8.618  0.00  0.00    +0.000 HD
ENDBRANCH   4   8
BRANCH   1  13
ATOM     13  N   UNL     1      48.247   6.663  13.119  0.00  0.00    +0.000 N 
ATOM     14  H   UNL     1      48.564   5.978  13.812  0.00  0.00    +0.000 HD
BRANCH  13  15
ATOM     15  C   UNL     1      48.124   8.012  13.707  0.00  0.00    +0.000 C 
BRANCH  15  16
ATOM     16  C   UNL     1      48.346   7.871  15.259  0.00  0.00    +0.000 C 
ATOM     17  C   UNL     1      48.402   9.247  15.947  0.00  0.00    +0.000 C 
ATOM     18  C   UNL     1      48.649   9.139  17.447  0.00  0.00    +0.000 C 
ATOM     19  C   UNL     1      49.907   8.336  17.748  0.00  0.00    +0.000 C 
ATOM     20  C   UNL     1      49.824   6.945  17.135  0.00  0.00    +0.000 C 
ATOM     21  C   UNL     1      49.588   7.021  15.630  0.00  0.00    +0.000 C 
ENDBRANCH  15  16
BRANCH  15  23
ATOM     22  C   UNL     1      49.561   8.847  11.664  0.00  0.00    +0.000 C 
ATOM     23  C   UNL     1      49.113   9.041  13.102  0.00  0.00    +0.000 C 
ENDBRANCH  15  23
ENDBRANCH  13  15
ENDBRANCH   1  13
TORSDOF 5
ENDMDL
