MODEL 1
REMARK VINA RESULT:    -7.656      0.000      0.000
REMARK INTER + INTRA:         -10.039
REMARK INTER:                  -9.447
REMARK INTRA:                  -0.592
REMARK UNBOUND:                -0.592
REMARK  Name = 
REMARK  6 active torsions:
REMARK  status: ('A' for Active; 'I' for Inactive)
REMARK    1  A    between atoms: C_1  and  C_2
REMARK    2  A    between atoms: C_4  and  C_5
REMARK    3  A    between atoms: C_9  and  C_10
REMARK    4  A    between atoms: C_10  and  N_11
REMARK    5  A    between atoms: C_15  and  C_16
REMARK    6  A    between atoms: C_19  and  C_20
REMARK                            x       y       z     vdW  Elec       q    Type
REMARK                         _______ _______ _______ _____ _____    ______ ____
ROOT
ATOM      1  C   UNL     1      46.037   5.139  13.786  0.00  0.00    +0.000 C 
ENDROOT
BRANCH   1   2
ATOM      2  N   UNL     1      46.425   3.849  14.341  0.00  0.00    +0.000 N 
ATOM      3  C   UNL     1      47.395   3.970  15.355  0.00  0.00    +0.000 A 
ATOM      4  C   UNL     1      47.868   2.825  15.977  0.00  0.00    +0.000 A 
ATOM      5  C   UNL     1      48.800   2.945  17.012  0.00  0.00    +0.000 A 
ATOM      6  C   UNL     1      49.256   4.208  17.410  0.00  0.00    +0.000 A 
ATOM      7  C   UNL     1      48.736   5.316  16.741  0.00  0.00    +0.000 A 
ATOM      8  C   UNL     1      49.103   6.744  17.019  0.00  0.00    +0.000 C 
ATOM      9  N   UNL     1      47.821   5.189  15.737  0.00  0.00    +0.000 NA
ATOM     10  H   UNL     1      46.754   3.212  13.626  0.00  0.00    +0.000 HD
BRANCH   6  11
ATOM     11  C   UNL     1      50.221   4.325  18.535  0.00  0.00    +0.000 C 
ATOM     12  N   UNL     1      49.703   4.339  19.803  0.00  0.00    +0.000 N 
ATOM     13  O   UNL     1      51.430   4.403  18.366  0.00  0.00    +0.000 OA
ATOM     14  H   UNL     1      48.735   4.155  20.020  0.00  0.00    +0.000 HD
ATOM     15  H   UNL     1      50.368   4.361  20.566  0.00  0.00    +0.000 HD
ENDBRANCH   6  11
ENDBRANCH   1   2
BRANCH   1  20
ATOM     16  C   UNL     1      44.972   4.120  10.240  0.00  0.00    +0.000 A 
ATOM     17  C   UNL     1      43.599   4.419  10.313  0.00  0.00    +0.000 A 
ATOM     18  C   UNL     1      43.035   5.003  11.453  0.00  0.00    +0.000 A 
ATOM     19  C   UNL     1      43.827   5.272  12.565  0.00  0.00    +0.000 A 
ATOM     20  C   UNL     1      45.189   4.958  12.548  0.00  0.00    +0.000 A 
ATOM     21  C   UNL     1      45.751   4.421  11.375  0.00  0.00    +0.000 A 
BRANCH  16  25
ATOM     22  C   UNL     1      46.619   0.078   7.715  0.00  0.00    +0.000 C 
ATOM     23  C   UNL     1      46.356   1.550   7.806  0.00  0.00    +0.000 A 
ATOM     24  C   UNL     1      45.778   2.106   8.946  0.00  0.00    +0.000 A 
ATOM     25  C   UNL     1      45.568   3.494   9.033  0.00  0.00    +0.000 A 
ATOM     26  C   UNL     1      45.950   4.255   7.919  0.00  0.00    +0.000 A 
ATOM     27  C   UNL     1      46.500   3.623   6.815  0.00  0.00    +0.000 A 
ATOM     28  N   UNL     1      46.715   2.295   6.736  0.00  0.00    +0.000 NA
ENDBRANCH  16  25
ENDBRANCH   1  20
TORSDOF 4
ENDMDL
MODEL 2
REMARK VINA RESULT:    -7.483      3.001      3.710
REMARK INTER + INTRA:          -9.826
REMARK INTER:                  -9.109
REMARK INTRA:                  -0.717
REMARK UNBOUND:                -0.592
REMARK  Name = 
REMARK  6 active torsions:
REMARK  status: ('A' for Active; 'I' for Inactive)
REMARK    1  A    between atoms: C_1  and  C_2
REMARK    2  A    between atoms: C_4  and  C_5
REMARK    3  A    between atoms: C_9  and  C_10
REMARK    4  A    between atoms: C_10  and  N_11
REMARK    5  A    between atoms: C_15  and  C_16
REMARK    6  A    between atoms: C_19  and  C_20
REMARK                            x       y       z     vdW  Elec       q    Type
REMARK                         _______ _______ _______ _____ _____    ______ ____
ROOT
ATOM      1  C   UNL     1      45.333   6.859  12.451  0.00  0.00    +0.000 C 
ENDROOT
BRANCH   1   2
ATOM      2  N   UNL     1      46.147   6.406  13.571  0.00  0.00    +0.000 N 
ATOM      3  C   UNL     1      47.449   6.945  13.540  0.00  0.00    +0.000 A 
ATOM      4  C   UNL     1      48.345   6.602  14.541  0.00  0.00    +0.000 A 
ATOM      5  C   UNL     1      49.624   7.165  14.536  0.00  0.00    +0.000 A 
ATOM      6  C   UNL     1      49.997   8.062  13.526  0.00  0.00    +0.000 A 
ATOM      7  C   UNL     1      49.045   8.363  12.553  0.00  0.00    +0.000 A 
ATOM      8  C   UNL     1      49.256   9.293  11.395  0.00  0.00    +0.000 C 
ATOM      9  N   UNL     1      47.796   7.812  12.571  0.00  0.00    +0.000 NA
ATOM     10  H   UNL     1      46.195   5.396  13.621  0.00  0.00    +0.000 HD
BRANCH   6  11
ATOM     11  C   UNL     1      51.348   8.682  13.552  0.00  0.00    +0.000 C 
ATOM     12  N   UNL     1      52.328   8.074  12.812  0.00  0.00    +0.000 N 
ATOM     13  O   UNL     1      51.602   9.692  14.192  0.00  0.00    +0.000 OA
ATOM     14  H   UNL     1      52.161   7.316  12.165  0.00  0.00    +0.000 HD
ATOM     15  H   UNL     1      53.230   8.532  12.787  0.00  0.00    +0.000 HD
ENDBRANCH   6  11
ENDBRANCH   1   2
BRANCH   1  20
ATOM     16  C   UNL     1      44.869   3.957   9.979  0.00  0.00    +0.000 A 
ATOM     17  C   UNL     1      43.695   3.388  10.505  0.00  0.00    +0.000 A 
ATOM     18  C   UNL     1      43.022   3.963  11.589  0.00  0.00    +0.000 A 
ATOM     19  C   UNL     1      43.528   5.107  12.199  0.00  0.00    +0.000 A 
ATOM     20  C   UNL     1      44.711   5.685  11.731  0.00  0.00    +0.000 A 
ATOM     21  C   UNL     1      45.346   5.127  10.606  0.00  0.00    +0.000 A 
BRANCH  16  25
ATOM     22  C   UNL     1      46.741  -0.064   7.581  0.00  0.00    +0.000 C 
ATOM     23  C   UNL     1      46.483   1.409   7.667  0.00  0.00    +0.000 A 
ATOM     24  C   UNL     1      45.791   1.954   8.747  0.00  0.00    +0.000 A 
ATOM     25  C   UNL     1      45.586   3.343   8.833  0.00  0.00    +0.000 A 
ATOM     26  C   UNL     1      46.092   4.116   7.780  0.00  0.00    +0.000 A 
ATOM     27  C   UNL     1      46.752   3.495   6.730  0.00  0.00    +0.000 A 
ATOM     28  N   UNL     1      46.961   2.166   6.654  0.00  0.00    +0.000 NA
ENDBRANCH  16  25
ENDBRANCH   1  20
TORSDOF 4
ENDMDL
MODEL 3
REMARK VINA RESULT:    -7.343      4.237      5.219
REMARK INTER + INTRA:          -9.652
REMARK INTER:                  -8.955
REMARK INTRA:                  -0.697
REMARK UNBOUND:                -0.592
REMARK  Name = 
REMARK  6 active torsions:
REMARK  status: ('A' for Active; 'I' for Inactive)
REMARK    1  A    between atoms: C_1  and  C_2
REMARK    2  A    between atoms: C_4  and  C_5
REMARK    3  A    between atoms: C_9  and  C_10
REMARK    4  A    between atoms: C_10  and  N_11
REMARK    5  A    between atoms: C_15  and  C_16
REMARK    6  A    between atoms: C_19  and  C_20
REMARK                            x       y       z     vdW  Elec       q    Type
REMARK                         _______ _______ _______ _____ _____    ______ ____
ROOT
ATOM      1  C   UNL     1      45.424   6.013  13.207  0.00  0.00    +0.000 C 
ENDROOT
BRANCH   1   2
ATOM      2  N   UNL     1      44.900   7.336  12.893  0.00  0.00    +0.000 N 
ATOM      3  C   UNL     1      45.916   8.243  12.530  0.00  0.00    +0.000 A 
ATOM      4  C   UNL     1      45.574   9.546  12.207  0.00  0.00    +0.000 A 
ATOM      5  C   UNL     1      46.573  10.437  11.807  0.00  0.00    +0.000 A 
ATOM      6  C   UNL     1      47.908  10.017  11.741  0.00  0.00    +0.000 A 
ATOM      7  C   UNL     1      48.180   8.692  12.079  0.00  0.00    +0.000 A 
ATOM      8  C   UNL     1      49.541   8.061  12.074  0.00  0.00    +0.000 C 
ATOM      9  N   UNL     1      47.195   7.828  12.461  0.00  0.00    +0.000 NA
ATOM     10  H   UNL     1      44.355   7.719  13.655  0.00  0.00    +0.000 HD
BRANCH   6  11
ATOM     11  C   UNL     1      48.958  10.964  11.281  0.00  0.00    +0.000 C 
ATOM     12  N   UNL     1      49.787  11.490  12.237  0.00  0.00    +0.000 N 
ATOM     13  O   UNL     1      49.102  11.275  10.107  0.00  0.00    +0.000 OA
ATOM     14  H   UNL     1      49.806  11.185  13.199  0.00  0.00    +0.000 HD
ATOM     15  H   UNL     1      50.535  12.089  11.911  0.00  0.00    +0.000 HD
ENDBRANCH   6  11
ENDBRANCH   1   2
BRANCH   1  20
ATOM     16  C   UNL     1      44.862   3.542  10.321  0.00  0.00    +0.000 A 
ATOM     17  C   UNL     1      43.722   2.874  10.803  0.00  0.00    +0.000 A 
ATOM     18  C   UNL     1      43.099   3.254  11.997  0.00  0.00    +0.000 A 
ATOM     19  C   UNL     1      43.624   4.293  12.760  0.00  0.00    +0.000 A 
ATOM     20  C   UNL     1      44.777   4.960  12.335  0.00  0.00    +0.000 A 
ATOM     21  C   UNL     1      45.360   4.603  11.105  0.00  0.00    +0.000 A 
BRANCH  16  25
ATOM     22  C   UNL     1      46.874   0.022   7.323  0.00  0.00    +0.000 C 
ATOM     23  C   UNL     1      46.489   1.443   7.602  0.00  0.00    +0.000 A 
ATOM     24  C   UNL     1      45.851   1.792   8.791  0.00  0.00    +0.000 A 
ATOM     25  C   UNL     1      45.526   3.134   9.057  0.00  0.00    +0.000 A 
ATOM     26  C   UNL     1      45.860   4.066   8.065  0.00  0.00    +0.000 A 
ATOM     27  C   UNL     1      46.477   3.635   6.900  0.00  0.00    +0.000 A 
ATOM     28  N   UNL     1      46.801   2.351   6.651  0.00  0.00    +0.000 NA
ENDBRANCH  16  25
ENDBRANCH   1  20
TORSDOF 4
ENDMDL
MODEL 4
REMARK VINA RESULT:    -7.100      1.112      2.025
REMARK INTER + INTRA:          -9.352
REMARK INTER:                  -8.793
REMARK INTRA:                  -0.560
REMARK UNBOUND:                -0.592
REMARK  Name = 
REMARK  6 active torsions:
REMARK  status: ('A' for Active; 'I' for Inactive)
REMARK    1  A    between atoms: C_1  and  C_2
REMARK    2  A    between atoms: C_4  and  C_5
REMARK    3  A    between atoms: C_9  and  C_10
REMARK    4  A    between atoms: C_10  and  N_11
REMARK    5  A    between atoms: C_15  and  C_16
REMARK    6  A    between atoms: C_19  and  C_20
REMARK                            x       y       z     vdW  Elec       q    Type
REMARK                         _______ _______ _______ _____ _____    ______ ____
ROOT
ATOM      1  C   UNL     1      45.465   4.574  13.770  0.00  0.00    +0.000 C 
ENDROOT
BRANCH   1   2
ATOM      2  N   UNL     1      46.558   5.519  13.953  0.00  0.00    +0.000 N 
ATOM      3  C   UNL     1      47.309   5.252  15.115  0.00  0.00    +0.000 A 
ATOM      4  C   UNL     1      48.383   6.070  15.428  0.00  0.00    +0.000 A 
ATOM      5  C   UNL     1      49.155   5.784  16.557  0.00  0.00    +0.000 A 
ATOM      6  C   UNL     1      48.842   4.685  17.367  0.00  0.00    +0.000 A 
ATOM      7  C   UNL     1      47.749   3.904  16.992  0.00  0.00    +0.000 A 
ATOM      8  C   UNL     1      47.256   2.694  17.730  0.00  0.00    +0.000 C 
ATOM      9  N   UNL     1      47.006   4.189  15.883  0.00  0.00    +0.000 NA
ATOM     10  H   UNL     1      46.233   6.478  13.969  0.00  0.00    +0.000 HD
BRANCH   6  11
ATOM     11  C   UNL     1      49.691   4.369  18.546  0.00  0.00    +0.000 C 
ATOM     12  N   UNL     1      50.708   3.471  18.360  0.00  0.00    +0.000 N 
ATOM     13  O   UNL     1      49.515   4.877  19.645  0.00  0.00    +0.000 OA
ATOM     14  H   UNL     1      50.988   3.111  17.459  0.00  0.00    +0.000 HD
ATOM     15  H   UNL     1      51.318   3.304  19.151  0.00  0.00    +0.000 HD
ENDBRANCH   6  11
ENDBRANCH   1   2
BRANCH   1  20
ATOM     16  C   UNL     1      44.921   3.919  10.024  0.00  0.00    +0.000 A 
ATOM     17  C   UNL     1      43.752   4.675   9.822  0.00  0.00    +0.000 A 
ATOM     18  C   UNL     1      43.186   5.440  10.849  0.00  0.00    +0.000 A 
ATOM     19  C   UNL     1      43.757   5.439  12.118  0.00  0.00    +0.000 A 
ATOM     20  C   UNL     1      44.899   4.674  12.372  0.00  0.00    +0.000 A 
ATOM     21  C   UNL     1      45.488   3.954  11.315  0.00  0.00    +0.000 A 
BRANCH  16  25
ATOM     22  C   UNL     1      46.996   3.496   5.448  0.00  0.00    +0.000 C 
ATOM     23  C   UNL     1      46.526   2.892   6.737  0.00  0.00    +0.000 A 
ATOM     24  C   UNL     1      45.986   3.687   7.746  0.00  0.00    +0.000 A 
ATOM     25  C   UNL     1      45.518   3.103   8.937  0.00  0.00    +0.000 A 
ATOM     26  C   UNL     1      45.645   1.712   9.044  0.00  0.00    +0.000 A 
ATOM     27  C   UNL     1      46.212   0.994   8.001  0.00  0.00    +0.000 A 
ATOM     28  N   UNL     1      46.648   1.551   6.855  0.00  0.00    +0.000 NA
ENDBRANCH  16  25
ENDBRANCH   1  20
TORSDOF 4
ENDMDL
MODEL 5
REMARK VINA RESULT:    -7.007      2.095      3.496
REMARK INTER + INTRA:          -9.237
REMARK INTER:                  -8.596
REMARK INTRA:                  -0.641
REMARK UNBOUND:                -0.592
REMARK  Name = 
REMARK  6 active torsions:
REMARK  status: ('A' for Active; 'I' for Inactive)
REMARK    1  A    between atoms: C_1  and  C_2
REMARK    2  A    between atoms: C_4  and  C_5
REMARK    3  A    between atoms: C_9  and  C_10
REMARK    4  A    between atoms: C_10  and  N_11
REMARK    5  A    between atoms: C_15  and  C_16
REMARK    6  A    between atoms: C_19  and  C_20
REMARK                            x       y       z     vdW  Elec       q    Type
REMARK                         _______ _______ _______ _____ _____    ______ ____
ROOT
ATOM      1  C   UNL     1      48.613   7.052  14.320  0.00  0.00    +0.000 C 
ENDROOT
BRANCH   1   2
ATOM      2  N   UNL     1      48.466   7.820  15.549  0.00  0.00    +0.000 N 
ATOM      3  C   UNL     1      48.724   7.047  16.699  0.00  0.00    +0.000 A 
ATOM      4  C   UNL     1      48.621   7.639  17.948  0.00  0.00    +0.000 A 
ATOM      5  C   UNL     1      48.916   6.886  19.088  0.00  0.00    +0.000 A 
ATOM      6  C   UNL     1      49.305   5.546  18.968  0.00  0.00    +0.000 A 
ATOM      7  C   UNL     1      49.389   5.016  17.681  0.00  0.00    +0.000 A 
ATOM      8  C   UNL     1      49.782   3.606  17.351  0.00  0.00    +0.000 C 
ATOM      9  N   UNL     1      49.105   5.762  16.574  0.00  0.00    +0.000 NA
ATOM     10  H   UNL     1      47.552   8.248  15.623  0.00  0.00    +0.000 HD
BRANCH   6  11
ATOM     11  C   UNL     1      49.649   4.765  20.186  0.00  0.00    +0.000 C 
ATOM     12  N   UNL     1      48.661   3.987  20.728  0.00  0.00    +0.000 N 
ATOM     13  O   UNL     1      50.758   4.795  20.700  0.00  0.00    +0.000 OA
ATOM     14  H   UNL     1      47.768   3.818  20.289  0.00  0.00    +0.000 HD
ATOM     15  H   UNL     1      48.918   3.414  21.523  0.00  0.00    +0.000 HD
ENDBRANCH   6  11
ENDBRANCH   1   2
BRANCH   1  20
ATOM     16  C   UNL     1      45.697   6.267  11.946  0.00  0.00    +0.000 A 
ATOM     17  C   UNL     1      45.076   7.529  11.914  0.00  0.00    +0.000 A 
ATOM     18  C   UNL     1      45.619   8.631  12.583  0.00  0.00    +0.000 A 
ATOM     19  C   UNL     1      46.783   8.491  13.332  0.00  0.00    +0.000 A 
ATOM     20  C   UNL     1      47.414   7.246  13.420  0.00  0.00    +0.000 A 
ATOM     21  C   UNL     1      46.885   6.160  12.698  0.00  0.00    +0.000 A 
BRANCH  16  25
ATOM     22  C   UNL     1      45.050   3.485   7.791  0.00  0.00    +0.000 C 
ATOM     23  C   UNL     1      44.807   3.745   9.246  0.00  0.00    +0.000 A 
ATOM     24  C   UNL     1      45.381   4.844   9.884  0.00  0.00    +0.000 A 
ATOM     25  C   UNL     1      45.117   5.095  11.242  0.00  0.00    +0.000 A 
ATOM     26  C   UNL     1      44.280   4.182  11.896  0.00  0.00    +0.000 A 
ATOM     27  C   UNL     1      43.765   3.102  11.195  0.00  0.00    +0.000 A 
ATOM     28  N   UNL     1      44.005   2.868   9.891  0.00  0.00    +0.000 NA
ENDBRANCH  16  25
ENDBRANCH   1  20
TORSDOF 4
ENDMDL
MODEL 6
REMARK VINA RESULT:    -6.701      2.410      4.164
REMARK INTER + INTRA:          -8.860
REMARK INTER:                  -8.182
REMARK INTRA:                  -0.678
REMARK UNBOUND:                -0.592
REMARK  Name = 
REMARK  6 active torsions:
REMARK  status: ('A' for Active; 'I' for Inactive)
REMARK    1  A    between atoms: C_1  and  C_2
REMARK    2  A    between atoms: C_4  and  C_5
REMARK    3  A    between atoms: C_9  and  C_10
REMARK    4  A    between atoms: C_10  and  N_11
REMARK    5  A    between atoms: C_15  and  C_16
REMARK    6  A    between atoms: C_19  and  C_20
REMARK                            x       y       z     vdW  Elec       q    Type
REMARK                         _______ _______ _______ _____ _____    ______ ____
ROOT
ATOM      1  C   UNL     1      48.073   5.517  16.192  0.00  0.00    +0.000 C 
ENDROOT
BRANCH   1   2
ATOM      2  N   UNL     1      49.238   6.242  16.684  0.00  0.00    +0.000 N 
ATOM      3  C   UNL     1      50.254   5.379  17.140  0.00  0.00    +0.000 A 
ATOM      4  C   UNL     1      51.425   5.922  17.643  0.00  0.00    +0.000 A 
ATOM      5  C   UNL     1      52.452   5.070  18.058  0.00  0.00    +0.000 A 
ATOM      6  C   UNL     1      52.294   3.680  17.973  0.00  0.00    +0.000 A 
ATOM      7  C   UNL     1      51.090   3.203  17.455  0.00  0.00    +0.000 A 
ATOM      8  C   UNL     1      50.733   1.756  17.290  0.00  0.00    +0.000 C 
ATOM      9  N   UNL     1      50.096   4.045  17.046  0.00  0.00    +0.000 NA
ATOM     10  H   UNL     1      48.994   6.901  17.413  0.00  0.00    +0.000 HD
BRANCH   6  11
ATOM     11  C   UNL     1      53.406   2.784  18.385  0.00  0.00    +0.000 C 
ATOM     12  N   UNL     1      53.527   2.515  19.723  0.00  0.00    +0.000 N 
ATOM     13  O   UNL     1      54.190   2.291  17.587  0.00  0.00    +0.000 OA
ATOM     14  H   UNL     1      52.847   2.783  20.418  0.00  0.00    +0.000 HD
ATOM     15  H   UNL     1      54.250   1.859  19.991  0.00  0.00    +0.000 HD
ENDBRANCH   6  11
ENDBRANCH   1   2
BRANCH   1  20
ATOM     16  C   UNL     1      46.475   5.490  12.700  0.00  0.00    +0.000 A 
ATOM     17  C   UNL     1      47.112   6.614  12.142  0.00  0.00    +0.000 A 
ATOM     18  C   UNL     1      48.089   7.327  12.845  0.00  0.00    +0.000 A 
ATOM     19  C   UNL     1      48.430   6.954  14.142  0.00  0.00    +0.000 A 
ATOM     20  C   UNL     1      47.796   5.865  14.747  0.00  0.00    +0.000 A 
ATOM     21  C   UNL     1      46.855   5.125  14.007  0.00  0.00    +0.000 A 
BRANCH  16  25
ATOM     22  C   UNL     1      44.509   3.747   8.396  0.00  0.00    +0.000 C 
ATOM     23  C   UNL     1      44.484   3.887   9.888  0.00  0.00    +0.000 A 
ATOM     24  C   UNL     1      45.486   4.585  10.559  0.00  0.00    +0.000 A 
ATOM     25  C   UNL     1      45.433   4.737  11.956  0.00  0.00    +0.000 A 
ATOM     26  C   UNL     1      44.346   4.141  12.609  0.00  0.00    +0.000 A 
ATOM     27  C   UNL     1      43.401   3.446  11.870  0.00  0.00    +0.000 A 
ATOM     28  N   UNL     1      43.443   3.311  10.531  0.00  0.00    +0.000 NA
ENDBRANCH  16  25
ENDBRANCH   1  20
TORSDOF 4
ENDMDL
MODEL 7
REMARK VINA RESULT:    -6.542      5.405      7.862
REMARK INTER + INTRA:          -8.664
REMARK INTER:                  -7.960
REMARK INTRA:                  -0.704
REMARK UNBOUND:                -0.592
REMARK  Name = 
REMARK  6 active torsions:
REMARK  status: ('A' for Active; 'I' for Inactive)
REMARK    1  A    between atoms: C_1  and  C_2
REMARK    2  A    between atoms: C_4  and  C_5
REMARK    3  A    between atoms: C_9  and  C_10
REMARK    4  A    between atoms: C_10  and  N_11
REMARK    5  A    between atoms: C_15  and  C_16
REMARK    6  A    between atoms: C_19  and  C_20
REMARK                            x       y       z     vdW  Elec       q    Type
REMARK                         _______ _______ _______ _____ _____    ______ ____
ROOT
ATOM      1  C   UNL     1      46.099   8.389  13.200  0.00  0.00    +0.000 C 
ENDROOT
BRANCH   1   2
ATOM      2  N   UNL     1      44.914   8.240  12.364  0.00  0.00    +0.000 N 
ATOM      3  C   UNL     1      44.657   6.895  12.034  0.00  0.00    +0.000 A 
ATOM      4  C   UNL     1      43.562   6.593  11.238  0.00  0.00    +0.000 A 
ATOM      5  C   UNL     1      43.280   5.257  10.942  0.00  0.00    +0.000 A 
ATOM      6  C   UNL     1      44.100   4.235  11.438  0.00  0.00    +0.000 A 
ATOM      7  C   UNL     1      45.182   4.611  12.233  0.00  0.00    +0.000 A 
ATOM      8  C   UNL     1      46.171   3.667  12.850  0.00  0.00    +0.000 C 
ATOM      9  N   UNL     1      45.445   5.919  12.522  0.00  0.00    +0.000 NA
ATOM     10  H   UNL     1      44.973   8.796  11.520  0.00  0.00    +0.000 HD
BRANCH   6  11
ATOM     11  C   UNL     1      43.769   2.815  11.145  0.00  0.00    +0.000 C 
ATOM     12  N   UNL     1      44.436   2.222  10.106  0.00  0.00    +0.000 N 
ATOM     13  O   UNL     1      42.946   2.180  11.788  0.00  0.00    +0.000 OA
ATOM     14  H   UNL     1      45.211   2.643   9.615  0.00  0.00    +0.000 HD
ATOM     15  H   UNL     1      44.249   1.239   9.947  0.00  0.00    +0.000 HD
ENDBRANCH   6  11
ENDBRANCH   1   2
BRANCH   1  20
ATOM     16  C   UNL     1      49.453   9.546  11.730  0.00  0.00    +0.000 A 
ATOM     17  C   UNL     1      49.030  10.717  11.074  0.00  0.00    +0.000 A 
ATOM     18  C   UNL     1      47.708  11.168  11.158  0.00  0.00    +0.000 A 
ATOM     19  C   UNL     1      46.764  10.438  11.875  0.00  0.00    +0.000 A 
ATOM     20  C   UNL     1      47.134   9.250  12.513  0.00  0.00    +0.000 A 
ATOM     21  C   UNL     1      48.479   8.839  12.464  0.00  0.00    +0.000 A 
BRANCH  16  25
ATOM     22  C   UNL     1      52.943   6.460   9.801  0.00  0.00    +0.000 C 
ATOM     23  C   UNL     1      52.544   7.587  10.704  0.00  0.00    +0.000 A 
ATOM     24  C   UNL     1      51.223   8.029  10.758  0.00  0.00    +0.000 A 
ATOM     25  C   UNL     1      50.855   9.065  11.635  0.00  0.00    +0.000 A 
ATOM     26  C   UNL     1      51.880   9.620  12.412  0.00  0.00    +0.000 A 
ATOM     27  C   UNL     1      53.173   9.137  12.285  0.00  0.00    +0.000 A 
ATOM     28  N   UNL     1      53.524   8.135  11.456  0.00  0.00    +0.000 NA
ENDBRANCH  16  25
ENDBRANCH   1  20
TORSDOF 4
ENDMDL
MODEL 8
REMARK VINA RESULT:    -6.288      2.725      3.655
REMARK INTER + INTRA:          -8.351
REMARK INTER:                  -7.657
REMARK INTRA:                  -0.693
REMARK UNBOUND:                -0.592
REMARK  Name = 
REMARK  6 active torsions:
REMARK  status: ('A' for Active; 'I' for Inactive)
REMARK    1  A    between atoms: C_1  and  C_2
REMARK    2  A    between atoms: C_4  and  C_5
REMARK    3  A    between atoms: C_9  and  C_10
REMARK    4  A    between atoms: C_10  and  N_11
REMARK    5  A    between atoms: C_15  and  C_16
REMARK    6  A    between atoms: C_19  and  C_20
REMARK                            x       y       z     vdW  Elec       q    Type
REMARK                         _______ _______ _______ _____ _____    ______ ____
ROOT
ATOM      1  C   UNL     1      48.520   8.237  13.310  0.00  0.00    +0.000 C 
ENDROOT
BRANCH   1   2
ATOM      2  N   UNL     1      48.832   6.998  14.012  0.00  0.00    +0.000 N 
ATOM      3  C   UNL     1      48.806   7.154  15.412  0.00  0.00    +0.000 A 
ATOM      4  C   UNL     1      49.087   6.062  16.218  0.00  0.00    +0.000 A 
ATOM      5  C   UNL     1      49.022   6.202  17.607  0.00  0.00    +0.000 A 
ATOM      6  C   UNL     1      48.683   7.436  18.178  0.00  0.00    +0.000 A 
ATOM      7  C   UNL     1      48.411   8.491  17.307  0.00  0.00    +0.000 A 
ATOM      8  C   UNL     1      48.036   9.882  17.725  0.00  0.00    +0.000 C 
ATOM      9  N   UNL     1      48.471   8.341  15.952  0.00  0.00    +0.000 NA
ATOM     10  H   UNL     1      49.724   6.615  13.727  0.00  0.00    +0.000 HD
BRANCH   6  11
ATOM     11  C   UNL     1      48.583   7.564  19.656  0.00  0.00    +0.000 C 
ATOM     12  N   UNL     1      47.522   6.948  20.265  0.00  0.00    +0.000 N 
ATOM     13  O   UNL     1      49.398   8.183  20.324  0.00  0.00    +0.000 OA
ATOM     14  H   UNL     1      46.885   6.321  19.795  0.00  0.00    +0.000 HD
ATOM     15  H   UNL     1      47.490   6.990  21.276  0.00  0.00    +0.000 HD
ENDBRANCH   6  11
ENDBRANCH   1   2
BRANCH   1  20
ATOM     16  C   UNL     1      45.569   6.718  11.378  0.00  0.00    +0.000 A 
ATOM     17  C   UNL     1      44.687   7.814  11.398  0.00  0.00    +0.000 A 
ATOM     18  C   UNL     1      45.056   9.043  11.958  0.00  0.00    +0.000 A 
ATOM     19  C   UNL     1      46.309   9.195  12.545  0.00  0.00    +0.000 A 
ATOM     20  C   UNL     1      47.203   8.121  12.578  0.00  0.00    +0.000 A 
ATOM     21  C   UNL     1      46.837   6.909  11.963  0.00  0.00    +0.000 A 
BRANCH  16  25
ATOM     22  C   UNL     1      45.521   3.427   7.558  0.00  0.00    +0.000 C 
ATOM     23  C   UNL     1      45.154   3.818   8.957  0.00  0.00    +0.000 A 
ATOM     24  C   UNL     1      45.554   5.043   9.488  0.00  0.00    +0.000 A 
ATOM     25  C   UNL     1      45.174   5.413  10.790  0.00  0.00    +0.000 A 
ATOM     26  C   UNL     1      44.405   4.485  11.504  0.00  0.00    +0.000 A 
ATOM     27  C   UNL     1      44.064   3.278  10.912  0.00  0.00    +0.000 A 
ATOM     28  N   UNL     1      44.416   2.929   9.659  0.00  0.00    +0.000 NA
ENDBRANCH  16  25
ENDBRANCH   1  20
TORSDOF 4
ENDMDL
MODEL 9
REMARK VINA RESULT:    -6.182      6.000      7.511
REMARK INTER + INTRA:          -8.219
REMARK INTER:                  -7.741
REMARK INTRA:                  -0.478
REMARK UNBOUND:                -0.592
REMARK  Name = 
REMARK  6 active torsions:
REMARK  status: ('A' for Active; 'I' for Inactive)
REMARK    1  A    between atoms: C_1  and  C_2
REMARK    2  A    between atoms: C_4  and  C_5
REMARK    3  A    between atoms: C_9  and  C_10
REMARK    4  A    between atoms: C_10  and  N_11
REMARK    5  A    between atoms: C_15  and  C_16
REMARK    6  A    between atoms: C_19  and  C_20
REMARK                            x       y       z     vdW  Elec       q    Type
REMARK                         _______ _______ _______ _____ _____    ______ ____
ROOT
ATOM      1  C   UNL     1      48.538   8.314  12.010  0.00  0.00    +0.000 C 
ENDROOT
BRANCH   1   2
ATOM      2  N   UNL     1      48.643   7.117  12.834  0.00  0.00    +0.000 N 
ATOM      3  C   UNL     1      47.431   6.400  12.896  0.00  0.00    +0.000 A 
ATOM      4  C   UNL     1      47.372   5.238  13.648  0.00  0.00    +0.000 A 
ATOM      5  C   UNL     1      46.184   4.503  13.679  0.00  0.00    +0.000 A 
ATOM      6  C   UNL     1      45.063   4.942  12.963  0.00  0.00    +0.000 A 
ATOM      7  C   UNL     1      45.194   6.119  12.227  0.00  0.00    +0.000 A 
ATOM      8  C   UNL     1      44.110   6.748  11.403  0.00  0.00    +0.000 C 
ATOM      9  N   UNL     1      46.361   6.825  12.198  0.00  0.00    +0.000 NA
ATOM     10  H   UNL     1      48.965   7.328  13.770  0.00  0.00    +0.000 HD
BRANCH   6  11
ATOM     11  C   UNL     1      43.815   4.133  12.975  0.00  0.00    +0.000 C 
ATOM     12  N   UNL     1      43.913   2.828  12.570  0.00  0.00    +0.000 N 
ATOM     13  O   UNL     1      42.736   4.585  13.331  0.00  0.00    +0.000 OA
ATOM     14  H   UNL     1      44.787   2.357  12.384  0.00  0.00    +0.000 HD
ATOM     15  H   UNL     1      43.073   2.267  12.635  0.00  0.00    +0.000 HD
ENDBRANCH   6  11
ENDBRANCH   1   2
BRANCH   1  20
ATOM     16  C   UNL     1      52.031   8.075  10.431  0.00  0.00    +0.000 A 
ATOM     17  C   UNL     1      52.322   9.445  10.298  0.00  0.00    +0.000 A 
ATOM     18  C   UNL     1      51.447  10.430  10.770  0.00  0.00    +0.000 A 
ATOM     19  C   UNL     1      50.239  10.068  11.358  0.00  0.00    +0.000 A 
ATOM     20  C   UNL     1      49.894   8.719  11.478  0.00  0.00    +0.000 A 
ATOM     21  C   UNL     1      50.809   7.739  11.048  0.00  0.00    +0.000 A 
BRANCH  16  25
ATOM     22  C   UNL     1      53.494   4.818   6.871  0.00  0.00    +0.000 C 
ATOM     23  C   UNL     1      53.674   5.465   8.210  0.00  0.00    +0.000 A 
ATOM     24  C   UNL     1      52.798   6.456   8.651  0.00  0.00    +0.000 A 
ATOM     25  C   UNL     1      52.957   7.030   9.924  0.00  0.00    +0.000 A 
ATOM     26  C   UNL     1      54.036   6.567  10.689  0.00  0.00    +0.000 A 
ATOM     27  C   UNL     1      54.874   5.592  10.170  0.00  0.00    +0.000 A 
ATOM     28  N   UNL     1      54.714   5.031   8.956  0.00  0.00    +0.000 NA
ENDBRANCH  16  25
ENDBRANCH   1  20
TORSDOF 4
ENDMDL
