MODEL 1
REMARK VINA RESULT:    -9.358      0.000      0.000
REMARK INTER + INTRA:         -12.468
REMARK INTER:                 -11.546
REMARK INTRA:                  -0.922
REMARK UNBOUND:                -0.922
REMARK  Name = 
REMARK  4 active torsions:
REMARK  status: ('A' for Active; 'I' for Inactive)
REMARK    1  A    between atoms: C_2  and  C_4
REMARK    2  A    between atoms: N_8  and  C_9
REMARK    3  A    between atoms: C_9  and  C_10
REMARK    4  A    between atoms: C_14  and  C_15
REMARK                            x       y       z     vdW  Elec       q    Type
REMARK                         _______ _______ _______ _____ _____    ______ ____
ROOT
ATOM      1  C   UNL     1      43.969   4.883  11.450  0.00  0.00    +0.000 C 
ATOM      2  C   UNL     1      42.653   5.082  12.202  0.00  0.00    +0.000 C 
ATOM      3  C   UNL     1      43.057   6.060  11.153  0.00  0.00    +0.000 C 
ENDROOT
BRANCH   1   8
ATOM      4  C   UNL     1      46.578   2.754   7.467  0.00  0.00    +0.000 A 
ATOM      5  C   UNL     1      46.297   4.095   7.710  0.00  0.00    +0.000 A 
ATOM      6  C   UNL     1      45.470   4.436   8.784  0.00  0.00    +0.000 A 
ATOM      7  C   UNL     1      44.930   3.435   9.585  0.00  0.00    +0.000 A 
ATOM      8  N   UNL     1      44.023   3.678  10.617  0.00  0.00    +0.000 N 
ATOM      9  N   UNL     1      45.192   2.130   9.351  0.00  0.00    +0.000 NA
ATOM     10  C   UNL     1      45.998   1.815   8.304  0.00  0.00    +0.000 A 
ATOM     11  H   UNL     1      43.856   2.783  11.071  0.00  0.00    +0.000 HD
BRANCH   4  13
ATOM     12  N   UNL     1      47.305   2.960   5.158  0.00  0.00    +0.000 N 
ATOM     13  C   UNL     1      47.425   2.294   6.348  0.00  0.00    +0.000 C 
ATOM     14  O   UNL     1      48.223   1.380   6.483  0.00  0.00    +0.000 OA
ATOM     15  H   UNL     1      47.962   2.700   4.431  0.00  0.00    +0.000 HD
ATOM     16  H   UNL     1      46.848   3.855   5.072  0.00  0.00    +0.000 HD
ENDBRANCH   4  13
ENDBRANCH   1   8
BRANCH   1  17
ATOM     17  C   UNL     1      45.256   5.175  12.214  0.00  0.00    +0.000 A 
ATOM     18  C   UNL     1      45.676   4.378  13.283  0.00  0.00    +0.000 A 
ATOM     19  C   UNL     1      46.896   4.640  13.883  0.00  0.00    +0.000 A 
ATOM     20  N   UNL     1      47.722   5.637  13.505  0.00  0.00    +0.000 NA
ATOM     21  C   UNL     1      47.312   6.446  12.499  0.00  0.00    +0.000 A 
ATOM     22  C   UNL     1      46.095   6.241  11.852  0.00  0.00    +0.000 A 
BRANCH  21  23
ATOM     23  C   UNL     1      48.241   7.531  12.120  0.00  0.00    +0.000 A 
ATOM     24  C   UNL     1      47.797   8.867  12.051  0.00  0.00    +0.000 A 
ATOM     25  C   UNL     1      48.664   9.903  11.690  0.00  0.00    +0.000 A 
ATOM     26  C   UNL     1      49.986   9.614  11.389  0.00  0.00    +0.000 A 
ATOM     27  F   UNL     1      50.816  10.604  11.034  0.00  0.00    +0.000 F 
ATOM     28  C   UNL     1      50.460   8.311  11.446  0.00  0.00    +0.000 A 
ATOM     29  C   UNL     1      49.592   7.277  11.810  0.00  0.00    +0.000 A 
ENDBRANCH  21  23
ENDBRANCH   1  17
TORSDOF 4
ENDMDL
MODEL 2
REMARK VINA RESULT:    -9.042      2.589      3.970
REMARK INTER + INTRA:         -12.079
REMARK INTER:                 -11.495
REMARK INTRA:                  -0.584
REMARK UNBOUND:                -0.922
REMARK  Name = 
REMARK  4 active torsions:
REMARK  status: ('A' for Active; 'I' for Inactive)
REMARK    1  A    between atoms: C_2  and  C_4
REMARK    2  A    between atoms: N_8  and  C_9
REMARK    3  A    between atoms: C_9  and  C_10
REMARK    4  A    between atoms: C_14  and  C_15
REMARK                            x       y       z     vdW  Elec       q    Type
REMARK                         _______ _______ _______ _____ _____    ______ ____
ROOT
ATOM      1  C   UNL     1      44.016   4.940  11.497  0.00  0.00    +0.000 C 
ATOM      2  C   UNL     1      42.788   5.052  12.399  0.00  0.00    +0.000 C 
ATOM      3  C   UNL     1      42.958   6.004  11.267  0.00  0.00    +0.000 C 
ENDROOT
BRANCH   1   8
ATOM      4  C   UNL     1      46.516   2.771   7.466  0.00  0.00    +0.000 A 
ATOM      5  C   UNL     1      46.171   4.104   7.665  0.00  0.00    +0.000 A 
ATOM      6  C   UNL     1      45.388   4.450   8.769  0.00  0.00    +0.000 A 
ATOM      7  C   UNL     1      44.954   3.460   9.645  0.00  0.00    +0.000 A 
ATOM      8  N   UNL     1      44.094   3.701  10.716  0.00  0.00    +0.000 N 
ATOM      9  N   UNL     1      45.278   2.162   9.454  0.00  0.00    +0.000 NA
ATOM     10  C   UNL     1      46.040   1.842   8.377  0.00  0.00    +0.000 A 
ATOM     11  H   UNL     1      44.005   2.821  11.220  0.00  0.00    +0.000 HD
BRANCH   4  13
ATOM     12  N   UNL     1      47.193   2.991   5.143  0.00  0.00    +0.000 N 
ATOM     13  C   UNL     1      47.324   2.306   6.320  0.00  0.00    +0.000 C 
ATOM     14  O   UNL     1      48.102   1.370   6.424  0.00  0.00    +0.000 OA
ATOM     15  H   UNL     1      47.825   2.725   4.397  0.00  0.00    +0.000 HD
ATOM     16  H   UNL     1      46.756   3.898   5.081  0.00  0.00    +0.000 HD
ENDBRANCH   4  13
ENDBRANCH   1   8
BRANCH   1  17
ATOM     17  C   UNL     1      45.349   5.398  12.079  0.00  0.00    +0.000 A 
ATOM     18  C   UNL     1      46.128   6.378  11.457  0.00  0.00    +0.000 A 
ATOM     19  C   UNL     1      47.286   6.816  12.077  0.00  0.00    +0.000 A 
ATOM     20  N   UNL     1      47.729   6.348  13.262  0.00  0.00    +0.000 NA
ATOM     21  C   UNL     1      47.009   5.367  13.859  0.00  0.00    +0.000 A 
ATOM     22  C   UNL     1      45.834   4.878  13.290  0.00  0.00    +0.000 A 
BRANCH  21  23
ATOM     23  C   UNL     1      47.530   4.875  15.151  0.00  0.00    +0.000 A 
ATOM     24  C   UNL     1      47.212   3.581  15.610  0.00  0.00    +0.000 A 
ATOM     25  C   UNL     1      47.695   3.103  16.832  0.00  0.00    +0.000 A 
ATOM     26  C   UNL     1      48.501   3.918  17.613  0.00  0.00    +0.000 A 
ATOM     27  F   UNL     1      48.958   3.466  18.789  0.00  0.00    +0.000 F 
ATOM     28  C   UNL     1      48.837   5.197  17.195  0.00  0.00    +0.000 A 
ATOM     29  C   UNL     1      48.355   5.672  15.972  0.00  0.00    +0.000 A 
ENDBRANCH  21  23
ENDBRANCH   1  17
TORSDOF 4
ENDMDL
MODEL 3
REMARK VINA RESULT:    -7.324      3.470      6.792
REMARK INTER + INTRA:          -9.958
REMARK INTER:                  -9.198
REMARK INTRA:                  -0.760
REMARK UNBOUND:                -0.922
REMARK  Name = 
REMARK  4 active torsions:
REMARK  status: ('A' for Active; 'I' for Inactive)
REMARK    1  A    between atoms: C_2  and  C_4
REMARK    2  A    between atoms: N_8  and  C_9
REMARK    3  A    between atoms: C_9  and  C_10
REMARK    4  A    between atoms: C_14  and  C_15
REMARK                            x       y       z     vdW  Elec       q    Type
REMARK                         _______ _______ _______ _____ _____    ______ ____
ROOT
ATOM      1  C   UNL     1      43.853   5.514  11.650  0.00  0.00    +0.000 C 
ATOM      2  C   UNL     1      42.421   6.046  11.616  0.00  0.00    +0.000 C 
ATOM      3  C   UNL     1      42.984   5.530  12.895  0.00  0.00    +0.000 C 
ENDROOT
BRANCH   1   8
ATOM      4  C   UNL     1      48.590   7.058  13.194  0.00  0.00    +0.000 A 
ATOM      5  C   UNL     1      47.568   6.487  13.947  0.00  0.00    +0.000 A 
ATOM      6  C   UNL     1      46.324   6.261  13.351  0.00  0.00    +0.000 A 
ATOM      7  C   UNL     1      46.120   6.619  12.024  0.00  0.00    +0.000 A 
ATOM      8  N   UNL     1      44.887   6.517  11.378  0.00  0.00    +0.000 N 
ATOM      9  N   UNL     1      47.104   7.181  11.287  0.00  0.00    +0.000 NA
ATOM     10  C   UNL     1      48.307   7.394  11.880  0.00  0.00    +0.000 A 
ATOM     11  H   UNL     1      45.046   6.778  10.408  0.00  0.00    +0.000 HD
BRANCH   4  13
ATOM     12  N   UNL     1      50.865   7.847  12.870  0.00  0.00    +0.000 N 
ATOM     13  C   UNL     1      49.931   7.351  13.739  0.00  0.00    +0.000 C 
ATOM     14  O   UNL     1      50.191   7.190  14.922  0.00  0.00    +0.000 OA
ATOM     15  H   UNL     1      51.746   8.137  13.277  0.00  0.00    +0.000 HD
ATOM     16  H   UNL     1      50.629   8.216  11.962  0.00  0.00    +0.000 HD
ENDBRANCH   4  13
ENDBRANCH   1   8
BRANCH   1  17
ATOM     17  C   UNL     1      44.106   4.160  10.996  0.00  0.00    +0.000 A 
ATOM     18  C   UNL     1      43.494   2.991  11.459  0.00  0.00    +0.000 A 
ATOM     19  C   UNL     1      43.693   1.806  10.772  0.00  0.00    +0.000 A 
ATOM     20  N   UNL     1      44.460   1.695   9.668  0.00  0.00    +0.000 NA
ATOM     21  C   UNL     1      45.095   2.809   9.230  0.00  0.00    +0.000 A 
ATOM     22  C   UNL     1      44.941   4.035   9.875  0.00  0.00    +0.000 A 
BRANCH  21  23
ATOM     23  C   UNL     1      45.933   2.645   8.024  0.00  0.00    +0.000 A 
ATOM     24  C   UNL     1      46.684   1.470   7.823  0.00  0.00    +0.000 A 
ATOM     25  C   UNL     1      47.483   1.304   6.687  0.00  0.00    +0.000 A 
ATOM     26  C   UNL     1      47.543   2.314   5.740  0.00  0.00    +0.000 A 
ATOM     27  F   UNL     1      48.315   2.161   4.655  0.00  0.00    +0.000 F 
ATOM     28  C   UNL     1      46.817   3.485   5.902  0.00  0.00    +0.000 A 
ATOM     29  C   UNL     1      46.017   3.649   7.037  0.00  0.00    +0.000 A 
ENDBRANCH  21  23
ENDBRANCH   1  17
TORSDOF 4
ENDMDL
MODEL 4
REMARK VINA RESULT:    -6.862      4.654      8.466
REMARK INTER + INTRA:          -9.389
REMARK INTER:                  -8.483
REMARK INTRA:                  -0.905
REMARK UNBOUND:                -0.922
REMARK  Name = 
REMARK  4 active torsions:
REMARK  status: ('A' for Active; 'I' for Inactive)
REMARK    1  A    between atoms: C_2  and  C_4
REMARK    2  A    between atoms: N_8  and  C_9
REMARK    3  A    between atoms: C_9  and  C_10
REMARK    4  A    between atoms: C_14  and  C_15
REMARK                            x       y       z     vdW  Elec       q    Type
REMARK                         _______ _______ _______ _____ _____    ______ ____
ROOT
ATOM      1  C   UNL     1      49.050   8.075  13.037  0.00  0.00    +0.000 C 
ATOM      2  C   UNL     1      50.037   8.463  11.937  0.00  0.00    +0.000 C 
ATOM      3  C   UNL     1      49.594   9.488  12.923  0.00  0.00    +0.000 C 
ENDROOT
BRANCH   1   8
ATOM      4  C   UNL     1      48.565   6.554  18.002  0.00  0.00    +0.000 A 
ATOM      5  C   UNL     1      48.444   7.831  17.464  0.00  0.00    +0.000 A 
ATOM      6  C   UNL     1      48.738   8.034  16.113  0.00  0.00    +0.000 A 
ATOM      7  C   UNL     1      49.156   6.964  15.329  0.00  0.00    +0.000 A 
ATOM      8  N   UNL     1      49.559   7.093  14.000  0.00  0.00    +0.000 N 
ATOM      9  N   UNL     1      49.283   5.722  15.846  0.00  0.00    +0.000 NA
ATOM     10  C   UNL     1      48.994   5.541  17.161  0.00  0.00    +0.000 A 
ATOM     11  H   UNL     1      49.740   6.151  13.660  0.00  0.00    +0.000 HD
BRANCH   4  13
ATOM     12  N   UNL     1      48.015   4.941  19.735  0.00  0.00    +0.000 N 
ATOM     13  C   UNL     1      48.295   6.244  19.421  0.00  0.00    +0.000 C 
ATOM     14  O   UNL     1      48.350   7.104  20.286  0.00  0.00    +0.000 OA
ATOM     15  H   UNL     1      47.931   4.727  20.722  0.00  0.00    +0.000 HD
ATOM     16  H   UNL     1      48.194   4.174  19.105  0.00  0.00    +0.000 HD
ENDBRANCH   4  13
ENDBRANCH   1   8
BRANCH   1  17
ATOM     17  C   UNL     1      47.600   7.852  12.622  0.00  0.00    +0.000 A 
ATOM     18  C   UNL     1      46.609   8.809  12.859  0.00  0.00    +0.000 A 
ATOM     19  C   UNL     1      45.328   8.590  12.381  0.00  0.00    +0.000 A 
ATOM     20  N   UNL     1      44.959   7.489  11.695  0.00  0.00    +0.000 NA
ATOM     21  C   UNL     1      45.896   6.531  11.493  0.00  0.00    +0.000 A 
ATOM     22  C   UNL     1      47.204   6.685  11.948  0.00  0.00    +0.000 A 
BRANCH  21  23
ATOM     23  C   UNL     1      45.451   5.337  10.745  0.00  0.00    +0.000 A 
ATOM     24  C   UNL     1      45.669   5.235   9.356  0.00  0.00    +0.000 A 
ATOM     25  C   UNL     1      45.251   4.112   8.635  0.00  0.00    +0.000 A 
ATOM     26  C   UNL     1      44.604   3.078   9.295  0.00  0.00    +0.000 A 
ATOM     27  F   UNL     1      44.194   2.006   8.605  0.00  0.00    +0.000 F 
ATOM     28  C   UNL     1      44.372   3.142  10.662  0.00  0.00    +0.000 A 
ATOM     29  C   UNL     1      44.793   4.264  11.381  0.00  0.00    +0.000 A 
ENDBRANCH  21  23
ENDBRANCH   1  17
TORSDOF 4
ENDMDL
MODEL 5
REMARK VINA RESULT:    -6.839      4.038      7.656
REMARK INTER + INTRA:          -9.360
REMARK INTER:                  -9.624
REMARK INTRA:                   0.264
REMARK UNBOUND:                -0.922
REMARK  Name = 
REMARK  4 active torsions:
REMARK  status: ('A' for Active; 'I' for Inactive)
REMARK    1  A    between atoms: C_2  and  C_4
REMARK    2  A    between atoms: N_8  and  C_9
REMARK    3  A    between atoms: C_9  and  C_10
REMARK    4  A    between atoms: C_14  and  C_15
REMARK                            x       y       z     vdW  Elec       q    Type
REMARK                         _______ _______ _______ _____ _____    ______ ____
ROOT
ATOM      1  C   UNL     1      48.588   8.078  12.661  0.00  0.00    +0.000 C 
ATOM      2  C   UNL     1      49.742   7.610  11.775  0.00  0.00    +0.000 C 
ATOM      3  C   UNL     1      49.405   9.059  11.839  0.00  0.00    +0.000 C 
ENDROOT
BRANCH   1   8
ATOM      4  C   UNL     1      47.998   4.505  16.414  0.00  0.00    +0.000 A 
ATOM      5  C   UNL     1      47.222   4.716  15.278  0.00  0.00    +0.000 A 
ATOM      6  C   UNL     1      47.490   5.818  14.462  0.00  0.00    +0.000 A 
ATOM      7  C   UNL     1      48.516   6.694  14.800  0.00  0.00    +0.000 A 
ATOM      8  N   UNL     1      48.792   7.867  14.097  0.00  0.00    +0.000 N 
ATOM      9  N   UNL     1      49.270   6.500  15.905  0.00  0.00    +0.000 NA
ATOM     10  C   UNL     1      48.998   5.424  16.687  0.00  0.00    +0.000 A 
ATOM     11  H   UNL     1      49.629   8.266  14.517  0.00  0.00    +0.000 HD
BRANCH   4  13
ATOM     12  N   UNL     1      48.864   2.938  18.057  0.00  0.00    +0.000 N 
ATOM     13  C   UNL     1      47.781   3.380  17.346  0.00  0.00    +0.000 C 
ATOM     14  O   UNL     1      46.676   2.884  17.504  0.00  0.00    +0.000 OA
ATOM     15  H   UNL     1      48.679   2.235  18.763  0.00  0.00    +0.000 HD
ATOM     16  H   UNL     1      49.720   3.465  18.137  0.00  0.00    +0.000 HD
ENDBRANCH   4  13
ENDBRANCH   1   8
BRANCH   1  17
ATOM     17  C   UNL     1      47.174   7.774  12.177  0.00  0.00    +0.000 A 
ATOM     18  C   UNL     1      46.153   8.726  12.238  0.00  0.00    +0.000 A 
ATOM     19  C   UNL     1      44.912   8.422  11.704  0.00  0.00    +0.000 A 
ATOM     20  N   UNL     1      44.611   7.243  11.123  0.00  0.00    +0.000 NA
ATOM     21  C   UNL     1      45.576   6.293  11.093  0.00  0.00    +0.000 A 
ATOM     22  C   UNL     1      46.847   6.530  11.614  0.00  0.00    +0.000 A 
BRANCH  21  23
ATOM     23  C   UNL     1      45.205   5.012  10.456  0.00  0.00    +0.000 A 
ATOM     24  C   UNL     1      44.506   4.025  11.178  0.00  0.00    +0.000 A 
ATOM     25  C   UNL     1      44.151   2.807  10.589  0.00  0.00    +0.000 A 
ATOM     26  C   UNL     1      44.498   2.560   9.269  0.00  0.00    +0.000 A 
ATOM     27  F   UNL     1      44.167   1.391   8.705  0.00  0.00    +0.000 F 
ATOM     28  C   UNL     1      45.186   3.508   8.526  0.00  0.00    +0.000 A 
ATOM     29  C   UNL     1      45.536   4.726   9.116  0.00  0.00    +0.000 A 
ENDBRANCH  21  23
ENDBRANCH   1  17
TORSDOF 4
ENDMDL
