MODEL 1
REMARK VINA RESULT:    -7.744      0.000      0.000
REMARK INTER + INTRA:         -13.033
REMARK INTER:                 -11.819
REMARK INTRA:                  -1.214
REMARK UNBOUND:                -1.214
REMARK  Name = 
REMARK  11 active torsions:
REMARK  status: ('A' for Active; 'I' for Inactive)
REMARK    1  A    between atoms: C_1  and  O_2
REMARK    2  A    between atoms: O_2  and  C_3
REMARK    3  A    between atoms: C_5  and  C_6
REMARK    4  A    between atoms: C_6  and  O_7
REMARK    5  A    between atoms: O_7  and  C_8
REMARK    6  A    between atoms: C_8  and  C_9
REMARK    7  A    between atoms: C_12  and  C_13
REMARK    8  A    between atoms: C_13  and  N_14
REMARK    9  A    between atoms: C_15  and  C_17
REMARK   10  A    between atoms: C_27  and  O_28
REMARK   11  A    between atoms: O_28  and  C_29
REMARK                            x       y       z     vdW  Elec       q    Type
REMARK                         _______ _______ _______ _____ _____    ______ ____
ROOT
ATOM      1  C   UNL     1      44.591   5.160  12.782  0.00  0.00    +0.000 A 
ATOM      2  C   UNL     1      45.633   4.357  13.243  0.00  0.00    +0.000 A 
ATOM      3  C   UNL     1      46.858   4.929  13.589  0.00  0.00    +0.000 A 
ATOM      4  C   UNL     1      47.075   6.323  13.513  0.00  0.00    +0.000 A 
ATOM      5  C   UNL     1      46.038   7.130  13.017  0.00  0.00    +0.000 A 
ATOM      6  C   UNL     1      44.810   6.541  12.674  0.00  0.00    +0.000 A 
ENDROOT
BRANCH   5   7
ATOM      7  O   UNL     1      46.018   8.495  12.921  0.00  0.00    +0.000 OA
ATOM      8  C   UNL     1      45.110   9.079  11.997  0.00  0.00    +0.000 C 
ENDBRANCH   5   7
BRANCH   1   9
ATOM      9  C   UNL     1      43.265   4.564  12.399  0.00  0.00    +0.000 C 
BRANCH   9  10
ATOM     10  O   UNL     1      43.478   3.785  11.230  0.00  0.00    +0.000 OA
BRANCH  10  11
ATOM     11  C   UNL     1      43.713   4.587  10.077  0.00  0.00    +0.000 C 
BRANCH  11  14
ATOM     12  C   UNL     1      45.866   2.049   8.357  0.00  0.00    +0.000 A 
ATOM     13  C   UNL     1      44.897   2.552   9.194  0.00  0.00    +0.000 A 
ATOM     14  C   UNL     1      44.739   3.923   9.192  0.00  0.00    +0.000 A 
ATOM     15  N   UNL     1      45.519   4.731   8.436  0.00  0.00    +0.000 NA
ATOM     16  C   UNL     1      46.428   4.126   7.657  0.00  0.00    +0.000 A 
ATOM     17  N   UNL     1      46.647   2.811   7.573  0.00  0.00    +0.000 NA
BRANCH  12  19
ATOM     18  C   UNL     1      47.011   0.223   7.431  0.00  0.00    +0.000 C 
ATOM     19  O   UNL     1      46.018   0.674   8.349  0.00  0.00    +0.000 OA
ENDBRANCH  12  19
ENDBRANCH  11  14
ENDBRANCH  10  11
ENDBRANCH   9  10
ENDBRANCH   1   9
BRANCH   4  20
ATOM     20  C   UNL     1      48.383   6.825  14.064  0.00  0.00    +0.000 C 
BRANCH  20  21
ATOM     21  N   UNL     1      48.378   6.996  15.498  0.00  0.00    +0.000 N 
ATOM     22  C   UNL     1      49.549   6.859  16.204  0.00  0.00    +0.000 C 
ATOM     23  O   UNL     1      50.604   6.585  15.639  0.00  0.00    +0.000 OA
ATOM     24  H   UNL     1      47.581   7.465  15.922  0.00  0.00    +0.000 HD
BRANCH  22  25
ATOM     25  C   UNL     1      49.486   6.976  17.666  0.00  0.00    +0.000 A 
ATOM     26  C   UNL     1      49.945   8.132  18.287  0.00  0.00    +0.000 A 
ATOM     27  S   UNL     1      50.048   7.998  19.985  0.00  0.00    +0.000 S 
ATOM     28  C   UNL     1      49.442   6.410  19.945  0.00  0.00    +0.000 A 
ATOM     29  N   UNL     1      49.370   5.652  21.072  0.00  0.00    +0.000 NA
ATOM     30  C   UNL     1      48.863   4.478  20.892  0.00  0.00    +0.000 A 
ATOM     31  N   UNL     1      48.377   4.011  19.697  0.00  0.00    +0.000 N 
ATOM     32  C   UNL     1      48.378   4.764  18.549  0.00  0.00    +0.000 A 
ATOM     33  O   UNL     1      47.816   4.386  17.526  0.00  0.00    +0.000 OA
ATOM     34  C   UNL     1      49.058   6.036  18.670  0.00  0.00    +0.000 A 
ATOM     35  H   UNL     1      47.918   3.114  19.642  0.00  0.00    +0.000 HD
ENDBRANCH  22  25
ENDBRANCH  20  21
ENDBRANCH   4  20
TORSDOF 9
ENDMDL
MODEL 2
REMARK VINA RESULT:    -7.511      2.691      3.036
REMARK INTER + INTRA:         -12.677
REMARK INTER:                 -11.596
REMARK INTRA:                  -1.081
REMARK UNBOUND:                -1.214
REMARK  Name = 
REMARK  11 active torsions:
REMARK  status: ('A' for Active; 'I' for Inactive)
REMARK    1  A    between atoms: C_1  and  O_2
REMARK    2  A    between atoms: O_2  and  C_3
REMARK    3  A    between atoms: C_5  and  C_6
REMARK    4  A    between atoms: C_6  and  O_7
REMARK    5  A    between atoms: O_7  and  C_8
REMARK    6  A    between atoms: C_8  and  C_9
REMARK    7  A    between atoms: C_12  and  C_13
REMARK    8  A    between atoms: C_13  and  N_14
REMARK    9  A    between atoms: C_15  and  C_17
REMARK   10  A    between atoms: C_27  and  O_28
REMARK   11  A    between atoms: O_28  and  C_29
REMARK                            x       y       z     vdW  Elec       q    Type
REMARK                         _______ _______ _______ _____ _____    ______ ____
ROOT
ATOM      1  C   UNL     1      46.442   4.753  13.350  0.00  0.00    +0.000 A 
ATOM      2  C   UNL     1      46.669   4.224  14.619  0.00  0.00    +0.000 A 
ATOM      3  C   UNL     1      47.558   4.854  15.491  0.00  0.00    +0.000 A 
ATOM      4  C   UNL     1      48.227   6.047  15.138  0.00  0.00    +0.000 A 
ATOM      5  C   UNL     1      48.025   6.564  13.847  0.00  0.00    +0.000 A 
ATOM      6  C   UNL     1      47.127   5.920  12.980  0.00  0.00    +0.000 A 
ENDROOT
BRANCH   5   7
ATOM      7  O   UNL     1      48.522   7.729  13.329  0.00  0.00    +0.000 OA
ATOM      8  C   UNL     1      49.748   7.664  12.615  0.00  0.00    +0.000 C 
ENDBRANCH   5   7
BRANCH   1   9
ATOM      9  C   UNL     1      45.493   4.088  12.392  0.00  0.00    +0.000 C 
BRANCH   9  10
ATOM     10  O   UNL     1      44.827   5.120  11.678  0.00  0.00    +0.000 OA
BRANCH  10  11
ATOM     11  C   UNL     1      43.995   4.615  10.638  0.00  0.00    +0.000 C 
BRANCH  11  14
ATOM     12  C   UNL     1      45.755   2.101   8.490  0.00  0.00    +0.000 A 
ATOM     13  C   UNL     1      44.949   2.591   9.491  0.00  0.00    +0.000 A 
ATOM     14  C   UNL     1      44.843   3.965   9.574  0.00  0.00    +0.000 A 
ATOM     15  N   UNL     1      45.524   4.785   8.738  0.00  0.00    +0.000 NA
ATOM     16  C   UNL     1      46.276   4.191   7.800  0.00  0.00    +0.000 A 
ATOM     17  N   UNL     1      46.430   2.875   7.625  0.00  0.00    +0.000 NA
BRANCH  12  19
ATOM     18  C   UNL     1      46.892   0.290   7.526  0.00  0.00    +0.000 C 
ATOM     19  O   UNL     1      45.852   0.723   8.399  0.00  0.00    +0.000 OA
ENDBRANCH  12  19
ENDBRANCH  11  14
ENDBRANCH  10  11
ENDBRANCH   9  10
ENDBRANCH   1   9
BRANCH   4  20
ATOM     20  C   UNL     1      49.032   6.708  16.225  0.00  0.00    +0.000 C 
BRANCH  20  21
ATOM     21  N   UNL     1      49.767   5.776  17.046  0.00  0.00    +0.000 N 
ATOM     22  C   UNL     1      51.140   5.743  16.975  0.00  0.00    +0.000 C 
ATOM     23  O   UNL     1      51.755   6.487  16.218  0.00  0.00    +0.000 OA
ATOM     24  H   UNL     1      49.290   5.353  17.839  0.00  0.00    +0.000 HD
BRANCH  22  25
ATOM     25  C   UNL     1      51.844   4.735  17.778  0.00  0.00    +0.000 A 
ATOM     26  C   UNL     1      52.828   5.132  18.676  0.00  0.00    +0.000 A 
ATOM     27  S   UNL     1      53.723   3.832  19.324  0.00  0.00    +0.000 S 
ATOM     28  C   UNL     1      52.796   2.699  18.458  0.00  0.00    +0.000 A 
ATOM     29  N   UNL     1      53.104   1.374  18.474  0.00  0.00    +0.000 NA
ATOM     30  C   UNL     1      52.294   0.633  17.793  0.00  0.00    +0.000 A 
ATOM     31  N   UNL     1      51.179   1.089  17.139  0.00  0.00    +0.000 N 
ATOM     32  C   UNL     1      50.800   2.409  17.146  0.00  0.00    +0.000 A 
ATOM     33  O   UNL     1      49.730   2.778  16.675  0.00  0.00    +0.000 OA
ATOM     34  C   UNL     1      51.749   3.298  17.782  0.00  0.00    +0.000 A 
ATOM     35  H   UNL     1      50.542   0.444  16.694  0.00  0.00    +0.000 HD
ENDBRANCH  22  25
ENDBRANCH  20  21
ENDBRANCH   4  20
TORSDOF 9
ENDMDL
MODEL 3
REMARK VINA RESULT:    -7.487      2.002      2.662
REMARK INTER + INTRA:         -12.641
REMARK INTER:                 -10.982
REMARK INTRA:                  -1.659
REMARK UNBOUND:                -1.214
REMARK  Name = 
REMARK  11 active torsions:
REMARK  status: ('A' for Active; 'I' for Inactive)
REMARK    1  A    between atoms: C_1  and  O_2
REMARK    2  A    between atoms: O_2  and  C_3
REMARK    3  A    between atoms: C_5  and  C_6
REMARK    4  A    between atoms: C_6  and  O_7
REMARK    5  A    between atoms: O_7  and  C_8
REMARK    6  A    between atoms: C_8  and  C_9
REMARK    7  A    between atoms: C_12  and  C_13
REMARK    8  A    between atoms: C_13  and  N_14
REMARK    9  A    between atoms: C_15  and  C_17
REMARK   10  A    between atoms: C_27  and  O_28
REMARK   11  A    between atoms: O_28  and  C_29
REMARK                            x       y       z     vdW  Elec       q    Type
REMARK                         _______ _______ _______ _____ _____    ______ ____
ROOT
ATOM      1  C   UNL     1      44.411   5.283  12.850  0.00  0.00    +0.000 A 
ATOM      2  C   UNL     1      44.575   6.581  12.371  0.00  0.00    +0.000 A 
ATOM      3  C   UNL     1      45.794   7.240  12.539  0.00  0.00    +0.000 A 
ATOM      4  C   UNL     1      46.896   6.617  13.166  0.00  0.00    +0.000 A 
ATOM      5  C   UNL     1      46.722   5.321  13.679  0.00  0.00    +0.000 A 
ATOM      6  C   UNL     1      45.491   4.669  13.501  0.00  0.00    +0.000 A 
ENDROOT
BRANCH   5   7
ATOM      7  O   UNL     1      47.668   4.521  14.261  0.00  0.00    +0.000 OA
ATOM      8  C   UNL     1      47.392   4.005  15.555  0.00  0.00    +0.000 C 
ENDBRANCH   5   7
BRANCH   1   9
ATOM      9  C   UNL     1      43.104   4.556  12.684  0.00  0.00    +0.000 C 
BRANCH   9  10
ATOM     10  O   UNL     1      42.991   4.207  11.311  0.00  0.00    +0.000 OA
BRANCH  10  11
ATOM     11  C   UNL     1      43.614   2.961  11.012  0.00  0.00    +0.000 C 
BRANCH  11  14
ATOM     12  C   UNL     1      45.971   2.276   8.183  0.00  0.00    +0.000 A 
ATOM     13  C   UNL     1      45.148   2.023   9.256  0.00  0.00    +0.000 A 
ATOM     14  C   UNL     1      44.529   3.118   9.825  0.00  0.00    +0.000 A 
ATOM     15  N   UNL     1      44.748   4.376   9.373  0.00  0.00    +0.000 NA
ATOM     16  C   UNL     1      45.567   4.498   8.319  0.00  0.00    +0.000 A 
ATOM     17  N   UNL     1      46.199   3.504   7.687  0.00  0.00    +0.000 NA
BRANCH  12  19
ATOM     18  C   UNL     1      47.784   1.504   6.912  0.00  0.00    +0.000 C 
ATOM     19  O   UNL     1      46.582   1.178   7.604  0.00  0.00    +0.000 OA
ENDBRANCH  12  19
ENDBRANCH  11  14
ENDBRANCH  10  11
ENDBRANCH   9  10
ENDBRANCH   1   9
BRANCH   4  20
ATOM     20  C   UNL     1      48.195   7.377  13.140  0.00  0.00    +0.000 C 
BRANCH  20  21
ATOM     21  N   UNL     1      49.141   6.937  14.138  0.00  0.00    +0.000 N 
ATOM     22  C   UNL     1      50.158   7.775  14.529  0.00  0.00    +0.000 C 
ATOM     23  O   UNL     1      50.283   8.894  14.039  0.00  0.00    +0.000 OA
ATOM     24  H   UNL     1      48.893   6.137  14.715  0.00  0.00    +0.000 HD
BRANCH  22  25
ATOM     25  C   UNL     1      51.135   7.263  15.497  0.00  0.00    +0.000 A 
ATOM     26  C   UNL     1      52.494   7.448  15.270  0.00  0.00    +0.000 A 
ATOM     27  S   UNL     1      53.490   6.568  16.340  0.00  0.00    +0.000 S 
ATOM     28  C   UNL     1      52.138   5.948  17.164  0.00  0.00    +0.000 A 
ATOM     29  N   UNL     1      52.276   5.022  18.151  0.00  0.00    +0.000 NA
ATOM     30  C   UNL     1      51.164   4.666  18.704  0.00  0.00    +0.000 A 
ATOM     31  N   UNL     1      49.934   5.187  18.394  0.00  0.00    +0.000 N 
ATOM     32  C   UNL     1      49.758   6.164  17.445  0.00  0.00    +0.000 A 
ATOM     33  O   UNL     1      48.676   6.716  17.277  0.00  0.00    +0.000 OA
ATOM     34  C   UNL     1      50.956   6.499  16.704  0.00  0.00    +0.000 A 
ATOM     35  H   UNL     1      49.114   4.924  18.922  0.00  0.00    +0.000 HD
ENDBRANCH  22  25
ENDBRANCH  20  21
ENDBRANCH   4  20
TORSDOF 9
ENDMDL
MODEL 4
REMARK VINA RESULT:    -7.428      1.495      2.049
REMARK INTER + INTRA:         -12.551
REMARK INTER:                 -11.279
REMARK INTRA:                  -1.272
REMARK UNBOUND:                -1.214
REMARK  Name = 
REMARK  11 active torsions:
REMARK  status: ('A' for Active; 'I' for Inactive)
REMARK    1  A    between atoms: C_1  and  O_2
REMARK    2  A    between atoms: O_2  and  C_3
REMARK    3  A    between atoms: C_5  and  C_6
REMARK    4  A    between atoms: C_6  and  O_7
REMARK    5  A    between atoms: O_7  and  C_8
REMARK    6  A    between atoms: C_8  and  C_9
REMARK    7  A    between atoms: C_12  and  C_13
REMARK    8  A    between atoms: C_13  and  N_14
REMARK    9  A    between atoms: C_15  and  C_17
REMARK   10  A    between atoms: C_27  and  O_28
REMARK   11  A    between atoms: O_28  and  C_29
REMARK                            x       y       z     vdW  Elec       q    Type
REMARK                         _______ _______ _______ _____ _____    ______ ____
ROOT
ATOM      1  C   UNL     1      44.673   5.086  11.542  0.00  0.00    +0.000 A 
ATOM      2  C   UNL     1      45.317   6.220  11.050  0.00  0.00    +0.000 A 
ATOM      3  C   UNL     1      46.353   6.808  11.777  0.00  0.00    +0.000 A 
ATOM      4  C   UNL     1      46.799   6.269  13.004  0.00  0.00    +0.000 A 
ATOM      5  C   UNL     1      46.130   5.146  13.518  0.00  0.00    +0.000 A 
ATOM      6  C   UNL     1      45.090   4.564  12.775  0.00  0.00    +0.000 A 
ENDROOT
BRANCH   5   7
ATOM      7  O   UNL     1      46.438   4.437  14.647  0.00  0.00    +0.000 OA
ATOM      8  C   UNL     1      47.392   3.391  14.530  0.00  0.00    +0.000 C 
ENDBRANCH   5   7
BRANCH   1   9
ATOM      9  C   UNL     1      43.551   4.440  10.777  0.00  0.00    +0.000 C 
BRANCH   9  10
ATOM     10  O   UNL     1      44.138   3.494   9.893  0.00  0.00    +0.000 OA
BRANCH  10  11
ATOM     11  C   UNL     1      44.398   4.042   8.605  0.00  0.00    +0.000 C 
BRANCH  11  14
ATOM     12  C   UNL     1      46.859   1.386   7.644  0.00  0.00    +0.000 A 
ATOM     13  C   UNL     1      45.808   1.982   8.301  0.00  0.00    +0.000 A 
ATOM     14  C   UNL     1      45.523   3.285   7.944  0.00  0.00    +0.000 A 
ATOM     15  N   UNL     1      46.260   3.951   7.024  0.00  0.00    +0.000 NA
ATOM     16  C   UNL     1      47.258   3.265   6.448  0.00  0.00    +0.000 A 
ATOM     17  N   UNL     1      47.603   2.000   6.709  0.00  0.00    +0.000 NA
BRANCH  12  19
ATOM     18  C   UNL     1      46.409  -0.877   7.224  0.00  0.00    +0.000 C 
ATOM     19  O   UNL     1      47.138   0.076   7.992  0.00  0.00    +0.000 OA
ENDBRANCH  12  19
ENDBRANCH  11  14
ENDBRANCH  10  11
ENDBRANCH   9  10
ENDBRANCH   1   9
BRANCH   4  20
ATOM     20  C   UNL     1      48.025   6.904  13.605  0.00  0.00    +0.000 C 
BRANCH  20  21
ATOM     21  N   UNL     1      47.975   7.007  15.043  0.00  0.00    +0.000 N 
ATOM     22  C   UNL     1      49.138   6.926  15.773  0.00  0.00    +0.000 C 
ATOM     23  O   UNL     1      50.222   6.758  15.223  0.00  0.00    +0.000 OA
ATOM     24  H   UNL     1      47.136   7.396  15.468  0.00  0.00    +0.000 HD
BRANCH  22  25
ATOM     25  C   UNL     1      49.034   6.970  17.236  0.00  0.00    +0.000 A 
ATOM     26  C   UNL     1      48.476   8.081  17.856  0.00  0.00    +0.000 A 
ATOM     27  S   UNL     1      48.674   8.088  19.551  0.00  0.00    +0.000 S 
ATOM     28  C   UNL     1      49.472   6.587  19.511  0.00  0.00    +0.000 A 
ATOM     29  N   UNL     1      50.016   6.046  20.635  0.00  0.00    +0.000 NA
ATOM     30  C   UNL     1      50.564   4.891  20.456  0.00  0.00    +0.000 A 
ATOM     31  N   UNL     1      50.576   4.206  19.268  0.00  0.00    +0.000 N 
ATOM     32  C   UNL     1      49.989   4.690  18.125  0.00  0.00    +0.000 A 
ATOM     33  O   UNL     1      49.887   4.008  17.111  0.00  0.00    +0.000 OA
ATOM     34  C   UNL     1      49.479   6.040  18.242  0.00  0.00    +0.000 A 
ATOM     35  H   UNL     1      50.950   3.269  19.216  0.00  0.00    +0.000 HD
ENDBRANCH  22  25
ENDBRANCH  20  21
ENDBRANCH   4  20
TORSDOF 9
ENDMDL
MODEL 5
REMARK VINA RESULT:    -7.145      3.035      3.904
REMARK INTER + INTRA:         -12.119
REMARK INTER:                 -10.773
REMARK INTRA:                  -1.346
REMARK UNBOUND:                -1.214
REMARK  Name = 
REMARK  11 active torsions:
REMARK  status: ('A' for Active; 'I' for Inactive)
REMARK    1  A    between atoms: C_1  and  O_2
REMARK    2  A    between atoms: O_2  and  C_3
REMARK    3  A    between atoms: C_5  and  C_6
REMARK    4  A    between atoms: C_6  and  O_7
REMARK    5  A    between atoms: O_7  and  C_8
REMARK    6  A    between atoms: C_8  and  C_9
REMARK    7  A    between atoms: C_12  and  C_13
REMARK    8  A    between atoms: C_13  and  N_14
REMARK    9  A    between atoms: C_15  and  C_17
REMARK   10  A    between atoms: C_27  and  O_28
REMARK   11  A    between atoms: O_28  and  C_29
REMARK                            x       y       z     vdW  Elec       q    Type
REMARK                         _______ _______ _______ _____ _____    ______ ____
ROOT
ATOM      1  C   UNL     1      46.747   5.076  13.655  0.00  0.00    +0.000 A 
ATOM      2  C   UNL     1      47.635   6.075  13.259  0.00  0.00    +0.000 A 
ATOM      3  C   UNL     1      48.569   6.581  14.165  0.00  0.00    +0.000 A 
ATOM      4  C   UNL     1      48.666   6.088  15.486  0.00  0.00    +0.000 A 
ATOM      5  C   UNL     1      47.750   5.106  15.897  0.00  0.00    +0.000 A 
ATOM      6  C   UNL     1      46.817   4.605  14.975  0.00  0.00    +0.000 A 
ENDROOT
BRANCH   5   7
ATOM      7  O   UNL     1      47.709   4.456  17.100  0.00  0.00    +0.000 OA
ATOM      8  C   UNL     1      47.116   5.134  18.198  0.00  0.00    +0.000 C 
ENDBRANCH   5   7
BRANCH   1   9
ATOM      9  C   UNL     1      45.730   4.521  12.697  0.00  0.00    +0.000 C 
BRANCH   9  10
ATOM     10  O   UNL     1      45.360   5.577  11.821  0.00  0.00    +0.000 OA
BRANCH  10  11
ATOM     11  C   UNL     1      44.251   5.236  10.995  0.00  0.00    +0.000 C 
BRANCH  11  14
ATOM     12  C   UNL     1      45.738   3.666   7.937  0.00  0.00    +0.000 A 
ATOM     13  C   UNL     1      45.405   4.648   8.840  0.00  0.00    +0.000 A 
ATOM     14  C   UNL     1      44.680   4.244   9.944  0.00  0.00    +0.000 A 
ATOM     15  N   UNL     1      44.289   2.958  10.110  0.00  0.00    +0.000 NA
ATOM     16  C   UNL     1      44.676   2.089   9.165  0.00  0.00    +0.000 A 
ATOM     17  N   UNL     1      45.392   2.374   8.072  0.00  0.00    +0.000 NA
BRANCH  12  19
ATOM     18  C   UNL     1      46.899   2.981   6.018  0.00  0.00    +0.000 C 
ATOM     19  O   UNL     1      46.475   4.067   6.837  0.00  0.00    +0.000 OA
ENDBRANCH  12  19
ENDBRANCH  11  14
ENDBRANCH  10  11
ENDBRANCH   9  10
ENDBRANCH   1   9
BRANCH   4  20
ATOM     20  C   UNL     1      49.817   6.606  16.308  0.00  0.00    +0.000 C 
BRANCH  20  21
ATOM     21  N   UNL     1      50.662   5.564  16.838  0.00  0.00    +0.000 N 
ATOM     22  C   UNL     1      50.843   5.459  18.197  0.00  0.00    +0.000 C 
ATOM     23  O   UNL     1      50.305   6.244  18.972  0.00  0.00    +0.000 OA
ATOM     24  H   UNL     1      50.893   4.778  16.234  0.00  0.00    +0.000 HD
BRANCH  22  25
ATOM     25  C   UNL     1      51.763   4.427  18.689  0.00  0.00    +0.000 A 
ATOM     26  C   UNL     1      52.697   4.744  19.668  0.00  0.00    +0.000 A 
ATOM     27  S   UNL     1      53.852   3.516  19.931  0.00  0.00    +0.000 S 
ATOM     28  C   UNL     1      53.115   2.508  18.776  0.00  0.00    +0.000 A 
ATOM     29  N   UNL     1      53.668   1.317  18.421  0.00  0.00    +0.000 NA
ATOM     30  C   UNL     1      52.981   0.650  17.555  0.00  0.00    +0.000 A 
ATOM     31  N   UNL     1      51.769   1.043  17.047  0.00  0.00    +0.000 N 
ATOM     32  C   UNL     1      51.149   2.209  17.423  0.00  0.00    +0.000 A 
ATOM     33  O   UNL     1      50.006   2.478  17.067  0.00  0.00    +0.000 OA
ATOM     34  C   UNL     1      51.942   3.055  18.289  0.00  0.00    +0.000 A 
ATOM     35  H   UNL     1      51.244   0.435  16.435  0.00  0.00    +0.000 HD
ENDBRANCH  22  25
ENDBRANCH  20  21
ENDBRANCH   4  20
TORSDOF 9
ENDMDL
MODEL 6
REMARK VINA RESULT:    -6.935      3.331      4.542
REMARK INTER + INTRA:         -11.799
REMARK INTER:                 -10.503
REMARK INTRA:                  -1.295
REMARK UNBOUND:                -1.214
REMARK  Name = 
REMARK  11 active torsions:
REMARK  status: ('A' for Active; 'I' for Inactive)
REMARK    1  A    between atoms: C_1  and  O_2
REMARK    2  A    between atoms: O_2  and  C_3
REMARK    3  A    between atoms: C_5  and  C_6
REMARK    4  A    between atoms: C_6  and  O_7
REMARK    5  A    between atoms: O_7  and  C_8
REMARK    6  A    between atoms: C_8  and  C_9
REMARK    7  A    between atoms: C_12  and  C_13
REMARK    8  A    between atoms: C_13  and  N_14
REMARK    9  A    between atoms: C_15  and  C_17
REMARK   10  A    between atoms: C_27  and  O_28
REMARK   11  A    between atoms: O_28  and  C_29
REMARK                            x       y       z     vdW  Elec       q    Type
REMARK                         _______ _______ _______ _____ _____    ______ ____
ROOT
ATOM      1  C   UNL     1      47.362   6.145  13.726  0.00  0.00    +0.000 A 
ATOM      2  C   UNL     1      46.830   4.865  13.870  0.00  0.00    +0.000 A 
ATOM      3  C   UNL     1      47.132   4.105  15.001  0.00  0.00    +0.000 A 
ATOM      4  C   UNL     1      47.950   4.606  16.037  0.00  0.00    +0.000 A 
ATOM      5  C   UNL     1      48.515   5.883  15.879  0.00  0.00    +0.000 A 
ATOM      6  C   UNL     1      48.202   6.637  14.736  0.00  0.00    +0.000 A 
ENDROOT
BRANCH   5   7
ATOM      7  O   UNL     1      49.278   6.574  16.780  0.00  0.00    +0.000 OA
ATOM      8  C   UNL     1      48.611   7.203  17.865  0.00  0.00    +0.000 C 
ENDBRANCH   5   7
BRANCH   1   9
ATOM      9  C   UNL     1      47.055   6.979  12.513  0.00  0.00    +0.000 C 
BRANCH   9  10
ATOM     10  O   UNL     1      45.657   6.875  12.277  0.00  0.00    +0.000 OA
BRANCH  10  11
ATOM     11  C   UNL     1      45.358   6.484  10.940  0.00  0.00    +0.000 C 
BRANCH  11  14
ATOM     12  C   UNL     1      44.392   2.958  10.124  0.00  0.00    +0.000 A 
ATOM     13  C   UNL     1      45.073   4.151  10.048  0.00  0.00    +0.000 A 
ATOM     14  C   UNL     1      44.689   5.133  10.939  0.00  0.00    +0.000 A 
ATOM     15  N   UNL     1      43.675   4.944  11.816  0.00  0.00    +0.000 NA
ATOM     16  C   UNL     1      43.088   3.738  11.800  0.00  0.00    +0.000 A 
ATOM     17  N   UNL     1      43.396   2.718  10.992  0.00  0.00    +0.000 NA
BRANCH  12  19
ATOM     18  C   UNL     1      45.722   2.425   8.267  0.00  0.00    +0.000 C 
ATOM     19  O   UNL     1      44.784   1.970   9.239  0.00  0.00    +0.000 OA
ENDBRANCH  12  19
ENDBRANCH  11  14
ENDBRANCH  10  11
ENDBRANCH   9  10
ENDBRANCH   1   9
BRANCH   4  20
ATOM     20  C   UNL     1      48.066   3.749  17.270  0.00  0.00    +0.000 C 
BRANCH  20  21
ATOM     21  N   UNL     1      49.429   3.480  17.660  0.00  0.00    +0.000 N 
ATOM     22  C   UNL     1      50.131   2.476  17.034  0.00  0.00    +0.000 C 
ATOM     23  O   UNL     1      49.615   1.795  16.153  0.00  0.00    +0.000 OA
ATOM     24  H   UNL     1      49.926   4.191  18.191  0.00  0.00    +0.000 HD
BRANCH  22  25
ATOM     25  C   UNL     1      51.491   2.193  17.507  0.00  0.00    +0.000 A 
ATOM     26  C   UNL     1      52.065   0.953  17.255  0.00  0.00    +0.000 A 
ATOM     27  S   UNL     1      53.529   0.696  18.095  0.00  0.00    +0.000 S 
ATOM     28  C   UNL     1      53.460   2.249  18.786  0.00  0.00    +0.000 A 
ATOM     29  N   UNL     1      54.372   2.651  19.712  0.00  0.00    +0.000 NA
ATOM     30  C   UNL     1      54.209   3.863  20.125  0.00  0.00    +0.000 A 
ATOM     31  N   UNL     1      53.249   4.726  19.662  0.00  0.00    +0.000 N 
ATOM     32  C   UNL     1      52.346   4.378  18.687  0.00  0.00    +0.000 A 
ATOM     33  O   UNL     1      51.586   5.201  18.186  0.00  0.00    +0.000 OA
ATOM     34  C   UNL     1      52.403   2.988  18.289  0.00  0.00    +0.000 A 
ATOM     35  H   UNL     1      53.228   5.688  19.967  0.00  0.00    +0.000 HD
ENDBRANCH  22  25
ENDBRANCH  20  21
ENDBRANCH   4  20
TORSDOF 9
ENDMDL
MODEL 7
REMARK VINA RESULT:    -6.826      4.058      5.806
REMARK INTER + INTRA:         -11.631
REMARK INTER:                 -10.290
REMARK INTRA:                  -1.341
REMARK UNBOUND:                -1.214
REMARK  Name = 
REMARK  11 active torsions:
REMARK  status: ('A' for Active; 'I' for Inactive)
REMARK    1  A    between atoms: C_1  and  O_2
REMARK    2  A    between atoms: O_2  and  C_3
REMARK    3  A    between atoms: C_5  and  C_6
REMARK    4  A    between atoms: C_6  and  O_7
REMARK    5  A    between atoms: O_7  and  C_8
REMARK    6  A    between atoms: C_8  and  C_9
REMARK    7  A    between atoms: C_12  and  C_13
REMARK    8  A    between atoms: C_13  and  N_14
REMARK    9  A    between atoms: C_15  and  C_17
REMARK   10  A    between atoms: C_27  and  O_28
REMARK   11  A    between atoms: O_28  and  C_29
REMARK                            x       y       z     vdW  Elec       q    Type
REMARK                         _______ _______ _______ _____ _____    ______ ____
ROOT
ATOM      1  C   UNL     1      45.910   4.801  12.569  0.00  0.00    +0.000 A 
ATOM      2  C   UNL     1      46.153   5.913  11.767  0.00  0.00    +0.000 A 
ATOM      3  C   UNL     1      47.083   6.875  12.167  0.00  0.00    +0.000 A 
ATOM      4  C   UNL     1      47.819   6.744  13.365  0.00  0.00    +0.000 A 
ATOM      5  C   UNL     1      47.550   5.640  14.192  0.00  0.00    +0.000 A 
ATOM      6  C   UNL     1      46.614   4.680  13.776  0.00  0.00    +0.000 A 
ENDROOT
BRANCH   5   7
ATOM      7  O   UNL     1      48.187   5.294  15.353  0.00  0.00    +0.000 OA
ATOM      8  C   UNL     1      47.626   4.242  16.125  0.00  0.00    +0.000 C 
ENDBRANCH   5   7
BRANCH   1   9
ATOM      9  C   UNL     1      44.909   3.755  12.160  0.00  0.00    +0.000 C 
BRANCH   9  10
ATOM     10  O   UNL     1      44.334   4.184  10.933  0.00  0.00    +0.000 OA
BRANCH  10  11
ATOM     11  C   UNL     1      44.117   3.107  10.027  0.00  0.00    +0.000 C 
BRANCH  11  14
ATOM     12  C   UNL     1      46.798   2.091   7.617  0.00  0.00    +0.000 A 
ATOM     13  C   UNL     1      45.847   1.967   8.603  0.00  0.00    +0.000 A 
ATOM     14  C   UNL     1      45.174   3.121   8.951  0.00  0.00    +0.000 A 
ATOM     15  N   UNL     1      45.458   4.314   8.379  0.00  0.00    +0.000 NA
ATOM     16  C   UNL     1      46.402   4.310   7.426  0.00  0.00    +0.000 A 
ATOM     17  N   UNL     1      47.097   3.249   7.005  0.00  0.00    +0.000 NA
BRANCH  12  19
ATOM     18  C   UNL     1      46.775  -0.254   7.639  0.00  0.00    +0.000 C 
ATOM     19  O   UNL     1      47.466   0.933   7.258  0.00  0.00    +0.000 OA
ENDBRANCH  12  19
ENDBRANCH  11  14
ENDBRANCH  10  11
ENDBRANCH   9  10
ENDBRANCH   1   9
BRANCH   4  20
ATOM     20  C   UNL     1      48.900   7.766  13.599  0.00  0.00    +0.000 C 
BRANCH  20  21
ATOM     21  N   UNL     1      50.133   7.470  12.910  0.00  0.00    +0.000 N 
ATOM     22  C   UNL     1      50.517   8.242  11.840  0.00  0.00    +0.000 C 
ATOM     23  O   UNL     1      49.825   9.178  11.451  0.00  0.00    +0.000 OA
ATOM     24  H   UNL     1      50.815   6.877  13.379  0.00  0.00    +0.000 HD
BRANCH  22  25
ATOM     25  C   UNL     1      51.744   7.866  11.128  0.00  0.00    +0.000 A 
ATOM     26  C   UNL     1      51.667   7.390   9.824  0.00  0.00    +0.000 A 
ATOM     27  S   UNL     1      53.140   6.751   9.244  0.00  0.00    +0.000 S 
ATOM     28  C   UNL     1      53.933   7.131  10.700  0.00  0.00    +0.000 A 
ATOM     29  N   UNL     1      55.221   6.753  10.921  0.00  0.00    +0.000 NA
ATOM     30  C   UNL     1      55.698   7.135  12.059  0.00  0.00    +0.000 A 
ATOM     31  N   UNL     1      55.021   7.902  12.973  0.00  0.00    +0.000 N 
ATOM     32  C   UNL     1      53.741   8.353  12.763  0.00  0.00    +0.000 A 
ATOM     33  O   UNL     1      53.202   9.150  13.524  0.00  0.00    +0.000 OA
ATOM     34  C   UNL     1      53.117   7.838  11.563  0.00  0.00    +0.000 A 
ATOM     35  H   UNL     1      55.481   8.237  13.807  0.00  0.00    +0.000 HD
ENDBRANCH  22  25
ENDBRANCH  20  21
ENDBRANCH   4  20
TORSDOF 9
ENDMDL
MODEL 8
REMARK VINA RESULT:    -6.817      3.266      8.838
REMARK INTER + INTRA:         -11.618
REMARK INTER:                 -10.304
REMARK INTRA:                  -1.314
REMARK UNBOUND:                -1.214
REMARK  Name = 
REMARK  11 active torsions:
REMARK  status: ('A' for Active; 'I' for Inactive)
REMARK    1  A    between atoms: C_1  and  O_2
REMARK    2  A    between atoms: O_2  and  C_3
REMARK    3  A    between atoms: C_5  and  C_6
REMARK    4  A    between atoms: C_6  and  O_7
REMARK    5  A    between atoms: O_7  and  C_8
REMARK    6  A    between atoms: C_8  and  C_9
REMARK    7  A    between atoms: C_12  and  C_13
REMARK    8  A    between atoms: C_13  and  N_14
REMARK    9  A    between atoms: C_15  and  C_17
REMARK   10  A    between atoms: C_27  and  O_28
REMARK   11  A    between atoms: O_28  and  C_29
REMARK                            x       y       z     vdW  Elec       q    Type
REMARK                         _______ _______ _______ _____ _____    ______ ____
ROOT
ATOM      1  C   UNL     1      49.689   7.375  16.299  0.00  0.00    +0.000 A 
ATOM      2  C   UNL     1      48.860   6.374  15.798  0.00  0.00    +0.000 A 
ATOM      3  C   UNL     1      48.289   6.506  14.531  0.00  0.00    +0.000 A 
ATOM      4  C   UNL     1      48.548   7.628  13.713  0.00  0.00    +0.000 A 
ATOM      5  C   UNL     1      49.357   8.654  14.229  0.00  0.00    +0.000 A 
ATOM      6  C   UNL     1      49.926   8.507  15.504  0.00  0.00    +0.000 A 
ENDROOT
BRANCH   5   7
ATOM      7  O   UNL     1      49.779   9.785  13.586  0.00  0.00    +0.000 OA
ATOM      8  C   UNL     1      48.912  10.910  13.591  0.00  0.00    +0.000 C 
ENDBRANCH   5   7
BRANCH   1   9
ATOM      9  C   UNL     1      50.311   7.255  17.663  0.00  0.00    +0.000 C 
BRANCH   9  10
ATOM     10  O   UNL     1      51.350   6.290  17.566  0.00  0.00    +0.000 OA
BRANCH  10  11
ATOM     11  C   UNL     1      51.319   5.348  18.634  0.00  0.00    +0.000 C 
BRANCH  11  14
ATOM     12  C   UNL     1      50.277   2.182  16.924  0.00  0.00    +0.000 A 
ATOM     13  C   UNL     1      50.202   3.478  17.378  0.00  0.00    +0.000 A 
ATOM     14  C   UNL     1      51.295   3.946  18.079  0.00  0.00    +0.000 A 
ATOM     15  N   UNL     1      52.368   3.160  18.335  0.00  0.00    +0.000 NA
ATOM     16  C   UNL     1      52.330   1.915  17.838  0.00  0.00    +0.000 A 
ATOM     17  N   UNL     1      51.331   1.374  17.135  0.00  0.00    +0.000 NA
BRANCH  12  19
ATOM     18  C   UNL     1      48.135   2.671  16.106  0.00  0.00    +0.000 C 
ATOM     19  O   UNL     1      49.187   1.716  16.211  0.00  0.00    +0.000 OA
ENDBRANCH  12  19
ENDBRANCH  11  14
ENDBRANCH  10  11
ENDBRANCH   9  10
ENDBRANCH   1   9
BRANCH   4  20
ATOM     20  C   UNL     1      47.999   7.572  12.311  0.00  0.00    +0.000 C 
BRANCH  20  21
ATOM     21  N   UNL     1      47.125   6.447  12.078  0.00  0.00    +0.000 N 
ATOM     22  C   UNL     1      45.857   6.659  11.592  0.00  0.00    +0.000 C 
ATOM     23  O   UNL     1      45.448   7.792  11.359  0.00  0.00    +0.000 OA
ATOM     24  H   UNL     1      47.540   5.519  12.026  0.00  0.00    +0.000 HD
BRANCH  22  25
ATOM     25  C   UNL     1      44.980   5.493  11.432  0.00  0.00    +0.000 A 
ATOM     26  C   UNL     1      44.082   5.162  12.440  0.00  0.00    +0.000 A 
ATOM     27  S   UNL     1      43.337   3.643  12.217  0.00  0.00    +0.000 S 
ATOM     28  C   UNL     1      44.158   3.403  10.747  0.00  0.00    +0.000 A 
ATOM     29  N   UNL     1      44.057   2.230  10.065  0.00  0.00    +0.000 NA
ATOM     30  C   UNL     1      44.714   2.205   8.953  0.00  0.00    +0.000 A 
ATOM     31  N   UNL     1      45.422   3.261   8.438  0.00  0.00    +0.000 N 
ATOM     32  C   UNL     1      45.501   4.479   9.066  0.00  0.00    +0.000 A 
ATOM     33  O   UNL     1      46.020   5.452   8.528  0.00  0.00    +0.000 OA
ATOM     34  C   UNL     1      44.894   4.515  10.379  0.00  0.00    +0.000 A 
ATOM     35  H   UNL     1      45.844   3.201   7.523  0.00  0.00    +0.000 HD
ENDBRANCH  22  25
ENDBRANCH  20  21
ENDBRANCH   4  20
TORSDOF 9
ENDMDL
MODEL 9
REMARK VINA RESULT:    -6.746      1.942      2.383
REMARK INTER + INTRA:         -11.510
REMARK INTER:                 -10.461
REMARK INTRA:                  -1.049
REMARK UNBOUND:                -1.214
REMARK  Name = 
REMARK  11 active torsions:
REMARK  status: ('A' for Active; 'I' for Inactive)
REMARK    1  A    between atoms: C_1  and  O_2
REMARK    2  A    between atoms: O_2  and  C_3
REMARK    3  A    between atoms: C_5  and  C_6
REMARK    4  A    between atoms: C_6  and  O_7
REMARK    5  A    between atoms: O_7  and  C_8
REMARK    6  A    between atoms: C_8  and  C_9
REMARK    7  A    between atoms: C_12  and  C_13
REMARK    8  A    between atoms: C_13  and  N_14
REMARK    9  A    between atoms: C_15  and  C_17
REMARK   10  A    between atoms: C_27  and  O_28
REMARK   11  A    between atoms: O_28  and  C_29
REMARK                            x       y       z     vdW  Elec       q    Type
REMARK                         _______ _______ _______ _____ _____    ______ ____
ROOT
ATOM      1  C   UNL     1      45.162   4.434  12.488  0.00  0.00    +0.000 A 
ATOM      2  C   UNL     1      46.078   3.953  13.423  0.00  0.00    +0.000 A 
ATOM      3  C   UNL     1      47.120   4.769  13.865  0.00  0.00    +0.000 A 
ATOM      4  C   UNL     1      47.267   6.099  13.412  0.00  0.00    +0.000 A 
ATOM      5  C   UNL     1      46.366   6.574  12.446  0.00  0.00    +0.000 A 
ATOM      6  C   UNL     1      45.321   5.743  12.010  0.00  0.00    +0.000 A 
ENDROOT
BRANCH   5   7
ATOM      7  O   UNL     1      46.292   7.837  11.924  0.00  0.00    +0.000 OA
ATOM      8  C   UNL     1      45.010   8.439  11.828  0.00  0.00    +0.000 C 
ENDBRANCH   5   7
BRANCH   1   9
ATOM      9  C   UNL     1      44.035   3.570  11.994  0.00  0.00    +0.000 C 
BRANCH   9  10
ATOM     10  O   UNL     1      44.548   2.780  10.931  0.00  0.00    +0.000 OA
BRANCH  10  11
ATOM     11  C   UNL     1      44.131   3.249   9.652  0.00  0.00    +0.000 C 
BRANCH  11  14
ATOM     12  C   UNL     1      46.853   1.936   7.439  0.00  0.00    +0.000 A 
ATOM     13  C   UNL     1      45.810   1.919   8.335  0.00  0.00    +0.000 A 
ATOM     14  C   UNL     1      45.272   3.145   8.671  0.00  0.00    +0.000 A 
ATOM     15  N   UNL     1      45.767   4.303   8.174  0.00  0.00    +0.000 NA
ATOM     16  C   UNL     1      46.783   4.194   7.305  0.00  0.00    +0.000 A 
ATOM     17  N   UNL     1      47.361   3.058   6.902  0.00  0.00    +0.000 NA
BRANCH  12  19
ATOM     18  C   UNL     1      46.650  -0.393   7.620  0.00  0.00    +0.000 C 
ATOM     19  O   UNL     1      47.385   0.707   7.091  0.00  0.00    +0.000 OA
ENDBRANCH  12  19
ENDBRANCH  11  14
ENDBRANCH  10  11
ENDBRANCH   9  10
ENDBRANCH   1   9
BRANCH   4  20
ATOM     20  C   UNL     1      48.335   6.919  14.086  0.00  0.00    +0.000 C 
BRANCH  20  21
ATOM     21  N   UNL     1      48.239   6.921  15.526  0.00  0.00    +0.000 N 
ATOM     22  C   UNL     1      49.089   7.710  16.265  0.00  0.00    +0.000 C 
ATOM     23  O   UNL     1      49.938   8.410  15.722  0.00  0.00    +0.000 OA
ATOM     24  H   UNL     1      47.391   6.553  15.951  0.00  0.00    +0.000 HD
BRANCH  22  25
ATOM     25  C   UNL     1      49.000   7.631  17.728  0.00  0.00    +0.000 A 
ATOM     26  C   UNL     1      49.559   6.548  18.396  0.00  0.00    +0.000 A 
ATOM     27  S   UNL     1      49.139   6.475  20.048  0.00  0.00    +0.000 S 
ATOM     28  C   UNL     1      48.234   7.911  19.930  0.00  0.00    +0.000 A 
ATOM     29  N   UNL     1      47.503   8.374  20.980  0.00  0.00    +0.000 NA
ATOM     30  C   UNL     1      46.892   9.488  20.750  0.00  0.00    +0.000 A 
ATOM     31  N   UNL     1      46.983  10.205  19.585  0.00  0.00    +0.000 N 
ATOM     32  C   UNL     1      47.755   9.802  18.522  0.00  0.00    +0.000 A 
ATOM     33  O   UNL     1      47.935  10.520  17.544  0.00  0.00    +0.000 OA
ATOM     34  C   UNL     1      48.352   8.493  18.681  0.00  0.00    +0.000 A 
ATOM     35  H   UNL     1      46.545  11.111  19.501  0.00  0.00    +0.000 HD
ENDBRANCH  22  25
ENDBRANCH  20  21
ENDBRANCH   4  20
TORSDOF 9
ENDMDL
