MODEL 1
REMARK VINA RESULT:    -9.017      0.000      0.000
REMARK INTER + INTRA:         -12.933
REMARK INTER:                 -12.180
REMARK INTRA:                  -0.752
REMARK UNBOUND:                -0.752
REMARK  Name = 
REMARK  6 active torsions:
REMARK  status: ('A' for Active; 'I' for Inactive)
REMARK    1  A    between atoms: C_2  and  C_4
REMARK    2  A    between atoms: N_8  and  C_9
REMARK    3  A    between atoms: C_9  and  C_10
REMARK    4  A    between atoms: C_10  and  C_13
REMARK    5  A    between atoms: C_15  and  S_16
REMARK    6  A    between atoms: S_16  and  C_17
REMARK                            x       y       z     vdW  Elec       q    Type
REMARK                         _______ _______ _______ _____ _____    ______ ____
ROOT
ATOM      1  C   UNL     1      43.189   4.437  11.018  0.00  0.00    +0.000 C 
ENDROOT
BRANCH   1   6
ATOM      2  C   UNL     1      46.570   2.492   7.656  0.00  0.00    +0.000 A 
ATOM      3  C   UNL     1      45.700   1.835   8.516  0.00  0.00    +0.000 A 
ATOM      4  C   UNL     1      44.769   2.579   9.243  0.00  0.00    +0.000 A 
ATOM      5  C   UNL     1      44.735   3.966   9.118  0.00  0.00    +0.000 A 
ATOM      6  N   UNL     1      43.769   4.757   9.702  0.00  0.00    +0.000 N 
ATOM      7  N   UNL     1      45.603   4.614   8.314  0.00  0.00    +0.000 NA
ATOM      8  C   UNL     1      46.503   3.876   7.610  0.00  0.00    +0.000 A 
ATOM      9  H   UNL     1      44.036   5.731   9.567  0.00  0.00    +0.000 HD
BRANCH   2  11
ATOM     10  N   UNL     1      48.608   2.489   6.342  0.00  0.00    +0.000 N 
ATOM     11  C   UNL     1      47.534   1.775   6.799  0.00  0.00    +0.000 C 
ATOM     12  O   UNL     1      47.406   0.584   6.544  0.00  0.00    +0.000 OA
ATOM     13  H   UNL     1      49.323   1.964   5.852  0.00  0.00    +0.000 HD
ATOM     14  H   UNL     1      48.879   3.374   6.740  0.00  0.00    +0.000 HD
ENDBRANCH   2  11
ENDBRANCH   1   6
BRANCH   1  15
ATOM     15  C   UNL     1      43.240   5.588  12.053  0.00  0.00    +0.000 C 
ATOM     16  F   UNL     1      42.748   6.730  11.485  0.00  0.00    +0.000 F 
ATOM     17  F   UNL     1      42.363   5.281  13.062  0.00  0.00    +0.000 F 
BRANCH  15  18
ATOM     18  C   UNL     1      44.660   5.806  12.578  0.00  0.00    +0.000 A 
ATOM     19  C   UNL     1      45.290   4.792  13.300  0.00  0.00    +0.000 A 
ATOM     20  C   UNL     1      46.560   5.020  13.833  0.00  0.00    +0.000 A 
ATOM     21  C   UNL     1      47.179   6.247  13.609  0.00  0.00    +0.000 A 
ATOM     22  C   UNL     1      46.495   7.201  12.880  0.00  0.00    +0.000 A 
ATOM     23  N   UNL     1      45.257   7.014  12.374  0.00  0.00    +0.000 NA
BRANCH  20  24
ATOM     24  S   UNL     1      47.432   3.712  14.668  0.00  0.00    +0.000 S 
BRANCH  24  25
ATOM     25  C   UNL     1      47.198   4.231  16.409  0.00  0.00    +0.000 C 
ATOM     26  C   UNL     1      48.499   4.866  16.965  0.00  0.00    +0.000 C 
ATOM     27  C   UNL     1      48.326   4.012  18.231  0.00  0.00    +0.000 C 
ATOM     28  C   UNL     1      47.403   3.081  17.422  0.00  0.00    +0.000 C 
ENDBRANCH  24  25
ENDBRANCH  20  24
ENDBRANCH  15  18
ENDBRANCH   1  15
TORSDOF 6
ENDMDL
MODEL 2
REMARK VINA RESULT:    -8.619      2.246      3.495
REMARK INTER + INTRA:         -12.394
REMARK INTER:                 -11.269
REMARK INTRA:                  -1.126
REMARK UNBOUND:                -0.752
REMARK  Name = 
REMARK  6 active torsions:
REMARK  status: ('A' for Active; 'I' for Inactive)
REMARK    1  A    between atoms: C_2  and  C_4
REMARK    2  A    between atoms: N_8  and  C_9
REMARK    3  A    between atoms: C_9  and  C_10
REMARK    4  A    between atoms: C_10  and  C_13
REMARK    5  A    between atoms: C_15  and  S_16
REMARK    6  A    between atoms: S_16  and  C_17
REMARK                            x       y       z     vdW  Elec       q    Type
REMARK                         _______ _______ _______ _____ _____    ______ ____
ROOT
ATOM      1  C   UNL     1      43.278   3.859  11.287  0.00  0.00    +0.000 C 
ENDROOT
BRANCH   1   6
ATOM      2  C   UNL     1      46.479   2.860   7.378  0.00  0.00    +0.000 A 
ATOM      3  C   UNL     1      46.024   4.081   7.859  0.00  0.00    +0.000 A 
ATOM      4  C   UNL     1      45.264   4.112   9.029  0.00  0.00    +0.000 A 
ATOM      5  C   UNL     1      44.949   2.924   9.688  0.00  0.00    +0.000 A 
ATOM      6  N   UNL     1      44.314   2.880  10.910  0.00  0.00    +0.000 N 
ATOM      7  N   UNL     1      45.355   1.732   9.205  0.00  0.00    +0.000 NA
ATOM      8  C   UNL     1      46.098   1.717   8.066  0.00  0.00    +0.000 A 
ATOM      9  H   UNL     1      44.089   1.908  11.113  0.00  0.00    +0.000 HD
BRANCH   2  11
ATOM     10  N   UNL     1      48.661   2.432   6.411  0.00  0.00    +0.000 N 
ATOM     11  C   UNL     1      47.348   2.746   6.191  0.00  0.00    +0.000 C 
ATOM     12  O   UNL     1      46.907   2.883   5.056  0.00  0.00    +0.000 OA
ATOM     13  H   UNL     1      49.223   2.242   5.589  0.00  0.00    +0.000 HD
ATOM     14  H   UNL     1      48.989   2.061   7.288  0.00  0.00    +0.000 HD
ENDBRANCH   2  11
ENDBRANCH   1   6
BRANCH   1  15
ATOM     15  C   UNL     1      43.414   4.438  12.717  0.00  0.00    +0.000 C 
ATOM     16  F   UNL     1      42.525   5.463  12.876  0.00  0.00    +0.000 F 
ATOM     17  F   UNL     1      43.008   3.469  13.599  0.00  0.00    +0.000 F 
BRANCH  15  18
ATOM     18  C   UNL     1      44.843   4.904  12.998  0.00  0.00    +0.000 A 
ATOM     19  C   UNL     1      45.264   6.151  12.534  0.00  0.00    +0.000 A 
ATOM     20  C   UNL     1      46.588   6.544  12.736  0.00  0.00    +0.000 A 
ATOM     21  C   UNL     1      47.452   5.691  13.418  0.00  0.00    +0.000 A 
ATOM     22  C   UNL     1      46.962   4.474  13.852  0.00  0.00    +0.000 A 
ATOM     23  N   UNL     1      45.692   4.060  13.649  0.00  0.00    +0.000 NA
BRANCH  20  24
ATOM     24  S   UNL     1      47.128   8.169  12.250  0.00  0.00    +0.000 S 
BRANCH  24  25
ATOM     25  C   UNL     1      48.904   8.062  12.686  0.00  0.00    +0.000 C 
ATOM     26  C   UNL     1      49.516   9.481  12.819  0.00  0.00    +0.000 C 
ATOM     27  C   UNL     1      50.709   9.000  11.975  0.00  0.00    +0.000 C 
ATOM     28  C   UNL     1      49.821   7.850  11.460  0.00  0.00    +0.000 C 
ENDBRANCH  24  25
ENDBRANCH  20  24
ENDBRANCH  15  18
ENDBRANCH   1  15
TORSDOF 6
ENDMDL
MODEL 3
REMARK VINA RESULT:    -7.888      4.057      8.180
REMARK INTER + INTRA:         -11.407
REMARK INTER:                 -10.549
REMARK INTRA:                  -0.858
REMARK UNBOUND:                -0.752
REMARK  Name = 
REMARK  6 active torsions:
REMARK  status: ('A' for Active; 'I' for Inactive)
REMARK    1  A    between atoms: C_2  and  C_4
REMARK    2  A    between atoms: N_8  and  C_9
REMARK    3  A    between atoms: C_9  and  C_10
REMARK    4  A    between atoms: C_10  and  C_13
REMARK    5  A    between atoms: C_15  and  S_16
REMARK    6  A    between atoms: S_16  and  C_17
REMARK                            x       y       z     vdW  Elec       q    Type
REMARK                         _______ _______ _______ _____ _____    ______ ____
ROOT
ATOM      1  C   UNL     1      47.154   5.817  13.094  0.00  0.00    +0.000 C 
ENDROOT
BRANCH   1   6
ATOM      2  C   UNL     1      48.560   4.444  17.854  0.00  0.00    +0.000 A 
ATOM      3  C   UNL     1      48.901   5.574  17.122  0.00  0.00    +0.000 A 
ATOM      4  C   UNL     1      48.282   5.802  15.892  0.00  0.00    +0.000 A 
ATOM      5  C   UNL     1      47.350   4.889  15.401  0.00  0.00    +0.000 A 
ATOM      6  N   UNL     1      46.606   5.104  14.261  0.00  0.00    +0.000 N 
ATOM      7  N   UNL     1      47.044   3.770  16.089  0.00  0.00    +0.000 NA
ATOM      8  C   UNL     1      47.652   3.562  17.287  0.00  0.00    +0.000 A 
ATOM      9  H   UNL     1      46.099   4.246  14.050  0.00  0.00    +0.000 HD
BRANCH   2  11
ATOM     10  N   UNL     1      48.401   3.318  19.995  0.00  0.00    +0.000 N 
ATOM     11  C   UNL     1      49.114   4.166  19.193  0.00  0.00    +0.000 C 
ATOM     12  O   UNL     1      50.185   4.637  19.557  0.00  0.00    +0.000 OA
ATOM     13  H   UNL     1      48.843   3.042  20.865  0.00  0.00    +0.000 HD
ATOM     14  H   UNL     1      47.673   2.719  19.639  0.00  0.00    +0.000 HD
ENDBRANCH   2  11
ENDBRANCH   1   6
BRANCH   1  15
ATOM     15  C   UNL     1      46.139   6.085  11.955  0.00  0.00    +0.000 C 
ATOM     16  F   UNL     1      45.444   7.229  12.229  0.00  0.00    +0.000 F 
ATOM     17  F   UNL     1      46.854   6.362  10.816  0.00  0.00    +0.000 F 
BRANCH  15  18
ATOM     18  C   UNL     1      45.191   4.901  11.761  0.00  0.00    +0.000 A 
ATOM     19  C   UNL     1      45.290   4.122  10.608  0.00  0.00    +0.000 A 
ATOM     20  C   UNL     1      44.379   3.083  10.405  0.00  0.00    +0.000 A 
ATOM     21  C   UNL     1      43.408   2.834  11.371  0.00  0.00    +0.000 A 
ATOM     22  C   UNL     1      43.375   3.646  12.490  0.00  0.00    +0.000 A 
ATOM     23  N   UNL     1      44.229   4.671  12.699  0.00  0.00    +0.000 NA
BRANCH  20  24
ATOM     24  S   UNL     1      44.544   2.006   8.997  0.00  0.00    +0.000 S 
BRANCH  24  25
ATOM     25  C   UNL     1      46.156   2.578   8.342  0.00  0.00    +0.000 C 
ATOM     26  C   UNL     1      45.956   3.365   7.021  0.00  0.00    +0.000 C 
ATOM     27  C   UNL     1      47.113   2.556   6.412  0.00  0.00    +0.000 C 
ATOM     28  C   UNL     1      46.895   1.501   7.515  0.00  0.00    +0.000 C 
ENDBRANCH  24  25
ENDBRANCH  20  24
ENDBRANCH  15  18
ENDBRANCH   1  15
TORSDOF 6
ENDMDL
MODEL 4
REMARK VINA RESULT:    -6.975      4.614      8.265
REMARK INTER + INTRA:         -10.174
REMARK INTER:                  -9.385
REMARK INTRA:                  -0.789
REMARK UNBOUND:                -0.752
REMARK  Name = 
REMARK  6 active torsions:
REMARK  status: ('A' for Active; 'I' for Inactive)
REMARK    1  A    between atoms: C_2  and  C_4
REMARK    2  A    between atoms: N_8  and  C_9
REMARK    3  A    between atoms: C_9  and  C_10
REMARK    4  A    between atoms: C_10  and  C_13
REMARK    5  A    between atoms: C_15  and  S_16
REMARK    6  A    between atoms: S_16  and  C_17
REMARK                            x       y       z     vdW  Elec       q    Type
REMARK                         _______ _______ _______ _____ _____    ______ ____
ROOT
ATOM      1  C   UNL     1      46.433   4.697  15.037  0.00  0.00    +0.000 C 
ENDROOT
BRANCH   1   6
ATOM      2  C   UNL     1      50.694   3.541  17.687  0.00  0.00    +0.000 A 
ATOM      3  C   UNL     1      50.129   4.781  17.418  0.00  0.00    +0.000 A 
ATOM      4  C   UNL     1      48.883   4.840  16.792  0.00  0.00    +0.000 A 
ATOM      5  C   UNL     1      48.232   3.664  16.423  0.00  0.00    +0.000 A 
ATOM      6  N   UNL     1      46.950   3.634  15.918  0.00  0.00    +0.000 N 
ATOM      7  N   UNL     1      48.793   2.458  16.647  0.00  0.00    +0.000 NA
ATOM      8  C   UNL     1      50.006   2.416  17.261  0.00  0.00    +0.000 A 
ATOM      9  H   UNL     1      46.754   2.682  15.614  0.00  0.00    +0.000 HD
BRANCH   2  11
ATOM     10  N   UNL     1      52.540   2.144  18.411  0.00  0.00    +0.000 N 
ATOM     11  C   UNL     1      51.972   3.389  18.410  0.00  0.00    +0.000 C 
ATOM     12  O   UNL     1      52.524   4.342  18.947  0.00  0.00    +0.000 OA
ATOM     13  H   UNL     1      53.470   2.074  18.808  0.00  0.00    +0.000 HD
ATOM     14  H   UNL     1      52.256   1.419  17.771  0.00  0.00    +0.000 HD
ENDBRANCH   2  11
ENDBRANCH   1   6
BRANCH   1  15
ATOM     15  C   UNL     1      46.685   4.476  13.525  0.00  0.00    +0.000 C 
ATOM     16  F   UNL     1      47.649   5.344  13.096  0.00  0.00    +0.000 F 
ATOM     17  F   UNL     1      47.231   3.226  13.372  0.00  0.00    +0.000 F 
BRANCH  15  18
ATOM     18  C   UNL     1      45.399   4.641  12.714  0.00  0.00    +0.000 A 
ATOM     19  C   UNL     1      45.385   4.282  11.366  0.00  0.00    +0.000 A 
ATOM     20  C   UNL     1      44.228   4.497  10.614  0.00  0.00    +0.000 A 
ATOM     21  C   UNL     1      43.107   5.042  11.234  0.00  0.00    +0.000 A 
ATOM     22  C   UNL     1      43.195   5.368  12.575  0.00  0.00    +0.000 A 
ATOM     23  N   UNL     1      44.309   5.192  13.318  0.00  0.00    +0.000 NA
BRANCH  20  24
ATOM     24  S   UNL     1      44.144   3.953   8.921  0.00  0.00    +0.000 S 
BRANCH  24  25
ATOM     25  C   UNL     1      45.850   3.324   8.700  0.00  0.00    +0.000 C 
ATOM     26  C   UNL     1      46.325   3.544   7.240  0.00  0.00    +0.000 C 
ATOM     27  C   UNL     1      46.846   2.098   7.235  0.00  0.00    +0.000 C 
ATOM     28  C   UNL     1      45.909   1.804   8.423  0.00  0.00    +0.000 C 
ENDBRANCH  24  25
ENDBRANCH  20  24
ENDBRANCH  15  18
ENDBRANCH   1  15
TORSDOF 6
ENDMDL
MODEL 5
REMARK VINA RESULT:    -6.596      4.549      6.660
REMARK INTER + INTRA:          -9.661
REMARK INTER:                  -9.388
REMARK INTRA:                  -0.273
REMARK UNBOUND:                -0.752
REMARK  Name = 
REMARK  6 active torsions:
REMARK  status: ('A' for Active; 'I' for Inactive)
REMARK    1  A    between atoms: C_2  and  C_4
REMARK    2  A    between atoms: N_8  and  C_9
REMARK    3  A    between atoms: C_9  and  C_10
REMARK    4  A    between atoms: C_10  and  C_13
REMARK    5  A    between atoms: C_15  and  S_16
REMARK    6  A    between atoms: S_16  and  C_17
REMARK                            x       y       z     vdW  Elec       q    Type
REMARK                         _______ _______ _______ _____ _____    ______ ____
ROOT
ATOM      1  C   UNL     1      47.559   3.943  15.858  0.00  0.00    +0.000 C 
ENDROOT
BRANCH   1   6
ATOM      2  C   UNL     1      44.554   4.687  11.743  0.00  0.00    +0.000 A 
ATOM      3  C   UNL     1      45.076   5.613  12.636  0.00  0.00    +0.000 A 
ATOM      4  C   UNL     1      45.988   5.188  13.603  0.00  0.00    +0.000 A 
ATOM      5  C   UNL     1      46.347   3.844  13.680  0.00  0.00    +0.000 A 
ATOM      6  N   UNL     1      47.330   3.368  14.520  0.00  0.00    +0.000 N 
ATOM      7  N   UNL     1      45.814   2.933  12.840  0.00  0.00    +0.000 NA
ATOM      8  C   UNL     1      44.930   3.362  11.900  0.00  0.00    +0.000 A 
ATOM      9  H   UNL     1      47.314   2.350  14.479  0.00  0.00    +0.000 HD
BRANCH   2  11
ATOM     10  N   UNL     1      43.898   4.529   9.413  0.00  0.00    +0.000 N 
ATOM     11  C   UNL     1      43.642   5.066  10.646  0.00  0.00    +0.000 C 
ATOM     12  O   UNL     1      42.674   5.792  10.836  0.00  0.00    +0.000 OA
ATOM     13  H   UNL     1      43.203   4.700   8.695  0.00  0.00    +0.000 HD
ATOM     14  H   UNL     1      44.510   3.740   9.283  0.00  0.00    +0.000 HD
ENDBRANCH   2  11
ENDBRANCH   1   6
BRANCH   1  15
ATOM     15  C   UNL     1      48.117   2.952  16.909  0.00  0.00    +0.000 C 
ATOM     16  F   UNL     1      47.084   2.447  17.648  0.00  0.00    +0.000 F 
ATOM     17  F   UNL     1      48.636   1.876  16.234  0.00  0.00    +0.000 F 
BRANCH  15  18
ATOM     18  C   UNL     1      49.158   3.619  17.809  0.00  0.00    +0.000 A 
ATOM     19  C   UNL     1      50.515   3.472  17.518  0.00  0.00    +0.000 A 
ATOM     20  C   UNL     1      51.463   4.027  18.380  0.00  0.00    +0.000 A 
ATOM     21  C   UNL     1      51.030   4.737  19.497  0.00  0.00    +0.000 A 
ATOM     22  C   UNL     1      49.670   4.845  19.717  0.00  0.00    +0.000 A 
ATOM     23  N   UNL     1      48.733   4.297  18.912  0.00  0.00    +0.000 NA
BRANCH  20  24
ATOM     24  S   UNL     1      53.196   3.947  17.981  0.00  0.00    +0.000 S 
BRANCH  24  25
ATOM     25  C   UNL     1      53.559   2.221  18.477  0.00  0.00    +0.000 C 
ATOM     26  C   UNL     1      54.750   1.661  17.657  0.00  0.00    +0.000 C 
ATOM     27  C   UNL     1      53.934   0.378  17.426  0.00  0.00    +0.000 C 
ATOM     28  C   UNL     1      52.663   1.180  17.767  0.00  0.00    +0.000 C 
ENDBRANCH  24  25
ENDBRANCH  20  24
ENDBRANCH  15  18
ENDBRANCH   1  15
TORSDOF 6
ENDMDL
MODEL 6
REMARK VINA RESULT:    -6.563      4.180      6.498
REMARK INTER + INTRA:          -9.617
REMARK INTER:                  -9.001
REMARK INTRA:                  -0.616
REMARK UNBOUND:                -0.752
REMARK  Name = 
REMARK  6 active torsions:
REMARK  status: ('A' for Active; 'I' for Inactive)
REMARK    1  A    between atoms: C_2  and  C_4
REMARK    2  A    between atoms: N_8  and  C_9
REMARK    3  A    between atoms: C_9  and  C_10
REMARK    4  A    between atoms: C_10  and  C_13
REMARK    5  A    between atoms: C_15  and  S_16
REMARK    6  A    between atoms: S_16  and  C_17
REMARK                            x       y       z     vdW  Elec       q    Type
REMARK                         _______ _______ _______ _____ _____    ______ ____
ROOT
ATOM      1  C   UNL     1      47.677   3.911  15.736  0.00  0.00    +0.000 C 
ENDROOT
BRANCH   1   6
ATOM      2  C   UNL     1      44.449   4.916  11.851  0.00  0.00    +0.000 A 
ATOM      3  C   UNL     1      45.113   5.793  12.699  0.00  0.00    +0.000 A 
ATOM      4  C   UNL     1      46.054   5.289  13.598  0.00  0.00    +0.000 A 
ATOM      5  C   UNL     1      46.302   3.919  13.654  0.00  0.00    +0.000 A 
ATOM      6  N   UNL     1      47.300   3.360  14.421  0.00  0.00    +0.000 N 
ATOM      7  N   UNL     1      45.632   3.058  12.861  0.00  0.00    +0.000 NA
ATOM      8  C   UNL     1      44.720   3.563  11.987  0.00  0.00    +0.000 A 
ATOM      9  H   UNL     1      47.194   2.347  14.387  0.00  0.00    +0.000 HD
BRANCH   2  11
ATOM     10  N   UNL     1      42.708   6.448  11.140  0.00  0.00    +0.000 N 
ATOM     11  C   UNL     1      43.494   5.373  10.823  0.00  0.00    +0.000 C 
ATOM     12  O   UNL     1      43.435   4.844   9.719  0.00  0.00    +0.000 OA
ATOM     13  H   UNL     1      42.140   6.826  10.391  0.00  0.00    +0.000 HD
ATOM     14  H   UNL     1      42.912   7.056  11.916  0.00  0.00    +0.000 HD
ENDBRANCH   2  11
ENDBRANCH   1   6
BRANCH   1  15
ATOM     15  C   UNL     1      48.289   2.887  16.724  0.00  0.00    +0.000 C 
ATOM     16  F   UNL     1      47.321   2.460  17.589  0.00  0.00    +0.000 F 
ATOM     17  F   UNL     1      48.646   1.775  16.004  0.00  0.00    +0.000 F 
BRANCH  15  18
ATOM     18  C   UNL     1      49.477   3.483  17.481  0.00  0.00    +0.000 A 
ATOM     19  C   UNL     1      49.281   4.590  18.307  0.00  0.00    +0.000 A 
ATOM     20  C   UNL     1      50.379   5.171  18.944  0.00  0.00    +0.000 A 
ATOM     21  C   UNL     1      51.642   4.615  18.759  0.00  0.00    +0.000 A 
ATOM     22  C   UNL     1      51.757   3.515  17.930  0.00  0.00    +0.000 A 
ATOM     23  N   UNL     1      50.715   2.949  17.284  0.00  0.00    +0.000 NA
BRANCH  20  24
ATOM     24  S   UNL     1      50.148   6.517  20.085  0.00  0.00    +0.000 S 
BRANCH  24  25
ATOM     25  C   UNL     1      48.846   7.462  19.208  0.00  0.00    +0.000 C 
ATOM     26  C   UNL     1      48.979   8.977  19.511  0.00  0.00    +0.000 C 
ATOM     27  C   UNL     1      47.461   9.019  19.754  0.00  0.00    +0.000 C 
ATOM     28  C   UNL     1      47.499   7.493  19.965  0.00  0.00    +0.000 C 
ENDBRANCH  24  25
ENDBRANCH  20  24
ENDBRANCH  15  18
ENDBRANCH   1  15
TORSDOF 6
ENDMDL
MODEL 7
REMARK VINA RESULT:    -6.502      3.984      8.154
REMARK INTER + INTRA:          -9.535
REMARK INTER:                  -8.628
REMARK INTRA:                  -0.907
REMARK UNBOUND:                -0.752
REMARK  Name = 
REMARK  6 active torsions:
REMARK  status: ('A' for Active; 'I' for Inactive)
REMARK    1  A    between atoms: C_2  and  C_4
REMARK    2  A    between atoms: N_8  and  C_9
REMARK    3  A    between atoms: C_9  and  C_10
REMARK    4  A    between atoms: C_10  and  C_13
REMARK    5  A    between atoms: C_15  and  S_16
REMARK    6  A    between atoms: S_16  and  C_17
REMARK                            x       y       z     vdW  Elec       q    Type
REMARK                         _______ _______ _______ _____ _____    ______ ____
ROOT
ATOM      1  C   UNL     1      45.326   4.570  14.092  0.00  0.00    +0.000 C 
ENDROOT
BRANCH   1   6
ATOM      2  C   UNL     1      49.205   4.331  17.471  0.00  0.00    +0.000 A 
ATOM      3  C   UNL     1      48.244   3.378  17.158  0.00  0.00    +0.000 A 
ATOM      4  C   UNL     1      47.367   3.617  16.099  0.00  0.00    +0.000 A 
ATOM      5  C   UNL     1      47.447   4.810  15.384  0.00  0.00    +0.000 A 
ATOM      6  N   UNL     1      46.705   5.066  14.251  0.00  0.00    +0.000 N 
ATOM      7  N   UNL     1      48.352   5.756  15.707  0.00  0.00    +0.000 NA
ATOM      8  C   UNL     1      49.202   5.509  16.739  0.00  0.00    +0.000 A 
ATOM      9  H   UNL     1      46.850   6.041  13.993  0.00  0.00    +0.000 HD
BRANCH   2  11
ATOM     10  N   UNL     1      49.805   4.305  19.821  0.00  0.00    +0.000 N 
ATOM     11  C   UNL     1      50.215   4.126  18.527  0.00  0.00    +0.000 C 
ATOM     12  O   UNL     1      51.357   3.769  18.264  0.00  0.00    +0.000 OA
ATOM     13  H   UNL     1      50.470   4.051  20.542  0.00  0.00    +0.000 HD
ATOM     14  H   UNL     1      48.833   4.337  20.081  0.00  0.00    +0.000 HD
ENDBRANCH   2  11
ENDBRANCH   1   6
BRANCH   1  15
ATOM     15  C   UNL     1      45.113   3.595  12.907  0.00  0.00    +0.000 C 
ATOM     16  F   UNL     1      45.969   2.537  13.033  0.00  0.00    +0.000 F 
ATOM     17  F   UNL     1      43.856   3.059  13.029  0.00  0.00    +0.000 F 
BRANCH  15  18
ATOM     18  C   UNL     1      45.306   4.299  11.563  0.00  0.00    +0.000 A 
ATOM     19  C   UNL     1      45.147   3.578  10.379  0.00  0.00    +0.000 A 
ATOM     20  C   UNL     1      45.389   4.209   9.158  0.00  0.00    +0.000 A 
ATOM     21  C   UNL     1      45.760   5.550   9.149  0.00  0.00    +0.000 A 
ATOM     22  C   UNL     1      45.893   6.201  10.361  0.00  0.00    +0.000 A 
ATOM     23  N   UNL     1      45.688   5.607  11.557  0.00  0.00    +0.000 NA
BRANCH  20  24
ATOM     24  S   UNL     1      45.093   3.348   7.628  0.00  0.00    +0.000 S 
BRANCH  24  25
ATOM     25  C   UNL     1      46.805   3.239   6.985  0.00  0.00    +0.000 C 
ATOM     26  C   UNL     1      46.794   2.977   5.456  0.00  0.00    +0.000 C 
ATOM     27  C   UNL     1      47.860   1.892   5.676  0.00  0.00    +0.000 C 
ATOM     28  C   UNL     1      47.433   1.837   7.156  0.00  0.00    +0.000 C 
ENDBRANCH  24  25
ENDBRANCH  20  24
ENDBRANCH  15  18
ENDBRANCH   1  15
TORSDOF 6
ENDMDL
MODEL 8
REMARK VINA RESULT:    -6.396      3.462      4.962
REMARK INTER + INTRA:          -9.391
REMARK INTER:                  -8.489
REMARK INTRA:                  -0.902
REMARK UNBOUND:                -0.752
REMARK  Name = 
REMARK  6 active torsions:
REMARK  status: ('A' for Active; 'I' for Inactive)
REMARK    1  A    between atoms: C_2  and  C_4
REMARK    2  A    between atoms: N_8  and  C_9
REMARK    3  A    between atoms: C_9  and  C_10
REMARK    4  A    between atoms: C_10  and  C_13
REMARK    5  A    between atoms: C_15  and  S_16
REMARK    6  A    between atoms: S_16  and  C_17
REMARK                            x       y       z     vdW  Elec       q    Type
REMARK                         _______ _______ _______ _____ _____    ______ ____
ROOT
ATOM      1  C   UNL     1      47.275   8.080  13.467  0.00  0.00    +0.000 C 
ENDROOT
BRANCH   1   6
ATOM      2  C   UNL     1      44.637   4.121  11.496  0.00  0.00    +0.000 A 
ATOM      3  C   UNL     1      45.119   4.308  12.784  0.00  0.00    +0.000 A 
ATOM      4  C   UNL     1      45.690   5.535  13.126  0.00  0.00    +0.000 A 
ATOM      5  C   UNL     1      45.793   6.546  12.173  0.00  0.00    +0.000 A 
ATOM      6  N   UNL     1      46.226   7.821  12.463  0.00  0.00    +0.000 N 
ATOM      7  N   UNL     1      45.361   6.357  10.909  0.00  0.00    +0.000 NA
ATOM      8  C   UNL     1      44.804   5.158  10.591  0.00  0.00    +0.000 A 
ATOM      9  H   UNL     1      46.329   8.327  11.585  0.00  0.00    +0.000 HD
BRANCH   2  11
ATOM     10  N   UNL     1      44.484   2.216  10.003  0.00  0.00    +0.000 N 
ATOM     11  C   UNL     1      43.954   2.882  11.074  0.00  0.00    +0.000 C 
ATOM     12  O   UNL     1      42.985   2.444  11.681  0.00  0.00    +0.000 OA
ATOM     13  H   UNL     1      44.082   1.310   9.792  0.00  0.00    +0.000 HD
ATOM     14  H   UNL     1      45.412   2.399   9.656  0.00  0.00    +0.000 HD
ENDBRANCH   2  11
ENDBRANCH   1   6
BRANCH   1  15
ATOM     15  C   UNL     1      48.726   8.010  12.930  0.00  0.00    +0.000 C 
ATOM     16  F   UNL     1      48.793   7.083  11.928  0.00  0.00    +0.000 F 
ATOM     17  F   UNL     1      49.008   9.211  12.330  0.00  0.00    +0.000 F 
BRANCH  15  18
ATOM     18  C   UNL     1      49.719   7.682  14.046  0.00  0.00    +0.000 A 
ATOM     19  C   UNL     1      49.285   6.976  15.169  0.00  0.00    +0.000 A 
ATOM     20  C   UNL     1      50.179   6.737  16.214  0.00  0.00    +0.000 A 
ATOM     21  C   UNL     1      51.491   7.188  16.100  0.00  0.00    +0.000 A 
ATOM     22  C   UNL     1      51.850   7.876  14.956  0.00  0.00    +0.000 A 
ATOM     23  N   UNL     1      50.998   8.140  13.941  0.00  0.00    +0.000 NA
BRANCH  20  24
ATOM     24  S   UNL     1      49.685   5.751  17.611  0.00  0.00    +0.000 S 
BRANCH  24  25
ATOM     25  C   UNL     1      48.447   4.662  16.813  0.00  0.00    +0.000 C 
ATOM     26  C   UNL     1      47.191   4.519  17.713  0.00  0.00    +0.000 C 
ATOM     27  C   UNL     1      47.233   3.003  17.458  0.00  0.00    +0.000 C 
ATOM     28  C   UNL     1      48.712   3.158  17.053  0.00  0.00    +0.000 C 
ENDBRANCH  24  25
ENDBRANCH  20  24
ENDBRANCH  15  18
ENDBRANCH   1  15
TORSDOF 6
ENDMDL
MODEL 9
REMARK VINA RESULT:    -6.385      4.350      7.643
REMARK INTER + INTRA:          -9.376
REMARK INTER:                  -8.659
REMARK INTRA:                  -0.717
REMARK UNBOUND:                -0.752
REMARK  Name = 
REMARK  6 active torsions:
REMARK  status: ('A' for Active; 'I' for Inactive)
REMARK    1  A    between atoms: C_2  and  C_4
REMARK    2  A    between atoms: N_8  and  C_9
REMARK    3  A    between atoms: C_9  and  C_10
REMARK    4  A    between atoms: C_10  and  C_13
REMARK    5  A    between atoms: C_15  and  S_16
REMARK    6  A    between atoms: S_16  and  C_17
REMARK                            x       y       z     vdW  Elec       q    Type
REMARK                         _______ _______ _______ _____ _____    ______ ____
ROOT
ATOM      1  C   UNL     1      46.985   5.791  13.323  0.00  0.00    +0.000 C 
ENDROOT
BRANCH   1   6
ATOM      2  C   UNL     1      51.311   8.571  13.052  0.00  0.00    +0.000 A 
ATOM      3  C   UNL     1      50.563   7.998  12.032  0.00  0.00    +0.000 A 
ATOM      4  C   UNL     1      49.339   7.401  12.338  0.00  0.00    +0.000 A 
ATOM      5  C   UNL     1      48.892   7.365  13.658  0.00  0.00    +0.000 A 
ATOM      6  N   UNL     1      47.644   6.909  14.023  0.00  0.00    +0.000 N 
ATOM      7  N   UNL     1      49.631   7.886  14.658  0.00  0.00    +0.000 NA
ATOM      8  C   UNL     1      50.820   8.467  14.344  0.00  0.00    +0.000 A 
ATOM      9  H   UNL     1      47.609   6.868  15.040  0.00  0.00    +0.000 HD
BRANCH   2  11
ATOM     10  N   UNL     1      52.919   9.509  11.497  0.00  0.00    +0.000 N 
ATOM     11  C   UNL     1      52.579   9.285  12.804  0.00  0.00    +0.000 C 
ATOM     12  O   UNL     1      53.275   9.698  13.723  0.00  0.00    +0.000 OA
ATOM     13  H   UNL     1      53.729  10.098  11.337  0.00  0.00    +0.000 HD
ATOM     14  H   UNL     1      52.258   9.421  10.743  0.00  0.00    +0.000 HD
ENDBRANCH   2  11
ENDBRANCH   1   6
BRANCH   1  15
ATOM     15  C   UNL     1      45.806   6.197  12.405  0.00  0.00    +0.000 C 
ATOM     16  F   UNL     1      44.936   6.983  13.107  0.00  0.00    +0.000 F 
ATOM     17  F   UNL     1      46.306   7.006  11.417  0.00  0.00    +0.000 F 
BRANCH  15  18
ATOM     18  C   UNL     1      45.095   4.969  11.833  0.00  0.00    +0.000 A 
ATOM     19  C   UNL     1      45.140   4.725  10.459  0.00  0.00    +0.000 A 
ATOM     20  C   UNL     1      44.435   3.641   9.934  0.00  0.00    +0.000 A 
ATOM     21  C   UNL     1      43.723   2.813  10.798  0.00  0.00    +0.000 A 
ATOM     22  C   UNL     1      43.728   3.115  12.147  0.00  0.00    +0.000 A 
ATOM     23  N   UNL     1      44.383   4.171  12.677  0.00  0.00    +0.000 NA
BRANCH  20  24
ATOM     24  S   UNL     1      44.558   3.243   8.204  0.00  0.00    +0.000 S 
BRANCH  24  25
ATOM     25  C   UNL     1      46.356   2.918   8.076  0.00  0.00    +0.000 C 
ATOM     26  C   UNL     1      46.865   3.243   6.648  0.00  0.00    +0.000 C 
ATOM     27  C   UNL     1      47.627   1.907   6.661  0.00  0.00    +0.000 C 
ATOM     28  C   UNL     1      46.690   1.436   7.790  0.00  0.00    +0.000 C 
ENDBRANCH  24  25
ENDBRANCH  20  24
ENDBRANCH  15  18
ENDBRANCH   1  15
TORSDOF 6
ENDMDL
