MODEL 1
REMARK VINA RESULT:    -8.075      0.000      0.000
REMARK INTER + INTRA:         -10.222
REMARK INTER:                  -9.963
REMARK INTRA:                  -0.259
REMARK UNBOUND:                -0.259
REMARK  Name = 
REMARK  5 active torsions:
REMARK  status: ('A' for Active; 'I' for Inactive)
REMARK    1  A    between atoms: C_1  and  C_2
REMARK    2  A    between atoms: C_4  and  C_5
REMARK    3  A    between atoms: C_10  and  N_11
REMARK    4  A    between atoms: N_11  and  C_12
REMARK    5  A    between atoms: C_12  and  C_13
REMARK                            x       y       z     vdW  Elec       q    Type
REMARK                         _______ _______ _______ _____ _____    ______ ____
ROOT
ATOM      1  C   UNL     1      43.918   1.957  10.062  0.00  0.00    +0.000 C 
ATOM      2  C   UNL     1      44.847   2.727   9.168  0.00  0.00    +0.000 A 
ATOM      3  C   UNL     1      45.846   2.025   8.474  0.00  0.00    +0.000 A 
ATOM      4  C   UNL     1      46.731   2.690   7.635  0.00  0.00    +0.000 A 
ATOM      5  C   UNL     1      46.565   4.063   7.528  0.00  0.00    +0.000 A 
ATOM      6  N   UNL     1      45.628   4.786   8.212  0.00  0.00    +0.000 NA
ATOM      7  C   UNL     1      44.766   4.124   9.019  0.00  0.00    +0.000 A 
ENDROOT
BRANCH   4   8
ATOM      8  C   UNL     1      47.776   1.893   6.938  0.00  0.00    +0.000 C 
ATOM      9  N   UNL     1      48.743   2.531   6.215  0.00  0.00    +0.000 N 
ATOM     10  O   UNL     1      47.784   0.671   7.009  0.00  0.00    +0.000 OA
ATOM     11  H   UNL     1      48.837   3.527   6.090  0.00  0.00    +0.000 HD
ATOM     12  H   UNL     1      49.433   1.936   5.772  0.00  0.00    +0.000 HD
ENDBRANCH   4   8
BRANCH   7  13
ATOM     13  N   UNL     1      43.814   4.827   9.800  0.00  0.00    +0.000 N 
ATOM     14  H   UNL     1      43.453   5.625   9.289  0.00  0.00    +0.000 HD
BRANCH  13  15
ATOM     15  C   UNL     1      43.952   5.003  11.261  0.00  0.00    +0.000 C 
ATOM     16  C   UNL     1      43.022   4.221  12.171  0.00  0.00    +0.000 C 
ATOM     17  C   UNL     1      42.789   5.683  11.984  0.00  0.00    +0.000 C 
BRANCH  15  18
ATOM     18  C   UNL     1      45.335   5.408  11.766  0.00  0.00    +0.000 A 
ATOM     19  C   UNL     1      45.999   6.543  11.277  0.00  0.00    +0.000 A 
ATOM     20  C   UNL     1      47.207   6.930  11.841  0.00  0.00    +0.000 A 
ATOM     21  N   UNL     1      47.804   6.273  12.855  0.00  0.00    +0.000 NA
ATOM     22  C   UNL     1      47.171   5.173  13.308  0.00  0.00    +0.000 A 
ATOM     23  C   UNL     1      45.967   4.709  12.801  0.00  0.00    +0.000 A 
ENDBRANCH  15  18
ENDBRANCH  13  15
ENDBRANCH   7  13
TORSDOF 4
ENDMDL
MODEL 2
REMARK VINA RESULT:    -7.453      1.374      1.908
REMARK INTER + INTRA:          -9.455
REMARK INTER:                  -8.795
REMARK INTRA:                  -0.660
REMARK UNBOUND:                -0.259
REMARK  Name = 
REMARK  5 active torsions:
REMARK  status: ('A' for Active; 'I' for Inactive)
REMARK    1  A    between atoms: C_1  and  C_2
REMARK    2  A    between atoms: C_4  and  C_5
REMARK    3  A    between atoms: C_10  and  N_11
REMARK    4  A    between atoms: N_11  and  C_12
REMARK    5  A    between atoms: C_12  and  C_13
REMARK                            x       y       z     vdW  Elec       q    Type
REMARK                         _______ _______ _______ _____ _____    ______ ____
ROOT
ATOM      1  C   UNL     1      46.321   5.483   8.394  0.00  0.00    +0.000 C 
ATOM      2  C   UNL     1      45.817   4.076   8.541  0.00  0.00    +0.000 A 
ATOM      3  C   UNL     1      46.548   3.036   7.944  0.00  0.00    +0.000 A 
ATOM      4  C   UNL     1      46.125   1.717   8.050  0.00  0.00    +0.000 A 
ATOM      5  C   UNL     1      44.960   1.499   8.771  0.00  0.00    +0.000 A 
ATOM      6  N   UNL     1      44.203   2.487   9.337  0.00  0.00    +0.000 NA
ATOM      7  C   UNL     1      44.632   3.766   9.234  0.00  0.00    +0.000 A 
ENDROOT
BRANCH   4   8
ATOM      8  C   UNL     1      46.935   0.661   7.384  0.00  0.00    +0.000 C 
ATOM      9  N   UNL     1      46.697  -0.654   7.669  0.00  0.00    +0.000 N 
ATOM     10  O   UNL     1      47.809   0.955   6.579  0.00  0.00    +0.000 OA
ATOM     11  H   UNL     1      46.006  -1.011   8.309  0.00  0.00    +0.000 HD
ATOM     12  H   UNL     1      47.273  -1.326   7.177  0.00  0.00    +0.000 HD
ENDBRANCH   4   8
BRANCH   7  13
ATOM     13  N   UNL     1      43.857   4.837   9.748  0.00  0.00    +0.000 N 
ATOM     14  H   UNL     1      43.873   5.626   9.112  0.00  0.00    +0.000 HD
BRANCH  13  15
ATOM     15  C   UNL     1      43.808   5.167  11.188  0.00  0.00    +0.000 C 
ATOM     16  C   UNL     1      42.518   4.901  11.944  0.00  0.00    +0.000 C 
ATOM     17  C   UNL     1      42.877   6.308  11.599  0.00  0.00    +0.000 C 
BRANCH  15  18
ATOM     18  C   UNL     1      45.139   5.135  11.935  0.00  0.00    +0.000 A 
ATOM     19  C   UNL     1      46.085   6.163  11.807  0.00  0.00    +0.000 A 
ATOM     20  C   UNL     1      47.233   6.142  12.587  0.00  0.00    +0.000 A 
ATOM     21  N   UNL     1      47.512   5.175  13.484  0.00  0.00    +0.000 NA
ATOM     22  C   UNL     1      46.608   4.181  13.590  0.00  0.00    +0.000 A 
ATOM     23  C   UNL     1      45.439   4.116  12.847  0.00  0.00    +0.000 A 
ENDBRANCH  15  18
ENDBRANCH  13  15
ENDBRANCH   7  13
TORSDOF 4
ENDMDL
MODEL 3
REMARK VINA RESULT:    -6.965      1.773      2.366
REMARK INTER + INTRA:          -8.853
REMARK INTER:                  -8.282
REMARK INTRA:                  -0.571
REMARK UNBOUND:                -0.259
REMARK  Name = 
REMARK  5 active torsions:
REMARK  status: ('A' for Active; 'I' for Inactive)
REMARK    1  A    between atoms: C_1  and  C_2
REMARK    2  A    between atoms: C_4  and  C_5
REMARK    3  A    between atoms: C_10  and  N_11
REMARK    4  A    between atoms: N_11  and  C_12
REMARK    5  A    between atoms: C_12  and  C_13
REMARK                            x       y       z     vdW  Elec       q    Type
REMARK                         _______ _______ _______ _____ _____    ______ ____
ROOT
ATOM      1  C   UNL     1      43.863   2.582  10.638  0.00  0.00    +0.000 C 
ATOM      2  C   UNL     1      44.784   3.206   9.630  0.00  0.00    +0.000 A 
ATOM      3  C   UNL     1      45.453   2.368   8.724  0.00  0.00    +0.000 A 
ATOM      4  C   UNL     1      46.317   2.896   7.771  0.00  0.00    +0.000 A 
ATOM      5  C   UNL     1      46.469   4.274   7.774  0.00  0.00    +0.000 A 
ATOM      6  N   UNL     1      45.862   5.119   8.661  0.00  0.00    +0.000 NA
ATOM      7  C   UNL     1      45.016   4.593   9.577  0.00  0.00    +0.000 A 
ENDROOT
BRANCH   4   8
ATOM      8  C   UNL     1      47.007   1.955   6.848  0.00  0.00    +0.000 C 
ATOM      9  N   UNL     1      47.190   0.654   7.222  0.00  0.00    +0.000 N 
ATOM     10  O   UNL     1      47.409   2.330   5.754  0.00  0.00    +0.000 OA
ATOM     11  H   UNL     1      46.901   0.235   8.092  0.00  0.00    +0.000 HD
ATOM     12  H   UNL     1      47.657   0.059   6.549  0.00  0.00    +0.000 HD
ENDBRANCH   4   8
BRANCH   7  13
ATOM     13  N   UNL     1      44.406   5.413  10.560  0.00  0.00    +0.000 N 
ATOM     14  H   UNL     1      43.778   6.081  10.128  0.00  0.00    +0.000 HD
BRANCH  13  15
ATOM     15  C   UNL     1      45.124   5.885  11.763  0.00  0.00    +0.000 C 
ATOM     16  C   UNL     1      46.034   4.909  12.487  0.00  0.00    +0.000 C 
ATOM     17  C   UNL     1      44.717   5.255  13.096  0.00  0.00    +0.000 C 
BRANCH  15  18
ATOM     18  C   UNL     1      45.416   7.382  11.833  0.00  0.00    +0.000 A 
ATOM     19  C   UNL     1      46.667   7.875  12.235  0.00  0.00    +0.000 A 
ATOM     20  C   UNL     1      46.918   9.239  12.182  0.00  0.00    +0.000 A 
ATOM     21  N   UNL     1      46.019  10.150  11.761  0.00  0.00    +0.000 NA
ATOM     22  C   UNL     1      44.813   9.673  11.393  0.00  0.00    +0.000 A 
ATOM     23  C   UNL     1      44.472   8.329  11.420  0.00  0.00    +0.000 A 
ENDBRANCH  15  18
ENDBRANCH  13  15
ENDBRANCH   7  13
TORSDOF 4
ENDMDL
MODEL 4
REMARK VINA RESULT:    -6.163      2.961      5.685
REMARK INTER + INTRA:          -7.863
REMARK INTER:                  -7.641
REMARK INTRA:                  -0.222
REMARK UNBOUND:                -0.259
REMARK  Name = 
REMARK  5 active torsions:
REMARK  status: ('A' for Active; 'I' for Inactive)
REMARK    1  A    between atoms: C_1  and  C_2
REMARK    2  A    between atoms: C_4  and  C_5
REMARK    3  A    between atoms: C_10  and  N_11
REMARK    4  A    between atoms: N_11  and  C_12
REMARK    5  A    between atoms: C_12  and  C_13
REMARK                            x       y       z     vdW  Elec       q    Type
REMARK                         _______ _______ _______ _____ _____    ______ ____
ROOT
ATOM      1  C   UNL     1      46.841   4.396  14.807  0.00  0.00    +0.000 C 
ATOM      2  C   UNL     1      47.136   5.418  13.748  0.00  0.00    +0.000 A 
ATOM      3  C   UNL     1      48.303   6.190  13.867  0.00  0.00    +0.000 A 
ATOM      4  C   UNL     1      48.622   7.149  12.915  0.00  0.00    +0.000 A 
ATOM      5  C   UNL     1      47.733   7.290  11.860  0.00  0.00    +0.000 A 
ATOM      6  N   UNL     1      46.571   6.583  11.727  0.00  0.00    +0.000 NA
ATOM      7  C   UNL     1      46.277   5.645  12.657  0.00  0.00    +0.000 A 
ENDROOT
BRANCH   4   8
ATOM      8  C   UNL     1      49.866   7.945  13.104  0.00  0.00    +0.000 C 
ATOM      9  N   UNL     1      50.930   7.743  12.272  0.00  0.00    +0.000 N 
ATOM     10  O   UNL     1      49.946   8.782  13.994  0.00  0.00    +0.000 OA
ATOM     11  H   UNL     1      50.977   7.087  11.509  0.00  0.00    +0.000 HD
ATOM     12  H   UNL     1      51.744   8.320  12.444  0.00  0.00    +0.000 HD
ENDBRANCH   4   8
BRANCH   7  13
ATOM     13  N   UNL     1      45.057   4.924  12.603  0.00  0.00    +0.000 N 
ATOM     14  H   UNL     1      45.152   4.026  13.064  0.00  0.00    +0.000 HD
BRANCH  13  15
ATOM     15  C   UNL     1      44.162   4.957  11.428  0.00  0.00    +0.000 C 
ATOM     16  C   UNL     1      43.290   6.182  11.220  0.00  0.00    +0.000 C 
ATOM     17  C   UNL     1      42.659   4.922  11.708  0.00  0.00    +0.000 C 
BRANCH  15  18
ATOM     18  C   UNL     1      44.599   4.131  10.220  0.00  0.00    +0.000 A 
ATOM     19  C   UNL     1      45.251   4.711   9.122  0.00  0.00    +0.000 A 
ATOM     20  C   UNL     1      45.723   3.904   8.097  0.00  0.00    +0.000 A 
ATOM     21  N   UNL     1      45.595   2.562   8.081  0.00  0.00    +0.000 NA
ATOM     22  C   UNL     1      44.952   2.011   9.130  0.00  0.00    +0.000 A 
ATOM     23  C   UNL     1      44.442   2.740  10.193  0.00  0.00    +0.000 A 
ENDBRANCH  15  18
ENDBRANCH  13  15
ENDBRANCH   7  13
TORSDOF 4
ENDMDL
MODEL 5
REMARK VINA RESULT:    -5.810      4.121      7.514
REMARK INTER + INTRA:          -7.428
REMARK INTER:                  -7.338
REMARK INTRA:                  -0.090
REMARK UNBOUND:                -0.259
REMARK  Name = 
REMARK  5 active torsions:
REMARK  status: ('A' for Active; 'I' for Inactive)
REMARK    1  A    between atoms: C_1  and  C_2
REMARK    2  A    between atoms: C_4  and  C_5
REMARK    3  A    between atoms: C_10  and  N_11
REMARK    4  A    between atoms: N_11  and  C_12
REMARK    5  A    between atoms: C_12  and  C_13
REMARK                            x       y       z     vdW  Elec       q    Type
REMARK                         _______ _______ _______ _____ _____    ______ ____
ROOT
ATOM      1  C   UNL     1      48.905   7.386  14.588  0.00  0.00    +0.000 C 
ATOM      2  C   UNL     1      48.317   6.137  15.179  0.00  0.00    +0.000 A 
ATOM      3  C   UNL     1      48.516   5.883  16.545  0.00  0.00    +0.000 A 
ATOM      4  C   UNL     1      47.993   4.743  17.141  0.00  0.00    +0.000 A 
ATOM      5  C   UNL     1      47.274   3.891  16.315  0.00  0.00    +0.000 A 
ATOM      6  N   UNL     1      47.087   4.086  14.975  0.00  0.00    +0.000 NA
ATOM      7  C   UNL     1      47.594   5.206  14.410  0.00  0.00    +0.000 A 
ENDROOT
BRANCH   4   8
ATOM      8  C   UNL     1      48.251   4.523  18.590  0.00  0.00    +0.000 C 
ATOM      9  N   UNL     1      48.411   3.251  19.062  0.00  0.00    +0.000 N 
ATOM     10  O   UNL     1      48.326   5.467  19.365  0.00  0.00    +0.000 OA
ATOM     11  H   UNL     1      48.372   2.402  18.520  0.00  0.00    +0.000 HD
ATOM     12  H   UNL     1      48.594   3.165  20.054  0.00  0.00    +0.000 HD
ENDBRANCH   4   8
BRANCH   7  13
ATOM     13  N   UNL     1      47.484   5.431  13.014  0.00  0.00    +0.000 N 
ATOM     14  H   UNL     1      48.335   5.844  12.651  0.00  0.00    +0.000 HD
BRANCH  13  15
ATOM     15  C   UNL     1      46.227   5.870  12.374  0.00  0.00    +0.000 C 
ATOM     16  C   UNL     1      46.216   7.202  11.645  0.00  0.00    +0.000 C 
ATOM     17  C   UNL     1      45.543   7.100  12.973  0.00  0.00    +0.000 C 
BRANCH  15  18
ATOM     18  C   UNL     1      45.268   4.765  11.935  0.00  0.00    +0.000 A 
ATOM     19  C   UNL     1      44.446   4.091  12.850  0.00  0.00    +0.000 A 
ATOM     20  C   UNL     1      43.517   3.168  12.390  0.00  0.00    +0.000 A 
ATOM     21  N   UNL     1      43.345   2.864  11.088  0.00  0.00    +0.000 NA
ATOM     22  C   UNL     1      44.150   3.501  10.215  0.00  0.00    +0.000 A 
ATOM     23  C   UNL     1      45.110   4.431  10.585  0.00  0.00    +0.000 A 
ENDBRANCH  15  18
ENDBRANCH  13  15
ENDBRANCH   7  13
TORSDOF 4
ENDMDL
MODEL 6
REMARK VINA RESULT:    -5.773      3.795      6.034
REMARK INTER + INTRA:          -7.382
REMARK INTER:                  -6.764
REMARK INTRA:                  -0.618
REMARK UNBOUND:                -0.259
REMARK  Name = 
REMARK  5 active torsions:
REMARK  status: ('A' for Active; 'I' for Inactive)
REMARK    1  A    between atoms: C_1  and  C_2
REMARK    2  A    between atoms: C_4  and  C_5
REMARK    3  A    between atoms: C_10  and  N_11
REMARK    4  A    between atoms: N_11  and  C_12
REMARK    5  A    between atoms: C_12  and  C_13
REMARK                            x       y       z     vdW  Elec       q    Type
REMARK                         _______ _______ _______ _____ _____    ______ ____
ROOT
ATOM      1  C   UNL     1      46.947   4.667  14.658  0.00  0.00    +0.000 C 
ATOM      2  C   UNL     1      46.356   5.254  13.408  0.00  0.00    +0.000 A 
ATOM      3  C   UNL     1      45.023   4.950  13.090  0.00  0.00    +0.000 A 
ATOM      4  C   UNL     1      44.429   5.468  11.946  0.00  0.00    +0.000 A 
ATOM      5  C   UNL     1      45.222   6.287  11.156  0.00  0.00    +0.000 A 
ATOM      6  N   UNL     1      46.532   6.578  11.414  0.00  0.00    +0.000 NA
ATOM      7  C   UNL     1      47.095   6.076  12.537  0.00  0.00    +0.000 A 
ENDROOT
BRANCH   4   8
ATOM      8  C   UNL     1      43.017   5.098  11.656  0.00  0.00    +0.000 C 
ATOM      9  N   UNL     1      42.036   6.043  11.758  0.00  0.00    +0.000 N 
ATOM     10  O   UNL     1      42.722   3.958  11.322  0.00  0.00    +0.000 OA
ATOM     11  H   UNL     1      42.160   7.007  12.021  0.00  0.00    +0.000 HD
ATOM     12  H   UNL     1      41.097   5.734  11.540  0.00  0.00    +0.000 HD
ENDBRANCH   4   8
BRANCH   7  13
ATOM     13  N   UNL     1      48.467   6.294  12.824  0.00  0.00    +0.000 N 
ATOM     14  H   UNL     1      48.869   5.485  13.281  0.00  0.00    +0.000 HD
BRANCH  13  15
ATOM     15  C   UNL     1      48.993   7.608  13.251  0.00  0.00    +0.000 C 
ATOM     16  C   UNL     1      48.937   8.762  12.267  0.00  0.00    +0.000 C 
ATOM     17  C   UNL     1      50.250   8.109  12.539  0.00  0.00    +0.000 C 
BRANCH  15  18
ATOM     18  C   UNL     1      48.960   7.894  14.751  0.00  0.00    +0.000 A 
ATOM     19  C   UNL     1      48.288   9.007  15.278  0.00  0.00    +0.000 A 
ATOM     20  C   UNL     1      48.196   9.168  16.653  0.00  0.00    +0.000 A 
ATOM     21  N   UNL     1      48.724   8.306  17.545  0.00  0.00    +0.000 NA
ATOM     22  C   UNL     1      49.384   7.248  17.033  0.00  0.00    +0.000 A 
ATOM     23  C   UNL     1      49.531   7.011  15.675  0.00  0.00    +0.000 A 
ENDBRANCH  15  18
ENDBRANCH  13  15
ENDBRANCH   7  13
TORSDOF 4
ENDMDL
MODEL 7
REMARK VINA RESULT:    -5.696      3.264      5.439
REMARK INTER + INTRA:          -7.287
REMARK INTER:                  -6.928
REMARK INTRA:                  -0.360
REMARK UNBOUND:                -0.259
REMARK  Name = 
REMARK  5 active torsions:
REMARK  status: ('A' for Active; 'I' for Inactive)
REMARK    1  A    between atoms: C_1  and  C_2
REMARK    2  A    between atoms: C_4  and  C_5
REMARK    3  A    between atoms: C_10  and  N_11
REMARK    4  A    between atoms: N_11  and  C_12
REMARK    5  A    between atoms: C_12  and  C_13
REMARK                            x       y       z     vdW  Elec       q    Type
REMARK                         _______ _______ _______ _____ _____    ______ ____
ROOT
ATOM      1  C   UNL     1      44.534   7.813  11.344  0.00  0.00    +0.000 C 
ATOM      2  C   UNL     1      44.938   6.460  11.857  0.00  0.00    +0.000 A 
ATOM      3  C   UNL     1      44.341   5.322  11.290  0.00  0.00    +0.000 A 
ATOM      4  C   UNL     1      44.679   4.048  11.728  0.00  0.00    +0.000 A 
ATOM      5  C   UNL     1      45.626   3.976  12.739  0.00  0.00    +0.000 A 
ATOM      6  N   UNL     1      46.204   5.060  13.339  0.00  0.00    +0.000 NA
ATOM      7  C   UNL     1      45.872   6.295  12.896  0.00  0.00    +0.000 A 
ENDROOT
BRANCH   4   8
ATOM      8  C   UNL     1      44.002   2.883  11.098  0.00  0.00    +0.000 C 
ATOM      9  N   UNL     1      44.563   2.284  10.006  0.00  0.00    +0.000 N 
ATOM     10  O   UNL     1      42.949   2.450  11.548  0.00  0.00    +0.000 OA
ATOM     11  H   UNL     1      45.423   2.551   9.554  0.00  0.00    +0.000 HD
ATOM     12  H   UNL     1      44.062   1.491   9.628  0.00  0.00    +0.000 HD
ENDBRANCH   4   8
BRANCH   7  13
ATOM     13  N   UNL     1      46.393   7.456  13.520  0.00  0.00    +0.000 N 
ATOM     14  H   UNL     1      45.678   8.170  13.599  0.00  0.00    +0.000 HD
BRANCH  13  15
ATOM     15  C   UNL     1      47.769   7.941  13.283  0.00  0.00    +0.000 C 
ATOM     16  C   UNL     1      48.912   6.948  13.393  0.00  0.00    +0.000 C 
ATOM     17  C   UNL     1      48.713   7.944  14.486  0.00  0.00    +0.000 C 
BRANCH  15  18
ATOM     18  C   UNL     1      47.911   9.153  12.365  0.00  0.00    +0.000 A 
ATOM     19  C   UNL     1      46.922  10.146  12.290  0.00  0.00    +0.000 A 
ATOM     20  C   UNL     1      47.143  11.280  11.521  0.00  0.00    +0.000 A 
ATOM     21  N   UNL     1      48.273  11.501  10.820  0.00  0.00    +0.000 NA
ATOM     22  C   UNL     1      49.211  10.536  10.881  0.00  0.00    +0.000 A 
ATOM     23  C   UNL     1      49.074   9.369  11.616  0.00  0.00    +0.000 A 
ENDBRANCH  15  18
ENDBRANCH  13  15
ENDBRANCH   7  13
TORSDOF 4
ENDMDL
MODEL 8
REMARK VINA RESULT:    -5.602      3.222      5.404
REMARK INTER + INTRA:          -7.171
REMARK INTER:                  -7.175
REMARK INTRA:                   0.003
REMARK UNBOUND:                -0.259
REMARK  Name = 
REMARK  5 active torsions:
REMARK  status: ('A' for Active; 'I' for Inactive)
REMARK    1  A    between atoms: C_1  and  C_2
REMARK    2  A    between atoms: C_4  and  C_5
REMARK    3  A    between atoms: C_10  and  N_11
REMARK    4  A    between atoms: N_11  and  C_12
REMARK    5  A    between atoms: C_12  and  C_13
REMARK                            x       y       z     vdW  Elec       q    Type
REMARK                         _______ _______ _______ _____ _____    ______ ____
ROOT
ATOM      1  C   UNL     1      44.928   7.746  11.472  0.00  0.00    +0.000 C 
ATOM      2  C   UNL     1      45.216   6.348  11.940  0.00  0.00    +0.000 A 
ATOM      3  C   UNL     1      44.540   5.282  11.325  0.00  0.00    +0.000 A 
ATOM      4  C   UNL     1      44.770   3.970  11.721  0.00  0.00    +0.000 A 
ATOM      5  C   UNL     1      45.694   3.788  12.739  0.00  0.00    +0.000 A 
ATOM      6  N   UNL     1      46.347   4.800  13.384  0.00  0.00    +0.000 NA
ATOM      7  C   UNL     1      46.120   6.072  12.982  0.00  0.00    +0.000 A 
ENDROOT
BRANCH   4   8
ATOM      8  C   UNL     1      44.012   2.886  11.041  0.00  0.00    +0.000 C 
ATOM      9  N   UNL     1      44.545   2.276   9.941  0.00  0.00    +0.000 N 
ATOM     10  O   UNL     1      42.918   2.528  11.458  0.00  0.00    +0.000 OA
ATOM     11  H   UNL     1      45.433   2.484   9.513  0.00  0.00    +0.000 HD
ATOM     12  H   UNL     1      43.987   1.539   9.528  0.00  0.00    +0.000 HD
ENDBRANCH   4   8
BRANCH   7  13
ATOM     13  N   UNL     1      46.722   7.166  13.654  0.00  0.00    +0.000 N 
ATOM     14  H   UNL     1      46.088   7.956  13.690  0.00  0.00    +0.000 HD
BRANCH  13  15
ATOM     15  C   UNL     1      48.157   7.494  13.520  0.00  0.00    +0.000 C 
ATOM     16  C   UNL     1      48.546   8.689  12.668  0.00  0.00    +0.000 C 
ATOM     17  C   UNL     1      48.775   7.315  12.132  0.00  0.00    +0.000 C 
BRANCH  15  18
ATOM     18  C   UNL     1      49.061   7.066  14.674  0.00  0.00    +0.000 A 
ATOM     19  C   UNL     1      50.373   7.545  14.805  0.00  0.00    +0.000 A 
ATOM     20  C   UNL     1      51.118   7.210  15.927  0.00  0.00    +0.000 A 
ATOM     21  N   UNL     1      50.657   6.434  16.928  0.00  0.00    +0.000 NA
ATOM     22  C   UNL     1      49.403   5.962  16.788  0.00  0.00    +0.000 A 
ATOM     23  C   UNL     1      48.589   6.238  15.700  0.00  0.00    +0.000 A 
ENDBRANCH  15  18
ENDBRANCH  13  15
ENDBRANCH   7  13
TORSDOF 4
ENDMDL
