MODEL 1
REMARK VINA RESULT:    -8.009      0.000      0.000
REMARK INTER + INTRA:         -12.331
REMARK INTER:                 -11.286
REMARK INTRA:                  -1.044
REMARK UNBOUND:                -1.044
REMARK  Name = 
REMARK  8 active torsions:
REMARK  status: ('A' for Active; 'I' for Inactive)
REMARK    1  A    between atoms: C_1  and  C_2
REMARK    2  A    between atoms: C_2  and  N_3
REMARK    3  A    between atoms: N_3  and  C_4
REMARK    4  A    between atoms: C_4  and  C_5
REMARK    5  A    between atoms: C_8  and  C_9
REMARK    6  A    between atoms: C_9  and  N_10
REMARK    7  A    between atoms: C_11  and  C_13
REMARK    8  A    between atoms: C_20  and  C_22
REMARK                            x       y       z     vdW  Elec       q    Type
REMARK                         _______ _______ _______ _____ _____    ______ ____
ROOT
ATOM      1  C   UNL     1      47.492   6.125  12.503  0.00  0.00    +0.000 C 
ENDROOT
BRANCH   1   2
ATOM      2  C   UNL     1      47.528   5.655  13.936  0.00  0.00    +0.000 A 
ATOM      3  C   UNL     1      48.348   6.294  14.879  0.00  0.00    +0.000 A 
ATOM      4  C   UNL     1      48.480   5.777  16.170  0.00  0.00    +0.000 A 
ATOM      5  C   UNL     1      47.802   4.607  16.532  0.00  0.00    +0.000 A 
ATOM      6  C   UNL     1      46.905   4.031  15.622  0.00  0.00    +0.000 A 
ATOM      7  C   UNL     1      46.773   4.546  14.333  0.00  0.00    +0.000 A 
BRANCH   5   8
ATOM      8  C   UNL     1      48.095   3.923  17.837  0.00  0.00    +0.000 C 
BRANCH   8   9
ATOM      9  N   UNL     1      49.446   3.459  17.962  0.00  0.00    +0.000 N 
ATOM     10  C   UNL     1      49.892   2.415  17.181  0.00  0.00    +0.000 C 
ATOM     11  O   UNL     1      49.174   1.829  16.376  0.00  0.00    +0.000 OA
ATOM     12  H   UNL     1      50.112   3.905  18.583  0.00  0.00    +0.000 HD
BRANCH  10  13
ATOM     13  C   UNL     1      51.284   2.075  17.382  0.00  0.00    +0.000 A 
ATOM     14  N   UNL     1      52.232   2.911  17.765  0.00  0.00    +0.000 NA
ATOM     15  C   UNL     1      53.381   2.158  17.818  0.00  0.00    +0.000 A 
ATOM     16  C   UNL     1      53.131   0.855  17.461  0.00  0.00    +0.000 A 
ATOM     17  N   UNL     1      51.791   0.815  17.191  0.00  0.00    +0.000 N 
ATOM     18  H   UNL     1      51.244   0.016  16.896  0.00  0.00    +0.000 HD
ENDBRANCH  10  13
ENDBRANCH   8   9
ENDBRANCH   5   8
ENDBRANCH   1   2
BRANCH   1  19
ATOM     19  N   UNL     1      46.536   7.196  12.173  0.00  0.00    +0.000 N 
ATOM     20  C   UNL     1      45.215   6.954  11.749  0.00  0.00    +0.000 C 
ATOM     21  O   UNL     1      44.448   7.875  11.477  0.00  0.00    +0.000 OA
BRANCH  20  22
ATOM     22  C   UNL     1      44.731   5.571  11.675  0.00  0.00    +0.000 A 
ATOM     23  C   UNL     1      43.939   4.972  12.642  0.00  0.00    +0.000 A 
ATOM     24  S   UNL     1      43.487   3.372  12.255  0.00  0.00    +0.000 S 
ATOM     25  C   UNL     1      44.210   3.484  10.719  0.00  0.00    +0.000 A 
ATOM     26  N   UNL     1      44.102   2.471   9.819  0.00  0.00    +0.000 NA
ATOM     27  C   UNL     1      44.633   2.728   8.671  0.00  0.00    +0.000 A 
ATOM     28  N   UNL     1      45.290   3.891   8.352  0.00  0.00    +0.000 N 
ATOM     29  C   UNL     1      45.537   4.889   9.271  0.00  0.00    +0.000 A 
ATOM     30  O   UNL     1      46.312   5.803   9.019  0.00  0.00    +0.000 OA
ATOM     31  C   UNL     1      44.861   4.691  10.540  0.00  0.00    +0.000 A 
ATOM     32  H   UNL     1      45.734   4.002   7.453  0.00  0.00    +0.000 HD
ENDBRANCH  20  22
BRANCH  19  34
ATOM     33  C   UNL     1      48.356   8.883  11.987  0.00  0.00    +0.000 C 
ATOM     34  C   UNL     1      46.910   8.602  12.376  0.00  0.00    +0.000 C 
ENDBRANCH  19  34
ENDBRANCH   1  19
TORSDOF 7
ENDMDL
MODEL 2
REMARK VINA RESULT:    -7.720      3.389      7.990
REMARK INTER + INTRA:         -11.923
REMARK INTER:                 -10.424
REMARK INTRA:                  -1.499
REMARK UNBOUND:                -1.044
REMARK  Name = 
REMARK  8 active torsions:
REMARK  status: ('A' for Active; 'I' for Inactive)
REMARK    1  A    between atoms: C_1  and  C_2
REMARK    2  A    between atoms: C_2  and  N_3
REMARK    3  A    between atoms: N_3  and  C_4
REMARK    4  A    between atoms: C_4  and  C_5
REMARK    5  A    between atoms: C_8  and  C_9
REMARK    6  A    between atoms: C_9  and  N_10
REMARK    7  A    between atoms: C_11  and  C_13
REMARK    8  A    between atoms: C_20  and  C_22
REMARK                            x       y       z     vdW  Elec       q    Type
REMARK                         _______ _______ _______ _____ _____    ______ ____
ROOT
ATOM      1  C   UNL     1      47.384   7.797  13.749  0.00  0.00    +0.000 C 
ENDROOT
BRANCH   1   2
ATOM      2  C   UNL     1      46.466   6.689  13.295  0.00  0.00    +0.000 A 
ATOM      3  C   UNL     1      46.694   5.363  13.690  0.00  0.00    +0.000 A 
ATOM      4  C   UNL     1      45.924   4.323  13.164  0.00  0.00    +0.000 A 
ATOM      5  C   UNL     1      44.921   4.597  12.226  0.00  0.00    +0.000 A 
ATOM      6  C   UNL     1      44.628   5.931  11.912  0.00  0.00    +0.000 A 
ATOM      7  C   UNL     1      45.397   6.968  12.437  0.00  0.00    +0.000 A 
BRANCH   5   8
ATOM      8  C   UNL     1      44.230   3.481  11.494  0.00  0.00    +0.000 C 
BRANCH   8   9
ATOM      9  N   UNL     1      45.060   2.808  10.538  0.00  0.00    +0.000 N 
ATOM     10  C   UNL     1      44.999   3.154   9.206  0.00  0.00    +0.000 C 
ATOM     11  O   UNL     1      44.238   4.016   8.774  0.00  0.00    +0.000 OA
ATOM     12  H   UNL     1      45.735   2.103  10.814  0.00  0.00    +0.000 HD
BRANCH  10  13
ATOM     13  C   UNL     1      45.915   2.423   8.358  0.00  0.00    +0.000 A 
ATOM     14  N   UNL     1      46.087   1.113   8.362  0.00  0.00    +0.000 NA
ATOM     15  C   UNL     1      47.046   0.869   7.409  0.00  0.00    +0.000 A 
ATOM     16  C   UNL     1      47.465   2.041   6.824  0.00  0.00    +0.000 A 
ATOM     17  N   UNL     1      46.734   3.020   7.434  0.00  0.00    +0.000 N 
ATOM     18  H   UNL     1      46.770   4.018   7.261  0.00  0.00    +0.000 HD
ENDBRANCH  10  13
ENDBRANCH   8   9
ENDBRANCH   5   8
ENDBRANCH   1   2
BRANCH   1  19
ATOM     19  N   UNL     1      48.832   7.533  13.689  0.00  0.00    +0.000 N 
ATOM     20  C   UNL     1      49.688   7.646  14.802  0.00  0.00    +0.000 C 
ATOM     21  O   UNL     1      50.894   7.423  14.711  0.00  0.00    +0.000 OA
BRANCH  20  22
ATOM     22  C   UNL     1      49.119   7.992  16.109  0.00  0.00    +0.000 A 
ATOM     23  C   UNL     1      48.891   9.288  16.540  0.00  0.00    +0.000 A 
ATOM     24  S   UNL     1      48.170   9.375  18.084  0.00  0.00    +0.000 S 
ATOM     25  C   UNL     1      48.004   7.684  18.159  0.00  0.00    +0.000 A 
ATOM     26  N   UNL     1      47.362   7.089  19.199  0.00  0.00    +0.000 NA
ATOM     27  C   UNL     1      47.245   5.808  19.083  0.00  0.00    +0.000 A 
ATOM     28  N   UNL     1      47.740   5.066  18.039  0.00  0.00    +0.000 N 
ATOM     29  C   UNL     1      48.509   5.610  17.031  0.00  0.00    +0.000 A 
ATOM     30  O   UNL     1      49.118   4.894  16.245  0.00  0.00    +0.000 OA
ATOM     31  C   UNL     1      48.570   7.060  17.063  0.00  0.00    +0.000 A 
ATOM     32  H   UNL     1      47.666   4.060  18.040  0.00  0.00    +0.000 HD
ENDBRANCH  20  22
BRANCH  19  34
ATOM     33  C   UNL     1      49.328   8.032  11.302  0.00  0.00    +0.000 C 
ATOM     34  C   UNL     1      49.436   7.034  12.447  0.00  0.00    +0.000 C 
ENDBRANCH  19  34
ENDBRANCH   1  19
TORSDOF 7
ENDMDL
MODEL 3
REMARK VINA RESULT:    -7.256      2.662      8.136
REMARK INTER + INTRA:         -11.269
REMARK INTER:                  -9.897
REMARK INTRA:                  -1.372
REMARK UNBOUND:                -1.044
REMARK  Name = 
REMARK  8 active torsions:
REMARK  status: ('A' for Active; 'I' for Inactive)
REMARK    1  A    between atoms: C_1  and  C_2
REMARK    2  A    between atoms: C_2  and  N_3
REMARK    3  A    between atoms: N_3  and  C_4
REMARK    4  A    between atoms: C_4  and  C_5
REMARK    5  A    between atoms: C_8  and  C_9
REMARK    6  A    between atoms: C_9  and  N_10
REMARK    7  A    between atoms: C_11  and  C_13
REMARK    8  A    between atoms: C_20  and  C_22
REMARK                            x       y       z     vdW  Elec       q    Type
REMARK                         _______ _______ _______ _____ _____    ______ ____
ROOT
ATOM      1  C   UNL     1      48.870   6.639  14.682  0.00  0.00    +0.000 C 
ENDROOT
BRANCH   1   2
ATOM      2  C   UNL     1      47.672   6.418  13.793  0.00  0.00    +0.000 A 
ATOM      3  C   UNL     1      47.009   5.182  13.780  0.00  0.00    +0.000 A 
ATOM      4  C   UNL     1      45.984   4.936  12.862  0.00  0.00    +0.000 A 
ATOM      5  C   UNL     1      45.617   5.922  11.939  0.00  0.00    +0.000 A 
ATOM      6  C   UNL     1      46.209   7.189  12.023  0.00  0.00    +0.000 A 
ATOM      7  C   UNL     1      47.232   7.434  12.938  0.00  0.00    +0.000 A 
BRANCH   5   8
ATOM      8  C   UNL     1      44.672   5.605  10.814  0.00  0.00    +0.000 C 
BRANCH   8   9
ATOM      9  N   UNL     1      45.306   5.034   9.662  0.00  0.00    +0.000 N 
ATOM     10  C   UNL     1      45.264   3.673   9.455  0.00  0.00    +0.000 C 
ATOM     11  O   UNL     1      44.715   2.895  10.232  0.00  0.00    +0.000 OA
ATOM     12  H   UNL     1      45.758   5.607   8.957  0.00  0.00    +0.000 HD
BRANCH  10  13
ATOM     13  C   UNL     1      45.911   3.236   8.237  0.00  0.00    +0.000 A 
ATOM     14  N   UNL     1      46.154   3.993   7.182  0.00  0.00    +0.000 NA
ATOM     15  C   UNL     1      46.772   3.166   6.275  0.00  0.00    +0.000 A 
ATOM     16  C   UNL     1      46.901   1.893   6.780  0.00  0.00    +0.000 A 
ATOM     17  N   UNL     1      46.353   1.955   8.031  0.00  0.00    +0.000 N 
ATOM     18  H   UNL     1      46.270   1.204   8.707  0.00  0.00    +0.000 HD
ENDBRANCH  10  13
ENDBRANCH   8   9
ENDBRANCH   5   8
ENDBRANCH   1   2
BRANCH   1  19
ATOM     19  N   UNL     1      48.665   7.453  15.893  0.00  0.00    +0.000 N 
ATOM     20  C   UNL     1      48.432   6.903  17.168  0.00  0.00    +0.000 C 
ATOM     21  O   UNL     1      48.259   7.616  18.155  0.00  0.00    +0.000 OA
BRANCH  20  22
ATOM     22  C   UNL     1      48.442   5.445  17.329  0.00  0.00    +0.000 A 
ATOM     23  C   UNL     1      47.317   4.643  17.229  0.00  0.00    +0.000 A 
ATOM     24  S   UNL     1      47.648   2.979  17.410  0.00  0.00    +0.000 S 
ATOM     25  C   UNL     1      49.323   3.267  17.479  0.00  0.00    +0.000 A 
ATOM     26  N   UNL     1      50.209   2.237  17.534  0.00  0.00    +0.000 NA
ATOM     27  C   UNL     1      51.447   2.605  17.503  0.00  0.00    +0.000 A 
ATOM     28  N   UNL     1      51.878   3.908  17.456  0.00  0.00    +0.000 N 
ATOM     29  C   UNL     1      51.019   4.985  17.530  0.00  0.00    +0.000 A 
ATOM     30  O   UNL     1      51.444   6.120  17.711  0.00  0.00    +0.000 OA
ATOM     31  C   UNL     1      49.617   4.618  17.452  0.00  0.00    +0.000 A 
ATOM     32  H   UNL     1      52.861   4.127  17.494  0.00  0.00    +0.000 HD
ENDBRANCH  20  22
BRANCH  19  34
ATOM     33  C   UNL     1      49.887   9.359  14.858  0.00  0.00    +0.000 C 
ATOM     34  C   UNL     1      48.797   8.914  15.826  0.00  0.00    +0.000 C 
ENDBRANCH  19  34
ENDBRANCH   1  19
TORSDOF 7
ENDMDL
MODEL 4
REMARK VINA RESULT:    -7.046      3.033      8.113
REMARK INTER + INTRA:         -10.974
REMARK INTER:                  -9.497
REMARK INTRA:                  -1.477
REMARK UNBOUND:                -1.044
REMARK  Name = 
REMARK  8 active torsions:
REMARK  status: ('A' for Active; 'I' for Inactive)
REMARK    1  A    between atoms: C_1  and  C_2
REMARK    2  A    between atoms: C_2  and  N_3
REMARK    3  A    between atoms: N_3  and  C_4
REMARK    4  A    between atoms: C_4  and  C_5
REMARK    5  A    between atoms: C_8  and  C_9
REMARK    6  A    between atoms: C_9  and  N_10
REMARK    7  A    between atoms: C_11  and  C_13
REMARK    8  A    between atoms: C_20  and  C_22
REMARK                            x       y       z     vdW  Elec       q    Type
REMARK                         _______ _______ _______ _____ _____    ______ ____
ROOT
ATOM      1  C   UNL     1      49.296   8.055  15.831  0.00  0.00    +0.000 C 
ENDROOT
BRANCH   1   2
ATOM      2  C   UNL     1      48.376   7.799  14.663  0.00  0.00    +0.000 A 
ATOM      3  C   UNL     1      47.651   8.849  14.079  0.00  0.00    +0.000 A 
ATOM      4  C   UNL     1      46.703   8.590  13.086  0.00  0.00    +0.000 A 
ATOM      5  C   UNL     1      46.460   7.274  12.672  0.00  0.00    +0.000 A 
ATOM      6  C   UNL     1      47.258   6.241  13.183  0.00  0.00    +0.000 A 
ATOM      7  C   UNL     1      48.204   6.500  14.174  0.00  0.00    +0.000 A 
BRANCH   5   8
ATOM      8  C   UNL     1      45.304   6.956  11.766  0.00  0.00    +0.000 C 
BRANCH   8   9
ATOM      9  N   UNL     1      45.566   5.898  10.836  0.00  0.00    +0.000 N 
ATOM     10  C   UNL     1      44.602   4.948  10.580  0.00  0.00    +0.000 C 
ATOM     11  O   UNL     1      43.505   4.944  11.135  0.00  0.00    +0.000 OA
ATOM     12  H   UNL     1      46.436   5.842  10.315  0.00  0.00    +0.000 HD
BRANCH  10  13
ATOM     13  C   UNL     1      44.984   3.961   9.595  0.00  0.00    +0.000 A 
ATOM     14  N   UNL     1      45.350   4.218   8.352  0.00  0.00    +0.000 NA
ATOM     15  C   UNL     1      45.615   2.992   7.790  0.00  0.00    +0.000 A 
ATOM     16  C   UNL     1      45.404   1.980   8.697  0.00  0.00    +0.000 A 
ATOM     17  N   UNL     1      45.008   2.613   9.843  0.00  0.00    +0.000 N 
ATOM     18  H   UNL     1      44.763   2.188  10.730  0.00  0.00    +0.000 HD
ENDBRANCH  10  13
ENDBRANCH   8   9
ENDBRANCH   5   8
ENDBRANCH   1   2
BRANCH   1  19
ATOM     19  N   UNL     1      48.684   8.087  17.171  0.00  0.00    +0.000 N 
ATOM     20  C   UNL     1      48.917   7.107  18.153  0.00  0.00    +0.000 C 
ATOM     21  O   UNL     1      48.383   7.165  19.260  0.00  0.00    +0.000 OA
BRANCH  20  22
ATOM     22  C   UNL     1      49.856   6.017  17.867  0.00  0.00    +0.000 A 
ATOM     23  C   UNL     1      51.215   6.071  18.128  0.00  0.00    +0.000 A 
ATOM     24  S   UNL     1      52.042   4.630  17.737  0.00  0.00    +0.000 S 
ATOM     25  C   UNL     1      50.586   3.840  17.348  0.00  0.00    +0.000 A 
ATOM     26  N   UNL     1      50.573   2.521  17.020  0.00  0.00    +0.000 NA
ATOM     27  C   UNL     1      49.390   2.039  16.826  0.00  0.00    +0.000 A 
ATOM     28  N   UNL     1      48.226   2.763  16.896  0.00  0.00    +0.000 N 
ATOM     29  C   UNL     1      48.203   4.128  17.096  0.00  0.00    +0.000 A 
ATOM     30  O   UNL     1      47.174   4.773  16.931  0.00  0.00    +0.000 OA
ATOM     31  C   UNL     1      49.498   4.689  17.431  0.00  0.00    +0.000 A 
ATOM     32  H   UNL     1      47.339   2.337  16.674  0.00  0.00    +0.000 HD
ENDBRANCH  20  22
BRANCH  19  34
ATOM     33  C   UNL     1      48.628  10.549  17.537  0.00  0.00    +0.000 C 
ATOM     34  C   UNL     1      47.859   9.234  17.573  0.00  0.00    +0.000 C 
ENDBRANCH  19  34
ENDBRANCH   1  19
TORSDOF 7
ENDMDL
MODEL 5
REMARK VINA RESULT:    -6.720      2.546      8.162
REMARK INTER + INTRA:         -10.514
REMARK INTER:                  -9.219
REMARK INTRA:                  -1.295
REMARK UNBOUND:                -1.044
REMARK  Name = 
REMARK  8 active torsions:
REMARK  status: ('A' for Active; 'I' for Inactive)
REMARK    1  A    between atoms: C_1  and  C_2
REMARK    2  A    between atoms: C_2  and  N_3
REMARK    3  A    between atoms: N_3  and  C_4
REMARK    4  A    between atoms: C_4  and  C_5
REMARK    5  A    between atoms: C_8  and  C_9
REMARK    6  A    between atoms: C_9  and  N_10
REMARK    7  A    between atoms: C_11  and  C_13
REMARK    8  A    between atoms: C_20  and  C_22
REMARK                            x       y       z     vdW  Elec       q    Type
REMARK                         _______ _______ _______ _____ _____    ______ ____
ROOT
ATOM      1  C   UNL     1      49.946   7.174  15.130  0.00  0.00    +0.000 C 
ENDROOT
BRANCH   1   2
ATOM      2  C   UNL     1      48.830   7.402  14.141  0.00  0.00    +0.000 A 
ATOM      3  C   UNL     1      47.754   8.244  14.459  0.00  0.00    +0.000 A 
ATOM      4  C   UNL     1      46.658   8.351  13.599  0.00  0.00    +0.000 A 
ATOM      5  C   UNL     1      46.621   7.607  12.413  0.00  0.00    +0.000 A 
ATOM      6  C   UNL     1      47.741   6.847  12.050  0.00  0.00    +0.000 A 
ATOM      7  C   UNL     1      48.834   6.740  12.909  0.00  0.00    +0.000 A 
BRANCH   5   8
ATOM      8  C   UNL     1      45.368   7.545  11.586  0.00  0.00    +0.000 C 
BRANCH   8   9
ATOM      9  N   UNL     1      45.309   6.420  10.700  0.00  0.00    +0.000 N 
ATOM     10  C   UNL     1      44.653   5.271  11.086  0.00  0.00    +0.000 C 
ATOM     11  O   UNL     1      44.118   5.144  12.184  0.00  0.00    +0.000 OA
ATOM     12  H   UNL     1      45.702   6.450   9.765  0.00  0.00    +0.000 HD
BRANCH  10  13
ATOM     13  C   UNL     1      44.639   4.229  10.083  0.00  0.00    +0.000 A 
ATOM     14  N   UNL     1      44.681   2.930  10.323  0.00  0.00    +0.000 NA
ATOM     15  C   UNL     1      44.650   2.330   9.087  0.00  0.00    +0.000 A 
ATOM     16  C   UNL     1      44.594   3.271   8.086  0.00  0.00    +0.000 A 
ATOM     17  N   UNL     1      44.582   4.474   8.735  0.00  0.00    +0.000 N 
ATOM     18  H   UNL     1      44.544   5.399   8.322  0.00  0.00    +0.000 HD
ENDBRANCH  10  13
ENDBRANCH   8   9
ENDBRANCH   5   8
ENDBRANCH   1   2
BRANCH   1  19
ATOM     19  N   UNL     1      49.735   7.662  16.504  0.00  0.00    +0.000 N 
ATOM     20  C   UNL     1      49.226   6.860  17.542  0.00  0.00    +0.000 C 
ATOM     21  O   UNL     1      49.058   7.305  18.676  0.00  0.00    +0.000 OA
BRANCH  20  22
ATOM     22  C   UNL     1      48.934   5.447  17.276  0.00  0.00    +0.000 A 
ATOM     23  C   UNL     1      47.756   4.990  16.707  0.00  0.00    +0.000 A 
ATOM     24  S   UNL     1      47.726   3.300  16.470  0.00  0.00    +0.000 S 
ATOM     25  C   UNL     1      49.341   3.147  16.983  0.00  0.00    +0.000 A 
ATOM     26  N   UNL     1      49.980   1.948  16.933  0.00  0.00    +0.000 NA
ATOM     27  C   UNL     1      51.223   2.000  17.280  0.00  0.00    +0.000 A 
ATOM     28  N   UNL     1      51.873   3.132  17.704  0.00  0.00    +0.000 N 
ATOM     29  C   UNL     1      51.232   4.338  17.895  0.00  0.00    +0.000 A 
ATOM     30  O   UNL     1      51.784   5.261  18.482  0.00  0.00    +0.000 OA
ATOM     31  C   UNL     1      49.864   4.353  17.411  0.00  0.00    +0.000 A 
ATOM     32  H   UNL     1      52.831   3.090  18.018  0.00  0.00    +0.000 HD
ENDBRANCH  20  22
BRANCH  19  34
ATOM     33  C   UNL     1      51.598   9.312  16.484  0.00  0.00    +0.000 C 
ATOM     34  C   UNL     1      50.154   9.021  16.872  0.00  0.00    +0.000 C 
ENDBRANCH  19  34
ENDBRANCH   1  19
TORSDOF 7
ENDMDL
MODEL 6
REMARK VINA RESULT:    -6.589      3.917      8.411
REMARK INTER + INTRA:         -10.330
REMARK INTER:                  -9.019
REMARK INTRA:                  -1.310
REMARK UNBOUND:                -1.044
REMARK  Name = 
REMARK  8 active torsions:
REMARK  status: ('A' for Active; 'I' for Inactive)
REMARK    1  A    between atoms: C_1  and  C_2
REMARK    2  A    between atoms: C_2  and  N_3
REMARK    3  A    between atoms: N_3  and  C_4
REMARK    4  A    between atoms: C_4  and  C_5
REMARK    5  A    between atoms: C_8  and  C_9
REMARK    6  A    between atoms: C_9  and  N_10
REMARK    7  A    between atoms: C_11  and  C_13
REMARK    8  A    between atoms: C_20  and  C_22
REMARK                            x       y       z     vdW  Elec       q    Type
REMARK                         _______ _______ _______ _____ _____    ______ ____
ROOT
ATOM      1  C   UNL     1      47.306   8.900  14.229  0.00  0.00    +0.000 C 
ENDROOT
BRANCH   1   2
ATOM      2  C   UNL     1      46.697   7.996  13.186  0.00  0.00    +0.000 A 
ATOM      3  C   UNL     1      45.651   8.450  12.368  0.00  0.00    +0.000 A 
ATOM      4  C   UNL     1      45.001   7.574  11.495  0.00  0.00    +0.000 A 
ATOM      5  C   UNL     1      45.383   6.228  11.438  0.00  0.00    +0.000 A 
ATOM      6  C   UNL     1      46.493   5.803  12.179  0.00  0.00    +0.000 A 
ATOM      7  C   UNL     1      47.142   6.677  13.051  0.00  0.00    +0.000 A 
BRANCH   5   8
ATOM      8  C   UNL     1      44.563   5.231  10.669  0.00  0.00    +0.000 C 
BRANCH   8   9
ATOM      9  N   UNL     1      45.317   4.459   9.725  0.00  0.00    +0.000 N 
ATOM     10  C   UNL     1      44.903   3.191   9.382  0.00  0.00    +0.000 C 
ATOM     11  O   UNL     1      43.906   2.660   9.866  0.00  0.00    +0.000 OA
ATOM     12  H   UNL     1      46.137   4.833   9.259  0.00  0.00    +0.000 HD
BRANCH  10  13
ATOM     13  C   UNL     1      45.734   2.541   8.393  0.00  0.00    +0.000 A 
ATOM     14  N   UNL     1      46.099   1.270   8.411  0.00  0.00    +0.000 NA
ATOM     15  C   UNL     1      46.878   1.100   7.292  0.00  0.00    +0.000 A 
ATOM     16  C   UNL     1      46.993   2.276   6.590  0.00  0.00    +0.000 A 
ATOM     17  N   UNL     1      46.256   3.183   7.300  0.00  0.00    +0.000 N 
ATOM     18  H   UNL     1      46.107   4.162   7.085  0.00  0.00    +0.000 HD
ENDBRANCH  10  13
ENDBRANCH   8   9
ENDBRANCH   5   8
ENDBRANCH   1   2
BRANCH   1  19
ATOM     19  N   UNL     1      48.767   9.085  14.185  0.00  0.00    +0.000 N 
ATOM     20  C   UNL     1      49.649   8.523  15.127  0.00  0.00    +0.000 C 
ATOM     21  O   UNL     1      50.863   8.705  15.060  0.00  0.00    +0.000 OA
BRANCH  20  22
ATOM     22  C   UNL     1      49.111   7.661  16.185  0.00  0.00    +0.000 A 
ATOM     23  C   UNL     1      49.195   6.278  16.180  0.00  0.00    +0.000 A 
ATOM     24  S   UNL     1      48.527   5.550  17.571  0.00  0.00    +0.000 S 
ATOM     25  C   UNL     1      48.239   7.066  18.289  0.00  0.00    +0.000 A 
ATOM     26  N   UNL     1      47.757   7.160  19.557  0.00  0.00    +0.000 NA
ATOM     27  C   UNL     1      47.663   8.370  19.996  0.00  0.00    +0.000 A 
ATOM     28  N   UNL     1      47.974   9.495  19.271  0.00  0.00    +0.000 N 
ATOM     29  C   UNL     1      48.339   9.453  17.942  0.00  0.00    +0.000 A 
ATOM     30  O   UNL     1      48.391  10.475  17.269  0.00  0.00    +0.000 OA
ATOM     31  C   UNL     1      48.567   8.109  17.443  0.00  0.00    +0.000 A 
ATOM     32  H   UNL     1      47.820  10.414  19.656  0.00  0.00    +0.000 HD
ENDBRANCH  20  22
BRANCH  19  34
ATOM     33  C   UNL     1      49.779   8.882  11.920  0.00  0.00    +0.000 C 
ATOM     34  C   UNL     1      49.381   9.807  13.063  0.00  0.00    +0.000 C 
ENDBRANCH  19  34
ENDBRANCH   1  19
TORSDOF 7
ENDMDL
MODEL 7
REMARK VINA RESULT:    -6.276      3.873      8.382
REMARK INTER + INTRA:          -9.889
REMARK INTER:                  -7.415
REMARK INTRA:                  -2.474
REMARK UNBOUND:                -1.044
REMARK  Name = 
REMARK  8 active torsions:
REMARK  status: ('A' for Active; 'I' for Inactive)
REMARK    1  A    between atoms: C_1  and  C_2
REMARK    2  A    between atoms: C_2  and  N_3
REMARK    3  A    between atoms: N_3  and  C_4
REMARK    4  A    between atoms: C_4  and  C_5
REMARK    5  A    between atoms: C_8  and  C_9
REMARK    6  A    between atoms: C_9  and  N_10
REMARK    7  A    between atoms: C_11  and  C_13
REMARK    8  A    between atoms: C_20  and  C_22
REMARK                            x       y       z     vdW  Elec       q    Type
REMARK                         _______ _______ _______ _____ _____    ______ ____
ROOT
ATOM      1  C   UNL     1      52.344   4.914  19.363  0.00  0.00    +0.000 C 
ENDROOT
BRANCH   1   2
ATOM      2  C   UNL     1      51.009   4.380  18.909  0.00  0.00    +0.000 A 
ATOM      3  C   UNL     1      50.927   3.465  17.848  0.00  0.00    +0.000 A 
ATOM      4  C   UNL     1      49.684   3.074  17.343  0.00  0.00    +0.000 A 
ATOM      5  C   UNL     1      48.507   3.601  17.887  0.00  0.00    +0.000 A 
ATOM      6  C   UNL     1      48.589   4.433  19.012  0.00  0.00    +0.000 A 
ATOM      7  C   UNL     1      49.829   4.824  19.516  0.00  0.00    +0.000 A 
BRANCH   5   8
ATOM      8  C   UNL     1      47.180   3.358  17.225  0.00  0.00    +0.000 C 
BRANCH   8   9
ATOM      9  N   UNL     1      46.820   4.354  16.259  0.00  0.00    +0.000 N 
ATOM     10  C   UNL     1      47.024   4.120  14.917  0.00  0.00    +0.000 C 
ATOM     11  O   UNL     1      47.531   3.086  14.489  0.00  0.00    +0.000 OA
ATOM     12  H   UNL     1      46.372   5.225  16.526  0.00  0.00    +0.000 HD
BRANCH  10  13
ATOM     13  C   UNL     1      46.582   5.192  14.052  0.00  0.00    +0.000 A 
ATOM     14  N   UNL     1      47.322   6.212  13.652  0.00  0.00    +0.000 NA
ATOM     15  C   UNL     1      46.495   6.970  12.858  0.00  0.00    +0.000 A 
ATOM     16  C   UNL     1      45.242   6.411  12.777  0.00  0.00    +0.000 A 
ATOM     17  N   UNL     1      45.314   5.277  13.538  0.00  0.00    +0.000 N 
ATOM     18  H   UNL     1      44.578   4.604  13.714  0.00  0.00    +0.000 HD
ENDBRANCH  10  13
ENDBRANCH   8   9
ENDBRANCH   5   8
ENDBRANCH   1   2
BRANCH   1  19
ATOM     19  N   UNL     1      53.206   5.525  18.336  0.00  0.00    +0.000 N 
ATOM     20  C   UNL     1      52.990   6.812  17.807  0.00  0.00    +0.000 C 
ATOM     21  O   UNL     1      53.728   7.286  16.946  0.00  0.00    +0.000 OA
BRANCH  20  22
ATOM     22  C   UNL     1      51.886   7.623  18.331  0.00  0.00    +0.000 A 
ATOM     23  C   UNL     1      51.986   8.455  19.434  0.00  0.00    +0.000 A 
ATOM     24  S   UNL     1      50.551   9.314  19.772  0.00  0.00    +0.000 S 
ATOM     25  C   UNL     1      49.800   8.714  18.369  0.00  0.00    +0.000 A 
ATOM     26  N   UNL     1      48.562   9.139  18.001  0.00  0.00    +0.000 NA
ATOM     27  C   UNL     1      48.152   8.656  16.876  0.00  0.00    +0.000 A 
ATOM     28  N   UNL     1      48.853   7.763  16.103  0.00  0.00    +0.000 N 
ATOM     29  C   UNL     1      50.051   7.207  16.499  0.00  0.00    +0.000 A 
ATOM     30  O   UNL     1      50.535   6.255  15.899  0.00  0.00    +0.000 OA
ATOM     31  C   UNL     1      50.600   7.805  17.702  0.00  0.00    +0.000 A 
ATOM     32  H   UNL     1      48.447   7.380  15.262  0.00  0.00    +0.000 HD
ENDBRANCH  20  22
BRANCH  19  34
ATOM     33  C   UNL     1      54.568   3.449  18.517  0.00  0.00    +0.000 C 
ATOM     34  C   UNL     1      54.416   4.827  17.884  0.00  0.00    +0.000 C 
ENDBRANCH  19  34
ENDBRANCH   1  19
TORSDOF 7
ENDMDL
MODEL 8
REMARK VINA RESULT:    -6.018      3.676      8.402
REMARK INTER + INTRA:          -9.525
REMARK INTER:                  -8.257
REMARK INTRA:                  -1.268
REMARK UNBOUND:                -1.044
REMARK  Name = 
REMARK  8 active torsions:
REMARK  status: ('A' for Active; 'I' for Inactive)
REMARK    1  A    between atoms: C_1  and  C_2
REMARK    2  A    between atoms: C_2  and  N_3
REMARK    3  A    between atoms: N_3  and  C_4
REMARK    4  A    between atoms: C_4  and  C_5
REMARK    5  A    between atoms: C_8  and  C_9
REMARK    6  A    between atoms: C_9  and  N_10
REMARK    7  A    between atoms: C_11  and  C_13
REMARK    8  A    between atoms: C_20  and  C_22
REMARK                            x       y       z     vdW  Elec       q    Type
REMARK                         _______ _______ _______ _____ _____    ______ ____
ROOT
ATOM      1  C   UNL     1      48.661   9.983  14.476  0.00  0.00    +0.000 C 
ENDROOT
BRANCH   1   2
ATOM      2  C   UNL     1      47.655   9.292  13.590  0.00  0.00    +0.000 A 
ATOM      3  C   UNL     1      46.882  10.024  12.677  0.00  0.00    +0.000 A 
ATOM      4  C   UNL     1      45.860   9.404  11.954  0.00  0.00    +0.000 A 
ATOM      5  C   UNL     1      45.592   8.043  12.143  0.00  0.00    +0.000 A 
ATOM      6  C   UNL     1      46.431   7.293  12.978  0.00  0.00    +0.000 A 
ATOM      7  C   UNL     1      47.450   7.912  13.700  0.00  0.00    +0.000 A 
BRANCH   5   8
ATOM      8  C   UNL     1      44.370   7.411  11.538  0.00  0.00    +0.000 C 
BRANCH   8   9
ATOM      9  N   UNL     1      44.646   6.251  10.742  0.00  0.00    +0.000 N 
ATOM     10  C   UNL     1      43.754   5.202  10.717  0.00  0.00    +0.000 C 
ATOM     11  O   UNL     1      42.715   5.194  11.372  0.00  0.00    +0.000 OA
ATOM     12  H   UNL     1      45.469   6.189  10.151  0.00  0.00    +0.000 HD
BRANCH  10  13
ATOM     13  C   UNL     1      44.139   4.114   9.845  0.00  0.00    +0.000 A 
ATOM     14  N   UNL     1      44.065   2.829  10.142  0.00  0.00    +0.000 NA
ATOM     15  C   UNL     1      44.535   2.172   9.030  0.00  0.00    +0.000 A 
ATOM     16  C   UNL     1      44.903   3.064   8.051  0.00  0.00    +0.000 A 
ATOM     17  N   UNL     1      44.641   4.296   8.582  0.00  0.00    +0.000 N 
ATOM     18  H   UNL     1      44.785   5.200   8.148  0.00  0.00    +0.000 HD
ENDBRANCH  10  13
ENDBRANCH   8   9
ENDBRANCH   5   8
ENDBRANCH   1   2
BRANCH   1  19
ATOM     19  N   UNL     1      50.033   9.446  14.477  0.00  0.00    +0.000 N 
ATOM     20  C   UNL     1      50.643   8.879  15.612  0.00  0.00    +0.000 C 
ATOM     21  O   UNL     1      51.794   8.446  15.575  0.00  0.00    +0.000 OA
BRANCH  20  22
ATOM     22  C   UNL     1      49.871   8.759  16.853  0.00  0.00    +0.000 A 
ATOM     23  C   UNL     1      49.667   9.799  17.746  0.00  0.00    +0.000 A 
ATOM     24  S   UNL     1      48.682   9.373  19.073  0.00  0.00    +0.000 S 
ATOM     25  C   UNL     1      48.378   7.832  18.419  0.00  0.00    +0.000 A 
ATOM     26  N   UNL     1      47.512   6.975  19.021  0.00  0.00    +0.000 NA
ATOM     27  C   UNL     1      47.321   5.876  18.371  0.00  0.00    +0.000 A 
ATOM     28  N   UNL     1      47.942   5.543  17.193  0.00  0.00    +0.000 N 
ATOM     29  C   UNL     1      48.923   6.322  16.616  0.00  0.00    +0.000 A 
ATOM     30  O   UNL     1      49.610   5.895  15.696  0.00  0.00    +0.000 OA
ATOM     31  C   UNL     1      49.087   7.617  17.251  0.00  0.00    +0.000 A 
ATOM     32  H   UNL     1      47.792   4.640  16.768  0.00  0.00    +0.000 HD
ENDBRANCH  20  22
BRANCH  19  34
ATOM     33  C   UNL     1      50.699   8.044  12.531  0.00  0.00    +0.000 C 
ATOM     34  C   UNL     1      50.802   9.395  13.226  0.00  0.00    +0.000 C 
ENDBRANCH  19  34
ENDBRANCH   1  19
TORSDOF 7
ENDMDL
MODEL 9
REMARK VINA RESULT:    -5.800      3.422      8.359
REMARK INTER + INTRA:          -9.219
REMARK INTER:                  -7.806
REMARK INTRA:                  -1.412
REMARK UNBOUND:                -1.044
REMARK  Name = 
REMARK  8 active torsions:
REMARK  status: ('A' for Active; 'I' for Inactive)
REMARK    1  A    between atoms: C_1  and  C_2
REMARK    2  A    between atoms: C_2  and  N_3
REMARK    3  A    between atoms: N_3  and  C_4
REMARK    4  A    between atoms: C_4  and  C_5
REMARK    5  A    between atoms: C_8  and  C_9
REMARK    6  A    between atoms: C_9  and  N_10
REMARK    7  A    between atoms: C_11  and  C_13
REMARK    8  A    between atoms: C_20  and  C_22
REMARK                            x       y       z     vdW  Elec       q    Type
REMARK                         _______ _______ _______ _____ _____    ______ ____
ROOT
ATOM      1  C   UNL     1      51.536   8.412  17.804  0.00  0.00    +0.000 C 
ENDROOT
BRANCH   1   2
ATOM      2  C   UNL     1      50.484   8.207  16.742  0.00  0.00    +0.000 A 
ATOM      3  C   UNL     1      50.767   7.459  15.589  0.00  0.00    +0.000 A 
ATOM      4  C   UNL     1      49.839   7.380  14.548  0.00  0.00    +0.000 A 
ATOM      5  C   UNL     1      48.617   8.058  14.644  0.00  0.00    +0.000 A 
ATOM      6  C   UNL     1      48.295   8.717  15.838  0.00  0.00    +0.000 A 
ATOM      7  C   UNL     1      49.223   8.796  16.877  0.00  0.00    +0.000 A 
BRANCH   5   8
ATOM      8  C   UNL     1      47.701   8.159  13.457  0.00  0.00    +0.000 C 
BRANCH   8   9
ATOM      9  N   UNL     1      46.559   7.295  13.525  0.00  0.00    +0.000 N 
ATOM     10  C   UNL     1      46.211   6.524  12.438  0.00  0.00    +0.000 C 
ATOM     11  O   UNL     1      46.827   6.550  11.376  0.00  0.00    +0.000 OA
ATOM     12  H   UNL     1      46.011   7.195  14.373  0.00  0.00    +0.000 HD
BRANCH  10  13
ATOM     13  C   UNL     1      45.062   5.673  12.656  0.00  0.00    +0.000 A 
ATOM     14  N   UNL     1      45.076   4.352  12.670  0.00  0.00    +0.000 NA
ATOM     15  C   UNL     1      43.775   3.977  12.905  0.00  0.00    +0.000 A 
ATOM     16  C   UNL     1      42.962   5.078  13.031  0.00  0.00    +0.000 A 
ATOM     17  N   UNL     1      43.795   6.150  12.875  0.00  0.00    +0.000 N 
ATOM     18  H   UNL     1      43.551   7.133  12.906  0.00  0.00    +0.000 HD
ENDBRANCH  10  13
ENDBRANCH   8   9
ENDBRANCH   5   8
ENDBRANCH   1   2
BRANCH   1  19
ATOM     19  N   UNL     1      52.324   7.233  18.203  0.00  0.00    +0.000 N 
ATOM     20  C   UNL     1      51.780   6.133  18.892  0.00  0.00    +0.000 C 
ATOM     21  O   UNL     1      52.473   5.169  19.214  0.00  0.00    +0.000 OA
BRANCH  20  22
ATOM     22  C   UNL     1      50.344   6.117  19.192  0.00  0.00    +0.000 A 
ATOM     23  C   UNL     1      49.735   6.941  20.124  0.00  0.00    +0.000 A 
ATOM     24  S   UNL     1      48.044   6.731  20.215  0.00  0.00    +0.000 S 
ATOM     25  C   UNL     1      48.057   5.641  18.909  0.00  0.00    +0.000 A 
ATOM     26  N   UNL     1      46.898   5.144  18.400  0.00  0.00    +0.000 NA
ATOM     27  C   UNL     1      47.058   4.391  17.364  0.00  0.00    +0.000 A 
ATOM     28  N   UNL     1      48.272   4.062  16.812  0.00  0.00    +0.000 N 
ATOM     29  C   UNL     1      49.476   4.435  17.372  0.00  0.00    +0.000 A 
ATOM     30  O   UNL     1      50.530   3.944  16.988  0.00  0.00    +0.000 OA
ATOM     31  C   UNL     1      49.340   5.375  18.470  0.00  0.00    +0.000 A 
ATOM     32  H   UNL     1      48.329   3.419  16.037  0.00  0.00    +0.000 HD
ENDBRANCH  20  22
BRANCH  19  34
ATOM     33  C   UNL     1      53.896   6.419  16.453  0.00  0.00    +0.000 C 
ATOM     34  C   UNL     1      53.731   7.120  17.796  0.00  0.00    +0.000 C 
ENDBRANCH  19  34
ENDBRANCH   1  19
TORSDOF 7
ENDMDL
