MODEL 1
REMARK VINA RESULT:    -7.855      0.000      0.000
REMARK INTER + INTRA:         -12.591
REMARK INTER:                 -11.528
REMARK INTRA:                  -1.062
REMARK UNBOUND:                -1.062
REMARK  Name = 
REMARK  9 active torsions:
REMARK  status: ('A' for Active; 'I' for Inactive)
REMARK    1  A    between atoms: C_1  and  O_2
REMARK    2  A    between atoms: O_2  and  C_3
REMARK    3  A    between atoms: C_10  and  C_11
REMARK    4  A    between atoms: N_13  and  C_14
REMARK    5  A    between atoms: C_14  and  C_15
REMARK    6  A    between atoms: C_18  and  C_19
REMARK    7  A    between atoms: C_19  and  O_20
REMARK    8  A    between atoms: O_20  and  C_21
REMARK    9  A    between atoms: C_21  and  C_22
REMARK                            x       y       z     vdW  Elec       q    Type
REMARK                         _______ _______ _______ _____ _____    ______ ____
ROOT
ATOM      1  C   UNL     1      47.891   7.174  13.169  0.00  0.00    +0.000 C 
ENDROOT
BRANCH   1   2
ATOM      2  C   UNL     1      46.874   6.210  12.619  0.00  0.00    +0.000 A 
ATOM      3  C   UNL     1      46.500   5.066  13.337  0.00  0.00    +0.000 A 
ATOM      4  C   UNL     1      45.524   4.201  12.834  0.00  0.00    +0.000 A 
ATOM      5  C   UNL     1      44.906   4.457  11.602  0.00  0.00    +0.000 A 
ATOM      6  C   UNL     1      45.306   5.582  10.872  0.00  0.00    +0.000 A 
ATOM      7  C   UNL     1      46.284   6.447  11.371  0.00  0.00    +0.000 A 
BRANCH   5   8
ATOM      8  C   UNL     1      43.845   3.532  11.061  0.00  0.00    +0.000 C 
BRANCH   8   9
ATOM      9  O   UNL     1      44.029   3.356   9.661  0.00  0.00    +0.000 OA
BRANCH   9  10
ATOM     10  C   UNL     1      44.566   2.060   9.366  0.00  0.00    +0.000 C 
BRANCH  10  11
ATOM     11  C   UNL     1      45.703   2.161   8.374  0.00  0.00    +0.000 A 
ATOM     12  N   UNL     1      45.944   3.364   7.808  0.00  0.00    +0.000 NA
ATOM     13  C   UNL     1      46.936   3.413   6.898  0.00  0.00    +0.000 A 
ATOM     14  C   UNL     1      47.698   2.325   6.546  0.00  0.00    +0.000 A 
ATOM     15  C   UNL     1      47.390   1.151   7.192  0.00  0.00    +0.000 A 
ATOM     16  N   UNL     1      46.409   1.040   8.108  0.00  0.00    +0.000 NA
ENDBRANCH  10  11
ENDBRANCH   9  10
ENDBRANCH   8   9
ENDBRANCH   5   8
ENDBRANCH   1   2
BRANCH   1  19
ATOM     17  C   UNL     1      49.002   7.098  15.347  0.00  0.00    +0.000 C 
ATOM     18  O   UNL     1      50.087   6.916  14.799  0.00  0.00    +0.000 OA
ATOM     19  N   UNL     1      47.857   7.231  14.607  0.00  0.00    +0.000 N 
ATOM     20  H   UNL     1      46.971   7.425  15.058  0.00  0.00    +0.000 HD
BRANCH  17  28
ATOM     21  C   UNL     1      48.917   4.728  17.856  0.00  0.00    +0.000 A 
ATOM     22  N   UNL     1      48.850   4.041  19.015  0.00  0.00    +0.000 NA
ATOM     23  C   UNL     1      48.737   4.731  20.153  0.00  0.00    +0.000 A 
ATOM     24  N   UNL     1      48.685   6.052  20.284  0.00  0.00    +0.000 NA
ATOM     25  C   UNL     1      48.747   6.698  19.109  0.00  0.00    +0.000 A 
ATOM     26  S   UNL     1      48.697   8.396  19.091  0.00  0.00    +0.000 S 
ATOM     27  C   UNL     1      48.814   8.428  17.398  0.00  0.00    +0.000 A 
ATOM     28  C   UNL     1      48.892   7.169  16.813  0.00  0.00    +0.000 A 
ATOM     29  C   UNL     1      48.857   6.133  17.840  0.00  0.00    +0.000 A 
BRANCH  21  31
ATOM     30  C   UNL     1      47.967   3.048  16.534  0.00  0.00    +0.000 C 
ATOM     31  O   UNL     1      49.012   4.010  16.682  0.00  0.00    +0.000 OA
ENDBRANCH  21  31
ENDBRANCH  17  28
ENDBRANCH   1  19
TORSDOF 8
ENDMDL
MODEL 2
REMARK VINA RESULT:    -7.580      1.449      2.542
REMARK INTER + INTRA:         -12.187
REMARK INTER:                 -11.210
REMARK INTRA:                  -0.977
REMARK UNBOUND:                -1.062
REMARK  Name = 
REMARK  9 active torsions:
REMARK  status: ('A' for Active; 'I' for Inactive)
REMARK    1  A    between atoms: C_1  and  O_2
REMARK    2  A    between atoms: O_2  and  C_3
REMARK    3  A    between atoms: C_10  and  C_11
REMARK    4  A    between atoms: N_13  and  C_14
REMARK    5  A    between atoms: C_14  and  C_15
REMARK    6  A    between atoms: C_18  and  C_19
REMARK    7  A    between atoms: C_19  and  O_20
REMARK    8  A    between atoms: O_20  and  C_21
REMARK    9  A    between atoms: C_21  and  C_22
REMARK                            x       y       z     vdW  Elec       q    Type
REMARK                         _______ _______ _______ _____ _____    ______ ____
ROOT
ATOM      1  C   UNL     1      48.173   6.495  13.747  0.00  0.00    +0.000 C 
ENDROOT
BRANCH   1   2
ATOM      2  C   UNL     1      47.033   5.927  12.944  0.00  0.00    +0.000 A 
ATOM      3  C   UNL     1      46.315   4.812  13.398  0.00  0.00    +0.000 A 
ATOM      4  C   UNL     1      45.232   4.319  12.663  0.00  0.00    +0.000 A 
ATOM      5  C   UNL     1      44.848   4.927  11.459  0.00  0.00    +0.000 A 
ATOM      6  C   UNL     1      45.588   6.020  10.994  0.00  0.00    +0.000 A 
ATOM      7  C   UNL     1      46.673   6.512  11.724  0.00  0.00    +0.000 A 
BRANCH   5   8
ATOM      8  C   UNL     1      43.674   4.406  10.670  0.00  0.00    +0.000 C 
BRANCH   8   9
ATOM      9  O   UNL     1      44.111   3.977   9.385  0.00  0.00    +0.000 OA
BRANCH   9  10
ATOM     10  C   UNL     1      44.489   2.594   9.399  0.00  0.00    +0.000 C 
BRANCH  10  11
ATOM     11  C   UNL     1      45.617   2.333   8.425  0.00  0.00    +0.000 A 
ATOM     12  N   UNL     1      46.068   1.065   8.306  0.00  0.00    +0.000 NA
ATOM     13  C   UNL     1      47.100   0.872   7.462  0.00  0.00    +0.000 A 
ATOM     14  C   UNL     1      47.682   1.879   6.731  0.00  0.00    +0.000 A 
ATOM     15  C   UNL     1      47.138   3.129   6.905  0.00  0.00    +0.000 A 
ATOM     16  N   UNL     1      46.108   3.385   7.735  0.00  0.00    +0.000 NA
ENDBRANCH  10  11
ENDBRANCH   9  10
ENDBRANCH   8   9
ENDBRANCH   5   8
ENDBRANCH   1   2
BRANCH   1  19
ATOM     17  C   UNL     1      49.056   6.344  16.024  0.00  0.00    +0.000 C 
ATOM     18  O   UNL     1      50.191   6.566  15.610  0.00  0.00    +0.000 OA
ATOM     19  N   UNL     1      47.994   6.286  15.161  0.00  0.00    +0.000 N 
ATOM     20  H   UNL     1      47.053   6.146  15.509  0.00  0.00    +0.000 HD
BRANCH  17  28
ATOM     21  C   UNL     1      47.867   8.341  18.577  0.00  0.00    +0.000 A 
ATOM     22  N   UNL     1      47.450   8.877  19.742  0.00  0.00    +0.000 NA
ATOM     23  C   UNL     1      47.440   8.099  20.828  0.00  0.00    +0.000 A 
ATOM     24  N   UNL     1      47.800   6.823  20.899  0.00  0.00    +0.000 NA
ATOM     25  C   UNL     1      48.216   6.328  19.721  0.00  0.00    +0.000 A 
ATOM     26  S   UNL     1      48.710   4.706  19.629  0.00  0.00    +0.000 S 
ATOM     27  C   UNL     1      49.048   4.855  17.973  0.00  0.00    +0.000 A 
ATOM     28  C   UNL     1      48.797   6.122  17.456  0.00  0.00    +0.000 A 
ATOM     29  C   UNL     1      48.294   7.002  18.504  0.00  0.00    +0.000 A 
BRANCH  21  31
ATOM     30  C   UNL     1      49.076   9.952  17.388  0.00  0.00    +0.000 C 
ATOM     31  O   UNL     1      47.894   9.154  17.463  0.00  0.00    +0.000 OA
ENDBRANCH  21  31
ENDBRANCH  17  28
ENDBRANCH   1  19
TORSDOF 8
ENDMDL
MODEL 3
REMARK VINA RESULT:    -7.184      1.801      2.008
REMARK INTER + INTRA:         -11.606
REMARK INTER:                 -10.468
REMARK INTRA:                  -1.137
REMARK UNBOUND:                -1.062
REMARK  Name = 
REMARK  9 active torsions:
REMARK  status: ('A' for Active; 'I' for Inactive)
REMARK    1  A    between atoms: C_1  and  O_2
REMARK    2  A    between atoms: O_2  and  C_3
REMARK    3  A    between atoms: C_10  and  C_11
REMARK    4  A    between atoms: N_13  and  C_14
REMARK    5  A    between atoms: C_14  and  C_15
REMARK    6  A    between atoms: C_18  and  C_19
REMARK    7  A    between atoms: C_19  and  O_20
REMARK    8  A    between atoms: O_20  and  C_21
REMARK    9  A    between atoms: C_21  and  C_22
REMARK                            x       y       z     vdW  Elec       q    Type
REMARK                         _______ _______ _______ _____ _____    ______ ____
ROOT
ATOM      1  C   UNL     1      47.413   7.714  13.555  0.00  0.00    +0.000 C 
ENDROOT
BRANCH   1   2
ATOM      2  C   UNL     1      46.409   6.736  13.007  0.00  0.00    +0.000 A 
ATOM      3  C   UNL     1      46.611   5.353  13.119  0.00  0.00    +0.000 A 
ATOM      4  C   UNL     1      45.651   4.455  12.642  0.00  0.00    +0.000 A 
ATOM      5  C   UNL     1      44.473   4.920  12.040  0.00  0.00    +0.000 A 
ATOM      6  C   UNL     1      44.290   6.301  11.901  0.00  0.00    +0.000 A 
ATOM      7  C   UNL     1      45.250   7.200  12.373  0.00  0.00    +0.000 A 
BRANCH   5   8
ATOM      8  C   UNL     1      43.429   3.956  11.535  0.00  0.00    +0.000 C 
BRANCH   8   9
ATOM      9  O   UNL     1      43.990   3.127  10.523  0.00  0.00    +0.000 OA
BRANCH   9  10
ATOM     10  C   UNL     1      44.221   3.864   9.315  0.00  0.00    +0.000 C 
BRANCH  10  11
ATOM     11  C   UNL     1      45.319   3.224   8.494  0.00  0.00    +0.000 A 
ATOM     12  N   UNL     1      45.980   4.001   7.608  0.00  0.00    +0.000 NA
ATOM     13  C   UNL     1      46.923   3.393   6.863  0.00  0.00    +0.000 A 
ATOM     14  C   UNL     1      47.238   2.060   6.976  0.00  0.00    +0.000 A 
ATOM     15  C   UNL     1      46.525   1.360   7.920  0.00  0.00    +0.000 A 
ATOM     16  N   UNL     1      45.570   1.912   8.693  0.00  0.00    +0.000 NA
ENDBRANCH  10  11
ENDBRANCH   9  10
ENDBRANCH   8   9
ENDBRANCH   5   8
ENDBRANCH   1   2
BRANCH   1  19
ATOM     17  C   UNL     1      49.340   7.756  15.062  0.00  0.00    +0.000 C 
ATOM     18  O   UNL     1      49.226   8.972  15.191  0.00  0.00    +0.000 OA
ATOM     19  N   UNL     1      48.480   7.053  14.261  0.00  0.00    +0.000 N 
ATOM     20  H   UNL     1      48.548   6.044  14.191  0.00  0.00    +0.000 HD
BRANCH  17  28
ATOM     21  C   UNL     1      49.367   5.035  17.187  0.00  0.00    +0.000 A 
ATOM     22  N   UNL     1      49.673   4.021  18.023  0.00  0.00    +0.000 NA
ATOM     23  C   UNL     1      50.959   3.815  18.321  0.00  0.00    +0.000 A 
ATOM     24  N   UNL     1      52.002   4.507  17.878  0.00  0.00    +0.000 NA
ATOM     25  C   UNL     1      51.656   5.510  17.055  0.00  0.00    +0.000 A 
ATOM     26  S   UNL     1      52.868   6.496  16.390  0.00  0.00    +0.000 S 
ATOM     27  C   UNL     1      51.720   7.423  15.553  0.00  0.00    +0.000 A 
ATOM     28  C   UNL     1      50.406   7.013  15.755  0.00  0.00    +0.000 A 
ATOM     29  C   UNL     1      50.370   5.863  16.651  0.00  0.00    +0.000 A 
BRANCH  21  31
ATOM     30  C   UNL     1      47.349   4.067  16.509  0.00  0.00    +0.000 C 
ATOM     31  O   UNL     1      48.036   5.256  16.899  0.00  0.00    +0.000 OA
ENDBRANCH  21  31
ENDBRANCH  17  28
ENDBRANCH   1  19
TORSDOF 8
ENDMDL
MODEL 4
REMARK VINA RESULT:    -6.777      4.933      9.730
REMARK INTER + INTRA:         -11.009
REMARK INTER:                 -10.240
REMARK INTRA:                  -0.769
REMARK UNBOUND:                -1.062
REMARK  Name = 
REMARK  9 active torsions:
REMARK  status: ('A' for Active; 'I' for Inactive)
REMARK    1  A    between atoms: C_1  and  O_2
REMARK    2  A    between atoms: O_2  and  C_3
REMARK    3  A    between atoms: C_10  and  C_11
REMARK    4  A    between atoms: N_13  and  C_14
REMARK    5  A    between atoms: C_14  and  C_15
REMARK    6  A    between atoms: C_18  and  C_19
REMARK    7  A    between atoms: C_19  and  O_20
REMARK    8  A    between atoms: O_20  and  C_21
REMARK    9  A    between atoms: C_21  and  C_22
REMARK                            x       y       z     vdW  Elec       q    Type
REMARK                         _______ _______ _______ _____ _____    ______ ____
ROOT
ATOM      1  C   UNL     1      47.376   3.582  17.099  0.00  0.00    +0.000 C 
ENDROOT
BRANCH   1   2
ATOM      2  C   UNL     1      48.849   3.341  17.298  0.00  0.00    +0.000 A 
ATOM      3  C   UNL     1      49.677   4.333  17.842  0.00  0.00    +0.000 A 
ATOM      4  C   UNL     1      51.035   4.081  18.060  0.00  0.00    +0.000 A 
ATOM      5  C   UNL     1      51.593   2.837  17.735  0.00  0.00    +0.000 A 
ATOM      6  C   UNL     1      50.770   1.861  17.162  0.00  0.00    +0.000 A 
ATOM      7  C   UNL     1      49.413   2.111  16.940  0.00  0.00    +0.000 A 
BRANCH   5   8
ATOM      8  C   UNL     1      53.055   2.557  17.979  0.00  0.00    +0.000 C 
BRANCH   8   9
ATOM      9  O   UNL     1      53.210   1.255  18.532  0.00  0.00    +0.000 OA
BRANCH   9  10
ATOM     10  C   UNL     1      54.588   0.862  18.559  0.00  0.00    +0.000 C 
BRANCH  10  11
ATOM     11  C   UNL     1      54.725  -0.594  18.947  0.00  0.00    +0.000 A 
ATOM     12  N   UNL     1      54.839  -0.890  20.261  0.00  0.00    +0.000 NA
ATOM     13  C   UNL     1      55.001  -2.190  20.572  0.00  0.00    +0.000 A 
ATOM     14  C   UNL     1      55.040  -3.196  19.636  0.00  0.00    +0.000 A 
ATOM     15  C   UNL     1      54.895  -2.796  18.330  0.00  0.00    +0.000 A 
ATOM     16  N   UNL     1      54.731  -1.512  17.957  0.00  0.00    +0.000 NA
ENDBRANCH  10  11
ENDBRANCH   9  10
ENDBRANCH   8   9
ENDBRANCH   5   8
ENDBRANCH   1   2
BRANCH   1  19
ATOM     17  C   UNL     1      47.082   4.324  14.786  0.00  0.00    +0.000 C 
ATOM     18  O   UNL     1      47.267   3.178  14.384  0.00  0.00    +0.000 OA
ATOM     19  N   UNL     1      47.125   4.612  16.125  0.00  0.00    +0.000 N 
ATOM     20  H   UNL     1      46.929   5.549  16.457  0.00  0.00    +0.000 HD
BRANCH  17  28
ATOM     21  C   UNL     1      44.426   5.138  12.738  0.00  0.00    +0.000 A 
ATOM     22  N   UNL     1      43.563   5.685  11.856  0.00  0.00    +0.000 NA
ATOM     23  C   UNL     1      43.922   6.814  11.240  0.00  0.00    +0.000 A 
ATOM     24  N   UNL     1      45.058   7.485  11.398  0.00  0.00    +0.000 NA
ATOM     25  C   UNL     1      45.891   6.905  12.278  0.00  0.00    +0.000 A 
ATOM     26  S   UNL     1      47.390   7.632  12.605  0.00  0.00    +0.000 S 
ATOM     27  C   UNL     1      47.797   6.406  13.705  0.00  0.00    +0.000 A 
ATOM     28  C   UNL     1      46.819   5.427  13.848  0.00  0.00    +0.000 A 
ATOM     29  C   UNL     1      45.675   5.731  12.996  0.00  0.00    +0.000 A 
BRANCH  21  31
ATOM     30  C   UNL     1      43.592   2.974  12.436  0.00  0.00    +0.000 C 
ATOM     31  O   UNL     1      44.059   3.961  13.356  0.00  0.00    +0.000 OA
ENDBRANCH  21  31
ENDBRANCH  17  28
ENDBRANCH   1  19
TORSDOF 8
ENDMDL
MODEL 5
REMARK VINA RESULT:    -6.495      3.285      8.210
REMARK INTER + INTRA:         -10.595
REMARK INTER:                  -9.086
REMARK INTRA:                  -1.508
REMARK UNBOUND:                -1.062
REMARK  Name = 
REMARK  9 active torsions:
REMARK  status: ('A' for Active; 'I' for Inactive)
REMARK    1  A    between atoms: C_1  and  O_2
REMARK    2  A    between atoms: O_2  and  C_3
REMARK    3  A    between atoms: C_10  and  C_11
REMARK    4  A    between atoms: N_13  and  C_14
REMARK    5  A    between atoms: C_14  and  C_15
REMARK    6  A    between atoms: C_18  and  C_19
REMARK    7  A    between atoms: C_19  and  O_20
REMARK    8  A    between atoms: O_20  and  C_21
REMARK    9  A    between atoms: C_21  and  C_22
REMARK                            x       y       z     vdW  Elec       q    Type
REMARK                         _______ _______ _______ _____ _____    ______ ____
ROOT
ATOM      1  C   UNL     1      48.367   8.052  12.048  0.00  0.00    +0.000 C 
ENDROOT
BRANCH   1   2
ATOM      2  C   UNL     1      48.540   7.942  13.539  0.00  0.00    +0.000 A 
ATOM      3  C   UNL     1      48.213   9.010  14.386  0.00  0.00    +0.000 A 
ATOM      4  C   UNL     1      48.340   8.880  15.772  0.00  0.00    +0.000 A 
ATOM      5  C   UNL     1      48.801   7.684  16.340  0.00  0.00    +0.000 A 
ATOM      6  C   UNL     1      49.157   6.631  15.489  0.00  0.00    +0.000 A 
ATOM      7  C   UNL     1      49.035   6.760  14.103  0.00  0.00    +0.000 A 
BRANCH   5   8
ATOM      8  C   UNL     1      48.928   7.536  17.835  0.00  0.00    +0.000 C 
BRANCH   8   9
ATOM      9  O   UNL     1      47.771   6.890  18.355  0.00  0.00    +0.000 OA
BRANCH   9  10
ATOM     10  C   UNL     1      48.126   5.792  19.205  0.00  0.00    +0.000 C 
BRANCH  10  11
ATOM     11  C   UNL     1      48.482   4.570  18.387  0.00  0.00    +0.000 A 
ATOM     12  N   UNL     1      49.776   4.179  18.365  0.00  0.00    +0.000 NA
ATOM     13  C   UNL     1      50.068   3.114  17.595  0.00  0.00    +0.000 A 
ATOM     14  C   UNL     1      49.130   2.422  16.867  0.00  0.00    +0.000 A 
ATOM     15  C   UNL     1      47.840   2.884  16.971  0.00  0.00    +0.000 A 
ATOM     16  N   UNL     1      47.486   3.944  17.723  0.00  0.00    +0.000 NA
ENDBRANCH  10  11
ENDBRANCH   9  10
ENDBRANCH   8   9
ENDBRANCH   5   8
ENDBRANCH   1   2
BRANCH   1  19
ATOM     17  C   UNL     1      46.310   6.911  11.376  0.00  0.00    +0.000 C 
ATOM     18  O   UNL     1      45.643   7.877  11.738  0.00  0.00    +0.000 OA
ATOM     19  N   UNL     1      47.674   6.915  11.500  0.00  0.00    +0.000 N 
ATOM     20  H   UNL     1      48.225   6.136  11.160  0.00  0.00    +0.000 HD
BRANCH  17  28
ATOM     21  C   UNL     1      44.495   4.300  12.719  0.00  0.00    +0.000 A 
ATOM     22  N   UNL     1      43.783   3.180  12.961  0.00  0.00    +0.000 NA
ATOM     23  C   UNL     1      43.470   2.395  11.927  0.00  0.00    +0.000 A 
ATOM     24  N   UNL     1      43.783   2.592  10.651  0.00  0.00    +0.000 NA
ATOM     25  C   UNL     1      44.496   3.711  10.453  0.00  0.00    +0.000 A 
ATOM     26  S   UNL     1      44.979   4.121   8.877  0.00  0.00    +0.000 S 
ATOM     27  C   UNL     1      45.756   5.525   9.430  0.00  0.00    +0.000 A 
ATOM     28  C   UNL     1      45.670   5.714  10.805  0.00  0.00    +0.000 A 
ATOM     29  C   UNL     1      44.910   4.629  11.416  0.00  0.00    +0.000 A 
BRANCH  21  31
ATOM     30  C   UNL     1      46.118   4.786  14.331  0.00  0.00    +0.000 C 
ATOM     31  O   UNL     1      44.833   5.097  13.794  0.00  0.00    +0.000 OA
ENDBRANCH  21  31
ENDBRANCH  17  28
ENDBRANCH   1  19
TORSDOF 8
ENDMDL
MODEL 6
REMARK VINA RESULT:    -6.200      4.784      8.976
REMARK INTER + INTRA:         -10.162
REMARK INTER:                  -9.009
REMARK INTRA:                  -1.153
REMARK UNBOUND:                -1.062
REMARK  Name = 
REMARK  9 active torsions:
REMARK  status: ('A' for Active; 'I' for Inactive)
REMARK    1  A    between atoms: C_1  and  O_2
REMARK    2  A    between atoms: O_2  and  C_3
REMARK    3  A    between atoms: C_10  and  C_11
REMARK    4  A    between atoms: N_13  and  C_14
REMARK    5  A    between atoms: C_14  and  C_15
REMARK    6  A    between atoms: C_18  and  C_19
REMARK    7  A    between atoms: C_19  and  O_20
REMARK    8  A    between atoms: O_20  and  C_21
REMARK    9  A    between atoms: C_21  and  C_22
REMARK                            x       y       z     vdW  Elec       q    Type
REMARK                         _______ _______ _______ _____ _____    ______ ____
ROOT
ATOM      1  C   UNL     1      47.490   3.635  17.083  0.00  0.00    +0.000 C 
ENDROOT
BRANCH   1   2
ATOM      2  C   UNL     1      48.960   3.390  17.294  0.00  0.00    +0.000 A 
ATOM      3  C   UNL     1      49.793   4.390  17.815  0.00  0.00    +0.000 A 
ATOM      4  C   UNL     1      51.148   4.136  18.045  0.00  0.00    +0.000 A 
ATOM      5  C   UNL     1      51.700   2.880  17.753  0.00  0.00    +0.000 A 
ATOM      6  C   UNL     1      50.873   1.895  17.202  0.00  0.00    +0.000 A 
ATOM      7  C   UNL     1      49.519   2.148  16.969  0.00  0.00    +0.000 A 
BRANCH   5   8
ATOM      8  C   UNL     1      53.159   2.598  18.010  0.00  0.00    +0.000 C 
BRANCH   8   9
ATOM      9  O   UNL     1      53.523   1.360  17.410  0.00  0.00    +0.000 OA
BRANCH   9  10
ATOM     10  C   UNL     1      54.181   0.500  18.349  0.00  0.00    +0.000 C 
BRANCH  10  11
ATOM     11  C   UNL     1      54.529  -0.827  17.711  0.00  0.00    +0.000 A 
ATOM     12  N   UNL     1      54.813  -0.839  16.390  0.00  0.00    +0.000 NA
ATOM     13  C   UNL     1      55.078  -2.040  15.843  0.00  0.00    +0.000 A 
ATOM     14  C   UNL     1      55.087  -3.214  16.557  0.00  0.00    +0.000 A 
ATOM     15  C   UNL     1      54.806  -3.096  17.897  0.00  0.00    +0.000 A 
ATOM     16  N   UNL     1      54.532  -1.923  18.500  0.00  0.00    +0.000 NA
ENDBRANCH  10  11
ENDBRANCH   9  10
ENDBRANCH   8   9
ENDBRANCH   5   8
ENDBRANCH   1   2
BRANCH   1  19
ATOM     17  C   UNL     1      47.168   4.325  14.758  0.00  0.00    +0.000 C 
ATOM     18  O   UNL     1      47.309   3.164  14.383  0.00  0.00    +0.000 OA
ATOM     19  N   UNL     1      47.249   4.647  16.087  0.00  0.00    +0.000 N 
ATOM     20  H   UNL     1      47.089   5.598  16.398  0.00  0.00    +0.000 HD
BRANCH  17  28
ATOM     21  C   UNL     1      48.874   7.202  13.902  0.00  0.00    +0.000 A 
ATOM     22  N   UNL     1      49.307   8.370  13.384  0.00  0.00    +0.000 NA
ATOM     23  C   UNL     1      48.568   8.953  12.437  0.00  0.00    +0.000 A 
ATOM     24  N   UNL     1      47.426   8.507  11.927  0.00  0.00    +0.000 NA
ATOM     25  C   UNL     1      47.026   7.347  12.472  0.00  0.00    +0.000 A 
ATOM     26  S   UNL     1      45.584   6.629  11.933  0.00  0.00    +0.000 S 
ATOM     27  C   UNL     1      45.772   5.332  13.011  0.00  0.00    +0.000 A 
ATOM     28  C   UNL     1      46.918   5.411  13.796  0.00  0.00    +0.000 A 
ATOM     29  C   UNL     1      47.671   6.617  13.468  0.00  0.00    +0.000 A 
BRANCH  21  31
ATOM     30  C   UNL     1      50.075   7.548  15.879  0.00  0.00    +0.000 C 
ATOM     31  O   UNL     1      49.630   6.614  14.895  0.00  0.00    +0.000 OA
ENDBRANCH  21  31
ENDBRANCH  17  28
ENDBRANCH   1  19
TORSDOF 8
ENDMDL
MODEL 7
REMARK VINA RESULT:    -5.996      2.764      3.287
REMARK INTER + INTRA:          -9.862
REMARK INTER:                  -8.836
REMARK INTRA:                  -1.026
REMARK UNBOUND:                -1.062
REMARK  Name = 
REMARK  9 active torsions:
REMARK  status: ('A' for Active; 'I' for Inactive)
REMARK    1  A    between atoms: C_1  and  O_2
REMARK    2  A    between atoms: O_2  and  C_3
REMARK    3  A    between atoms: C_10  and  C_11
REMARK    4  A    between atoms: N_13  and  C_14
REMARK    5  A    between atoms: C_14  and  C_15
REMARK    6  A    between atoms: C_18  and  C_19
REMARK    7  A    between atoms: C_19  and  O_20
REMARK    8  A    between atoms: O_20  and  C_21
REMARK    9  A    between atoms: C_21  and  C_22
REMARK                            x       y       z     vdW  Elec       q    Type
REMARK                         _______ _______ _______ _____ _____    ______ ____
ROOT
ATOM      1  C   UNL     1      48.592   6.804  15.981  0.00  0.00    +0.000 C 
ENDROOT
BRANCH   1   2
ATOM      2  C   UNL     1      47.859   5.903  15.023  0.00  0.00    +0.000 A 
ATOM      3  C   UNL     1      47.458   4.616  15.404  0.00  0.00    +0.000 A 
ATOM      4  C   UNL     1      46.742   3.805  14.518  0.00  0.00    +0.000 A 
ATOM      5  C   UNL     1      46.417   4.262  13.233  0.00  0.00    +0.000 A 
ATOM      6  C   UNL     1      46.848   5.535  12.845  0.00  0.00    +0.000 A 
ATOM      7  C   UNL     1      47.567   6.346  13.727  0.00  0.00    +0.000 A 
BRANCH   5   8
ATOM      8  C   UNL     1      45.635   3.395  12.279  0.00  0.00    +0.000 C 
BRANCH   8   9
ATOM      9  O   UNL     1      44.778   4.206  11.484  0.00  0.00    +0.000 OA
BRANCH   9  10
ATOM     10  C   UNL     1      44.111   3.431  10.480  0.00  0.00    +0.000 C 
BRANCH  10  11
ATOM     11  C   UNL     1      45.040   3.136   9.322  0.00  0.00    +0.000 A 
ATOM     12  N   UNL     1      45.391   1.849   9.105  0.00  0.00    +0.000 NA
ATOM     13  C   UNL     1      46.251   1.623   8.094  0.00  0.00    +0.000 A 
ATOM     14  C   UNL     1      46.757   2.617   7.291  0.00  0.00    +0.000 A 
ATOM     15  C   UNL     1      46.324   3.889   7.578  0.00  0.00    +0.000 A 
ATOM     16  N   UNL     1      45.467   4.178   8.576  0.00  0.00    +0.000 NA
ENDBRANCH  10  11
ENDBRANCH   9  10
ENDBRANCH   8   9
ENDBRANCH   5   8
ENDBRANCH   1   2
BRANCH   1  19
ATOM     17  C   UNL     1      51.004   6.584  16.329  0.00  0.00    +0.000 C 
ATOM     18  O   UNL     1      51.209   7.540  15.585  0.00  0.00    +0.000 OA
ATOM     19  N   UNL     1      49.728   6.149  16.575  0.00  0.00    +0.000 N 
ATOM     20  H   UNL     1      49.559   5.389  17.223  0.00  0.00    +0.000 HD
BRANCH  17  28
ATOM     21  C   UNL     1      51.442   3.341  17.427  0.00  0.00    +0.000 A 
ATOM     22  N   UNL     1      51.882   2.175  17.945  0.00  0.00    +0.000 NA
ATOM     23  C   UNL     1      53.119   2.133  18.445  0.00  0.00    +0.000 A 
ATOM     24  N   UNL     1      53.995   3.130  18.494  0.00  0.00    +0.000 NA
ATOM     25  C   UNL     1      53.519   4.273  17.976  0.00  0.00    +0.000 A 
ATOM     26  S   UNL     1      54.510   5.652  17.953  0.00  0.00    +0.000 S 
ATOM     27  C   UNL     1      53.290   6.574  17.215  0.00  0.00    +0.000 A 
ATOM     28  C   UNL     1      52.117   5.867  16.972  0.00  0.00    +0.000 A 
ATOM     29  C   UNL     1      52.257   4.487  17.424  0.00  0.00    +0.000 A 
BRANCH  21  31
ATOM     30  C   UNL     1      49.482   2.129  17.028  0.00  0.00    +0.000 C 
ATOM     31  O   UNL     1      50.156   3.384  16.929  0.00  0.00    +0.000 OA
ENDBRANCH  21  31
ENDBRANCH  17  28
ENDBRANCH   1  19
TORSDOF 8
ENDMDL
MODEL 8
REMARK VINA RESULT:    -5.987      3.266      4.082
REMARK INTER + INTRA:          -9.850
REMARK INTER:                  -8.824
REMARK INTRA:                  -1.026
REMARK UNBOUND:                -1.062
REMARK  Name = 
REMARK  9 active torsions:
REMARK  status: ('A' for Active; 'I' for Inactive)
REMARK    1  A    between atoms: C_1  and  O_2
REMARK    2  A    between atoms: O_2  and  C_3
REMARK    3  A    between atoms: C_10  and  C_11
REMARK    4  A    between atoms: N_13  and  C_14
REMARK    5  A    between atoms: C_14  and  C_15
REMARK    6  A    between atoms: C_18  and  C_19
REMARK    7  A    between atoms: C_19  and  O_20
REMARK    8  A    between atoms: O_20  and  C_21
REMARK    9  A    between atoms: C_21  and  C_22
REMARK                            x       y       z     vdW  Elec       q    Type
REMARK                         _______ _______ _______ _____ _____    ______ ____
ROOT
ATOM      1  C   UNL     1      48.809   6.913  15.675  0.00  0.00    +0.000 C 
ENDROOT
BRANCH   1   2
ATOM      2  C   UNL     1      47.925   6.172  14.707  0.00  0.00    +0.000 A 
ATOM      3  C   UNL     1      47.295   4.975  15.074  0.00  0.00    +0.000 A 
ATOM      4  C   UNL     1      46.443   4.319  14.179  0.00  0.00    +0.000 A 
ATOM      5  C   UNL     1      46.210   4.842  12.900  0.00  0.00    +0.000 A 
ATOM      6  C   UNL     1      46.867   6.020  12.526  0.00  0.00    +0.000 A 
ATOM      7  C   UNL     1      47.721   6.675  13.416  0.00  0.00    +0.000 A 
BRANCH   5   8
ATOM      8  C   UNL     1      45.284   4.144  11.936  0.00  0.00    +0.000 C 
BRANCH   8   9
ATOM      9  O   UNL     1      44.905   5.041  10.898  0.00  0.00    +0.000 OA
BRANCH   9  10
ATOM     10  C   UNL     1      44.167   4.365   9.871  0.00  0.00    +0.000 C 
BRANCH  10  11
ATOM     11  C   UNL     1      45.100   3.633   8.931  0.00  0.00    +0.000 A 
ATOM     12  N   UNL     1      45.202   2.291   9.060  0.00  0.00    +0.000 NA
ATOM     13  C   UNL     1      46.071   1.673   8.238  0.00  0.00    +0.000 A 
ATOM     14  C   UNL     1      46.821   2.330   7.293  0.00  0.00    +0.000 A 
ATOM     15  C   UNL     1      46.631   3.689   7.224  0.00  0.00    +0.000 A 
ATOM     16  N   UNL     1      45.779   4.364   8.020  0.00  0.00    +0.000 NA
ENDBRANCH  10  11
ENDBRANCH   9  10
ENDBRANCH   8   9
ENDBRANCH   5   8
ENDBRANCH   1   2
BRANCH   1  19
ATOM     17  C   UNL     1      50.152   5.551  17.200  0.00  0.00    +0.000 C 
ATOM     18  O   UNL     1      49.271   5.618  18.054  0.00  0.00    +0.000 OA
ATOM     19  N   UNL     1      50.004   6.173  15.989  0.00  0.00    +0.000 N 
ATOM     20  H   UNL     1      50.712   6.079  15.271  0.00  0.00    +0.000 HD
BRANCH  17  28
ATOM     21  C   UNL     1      53.499   6.383  17.046  0.00  0.00    +0.000 A 
ATOM     22  N   UNL     1      54.848   6.420  17.060  0.00  0.00    +0.000 NA
ATOM     23  C   UNL     1      55.507   5.310  17.402  0.00  0.00    +0.000 A 
ATOM     24  N   UNL     1      54.978   4.141  17.743  0.00  0.00    +0.000 NA
ATOM     25  C   UNL     1      53.636   4.142  17.710  0.00  0.00    +0.000 A 
ATOM     26  S   UNL     1      52.793   2.726  18.122  0.00  0.00    +0.000 S 
ATOM     27  C   UNL     1      51.297   3.483  17.854  0.00  0.00    +0.000 A 
ATOM     28  C   UNL     1      51.400   4.810  17.451  0.00  0.00    +0.000 A 
ATOM     29  C   UNL     1      52.802   5.205  17.370  0.00  0.00    +0.000 A 
BRANCH  21  31
ATOM     30  C   UNL     1      53.017   7.860  15.297  0.00  0.00    +0.000 C 
ATOM     31  O   UNL     1      52.824   7.526  16.672  0.00  0.00    +0.000 OA
ENDBRANCH  21  31
ENDBRANCH  17  28
ENDBRANCH   1  19
TORSDOF 8
ENDMDL
MODEL 9
REMARK VINA RESULT:    -5.556      7.120      9.828
REMARK INTER + INTRA:          -9.217
REMARK INTER:                  -8.161
REMARK INTRA:                  -1.056
REMARK UNBOUND:                -1.062
REMARK  Name = 
REMARK  9 active torsions:
REMARK  status: ('A' for Active; 'I' for Inactive)
REMARK    1  A    between atoms: C_1  and  O_2
REMARK    2  A    between atoms: O_2  and  C_3
REMARK    3  A    between atoms: C_10  and  C_11
REMARK    4  A    between atoms: N_13  and  C_14
REMARK    5  A    between atoms: C_14  and  C_15
REMARK    6  A    between atoms: C_18  and  C_19
REMARK    7  A    between atoms: C_19  and  O_20
REMARK    8  A    between atoms: O_20  and  C_21
REMARK    9  A    between atoms: C_21  and  C_22
REMARK                            x       y       z     vdW  Elec       q    Type
REMARK                         _______ _______ _______ _____ _____    ______ ____
ROOT
ATOM      1  C   UNL     1      54.098   0.736  17.667  0.00  0.00    +0.000 C 
ENDROOT
BRANCH   1   2
ATOM      2  C   UNL     1      52.868   1.604  17.701  0.00  0.00    +0.000 A 
ATOM      3  C   UNL     1      52.949   2.958  18.054  0.00  0.00    +0.000 A 
ATOM      4  C   UNL     1      51.806   3.764  18.041  0.00  0.00    +0.000 A 
ATOM      5  C   UNL     1      50.560   3.232  17.681  0.00  0.00    +0.000 A 
ATOM      6  C   UNL     1      50.478   1.872  17.361  0.00  0.00    +0.000 A 
ATOM      7  C   UNL     1      51.618   1.064  17.377  0.00  0.00    +0.000 A 
BRANCH   5   8
ATOM      8  C   UNL     1      49.327   4.100  17.655  0.00  0.00    +0.000 C 
BRANCH   8   9
ATOM      9  O   UNL     1      48.955   4.367  16.308  0.00  0.00    +0.000 OA
BRANCH   9  10
ATOM     10  C   UNL     1      47.547   4.179  16.110  0.00  0.00    +0.000 C 
BRANCH  10  11
ATOM     11  C   UNL     1      47.123   4.680  14.747  0.00  0.00    +0.000 A 
ATOM     12  N   UNL     1      47.873   5.643  14.166  0.00  0.00    +0.000 NA
ATOM     13  C   UNL     1      47.447   6.098  12.972  0.00  0.00    +0.000 A 
ATOM     14  C   UNL     1      46.325   5.625  12.336  0.00  0.00    +0.000 A 
ATOM     15  C   UNL     1      45.642   4.632  12.997  0.00  0.00    +0.000 A 
ATOM     16  N   UNL     1      46.018   4.138  14.192  0.00  0.00    +0.000 NA
ENDBRANCH  10  11
ENDBRANCH   9  10
ENDBRANCH   8   9
ENDBRANCH   5   8
ENDBRANCH   1   2
BRANCH   1  19
ATOM     17  C   UNL     1      54.113  -1.273  19.062  0.00  0.00    +0.000 C 
ATOM     18  O   UNL     1      54.695  -0.662  19.955  0.00  0.00    +0.000 OA
ATOM     19  N   UNL     1      53.784  -0.652  17.887  0.00  0.00    +0.000 N 
ATOM     20  H   UNL     1      53.265  -1.146  17.170  0.00  0.00    +0.000 HD
BRANCH  17  28
ATOM     21  C   UNL     1      54.818  -4.127  17.251  0.00  0.00    +0.000 A 
ATOM     22  N   UNL     1      54.921  -5.375  16.750  0.00  0.00    +0.000 NA
ATOM     23  C   UNL     1      54.311  -6.369  17.400  0.00  0.00    +0.000 A 
ATOM     24  N   UNL     1      53.597  -6.274  18.516  0.00  0.00    +0.000 NA
ATOM     25  C   UNL     1      53.513  -5.016  18.979  0.00  0.00    +0.000 A 
ATOM     26  S   UNL     1      52.639  -4.712  20.403  0.00  0.00    +0.000 S 
ATOM     27  C   UNL     1      52.983  -3.053  20.316  0.00  0.00    +0.000 A 
ATOM     28  C   UNL     1      53.759  -2.694  19.218  0.00  0.00    +0.000 A 
ATOM     29  C   UNL     1      54.080  -3.873  18.421  0.00  0.00    +0.000 A 
BRANCH  21  31
ATOM     30  C   UNL     1      54.874  -2.888  15.268  0.00  0.00    +0.000 C 
ATOM     31  O   UNL     1      55.434  -3.100  16.565  0.00  0.00    +0.000 OA
ENDBRANCH  21  31
ENDBRANCH  17  28
ENDBRANCH   1  19
TORSDOF 8
ENDMDL
