MODEL 1
REMARK VINA RESULT:    -7.923      0.000      0.000
REMARK INTER + INTRA:         -12.681
REMARK INTER:                 -11.860
REMARK INTRA:                  -0.821
REMARK UNBOUND:                -0.821
REMARK  Name = 
REMARK  10 active torsions:
REMARK  status: ('A' for Active; 'I' for Inactive)
REMARK    1  A    between atoms: C_1  and  C_2
REMARK    2  A    between atoms: C_2  and  N_3
REMARK    3  A    between atoms: C_2  and  C_19
REMARK    4  A    between atoms: N_3  and  C_4
REMARK    5  A    between atoms: C_4  and  C_5
REMARK    6  A    between atoms: C_8  and  C_9
REMARK    7  A    between atoms: C_9  and  O_10
REMARK    8  A    between atoms: C_9  and  C_11
REMARK    9  A    between atoms: C_11  and  N_12
REMARK   10  A    between atoms: C_19  and  C_21
REMARK                            x       y       z     vdW  Elec       q    Type
REMARK                         _______ _______ _______ _____ _____    ______ ____
ROOT
ATOM      1  N   UNL     1      47.994   5.457  15.707  0.00  0.00    +0.000 NA
ATOM      2  H   UNL     1      47.999   4.458  15.498  0.00  0.00    +0.000 HD
ENDROOT
BRANCH   1   4
ATOM      3  C   UNL     1      48.643   7.085  17.332  0.00  0.00    +0.000 C 
ATOM      4  C   UNL     1      49.067   5.770  16.682  0.00  0.00    +0.000 C 
BRANCH   4   5
ATOM      5  C   UNL     1      49.262   4.638  17.744  0.00  0.00    +0.000 C 
ATOM      6  O   UNL     1      48.287   4.084  18.245  0.00  0.00    +0.000 OA
BRANCH   5   7
ATOM      7  C   UNL     1      50.628   4.225  18.117  0.00  0.00    +0.000 A 
ATOM      8  C   UNL     1      51.494   5.034  18.835  0.00  0.00    +0.000 A 
ATOM      9  S   UNL     1      52.994   4.292  19.187  0.00  0.00    +0.000 S 
ATOM     10  C   UNL     1      52.533   2.857  18.395  0.00  0.00    +0.000 A 
ATOM     11  N   UNL     1      53.352   1.770  18.391  0.00  0.00    +0.000 NA
ATOM     12  C   UNL     1      52.851   0.734  17.804  0.00  0.00    +0.000 A 
ATOM     13  N   UNL     1      51.625   0.694  17.192  0.00  0.00    +0.000 N 
ATOM     14  C   UNL     1      50.849   1.825  17.019  0.00  0.00    +0.000 A 
ATOM     15  O   UNL     1      49.907   1.803  16.229  0.00  0.00    +0.000 OA
ATOM     16  C   UNL     1      51.288   2.971  17.789  0.00  0.00    +0.000 A 
ATOM     17  H   UNL     1      51.325  -0.122  16.686  0.00  0.00    +0.000 HD
ENDBRANCH   5   7
ENDBRANCH   4   5
ENDBRANCH   1   4
BRANCH   1  18
ATOM     18  C   UNL     1      48.122   6.207  14.458  0.00  0.00    +0.000 C 
BRANCH  18  19
ATOM     19  C   UNL     1      47.029   5.903  13.463  0.00  0.00    +0.000 A 
ATOM     20  C   UNL     1      46.235   4.771  13.620  0.00  0.00    +0.000 A 
ATOM     21  N   UNL     1      45.390   4.324  12.664  0.00  0.00    +0.000 NA
ATOM     22  C   UNL     1      45.326   5.079  11.544  0.00  0.00    +0.000 A 
ATOM     23  C   UNL     1      46.075   6.249  11.408  0.00  0.00    +0.000 A 
ATOM     24  N   UNL     1      46.937   6.681  12.352  0.00  0.00    +0.000 NA
BRANCH  22  25
ATOM     25  C   UNL     1      44.505   4.587  10.377  0.00  0.00    +0.000 C 
BRANCH  25  26
ATOM     26  O   UNL     1      43.402   5.484  10.160  0.00  0.00    +0.000 OA
ATOM     27  H   UNL     1      42.612   4.999  10.477  0.00  0.00    +0.000 HD
ENDBRANCH  25  26
BRANCH  25  28
ATOM     28  C   UNL     1      45.304   4.469   9.056  0.00  0.00    +0.000 C 
BRANCH  28  29
ATOM     29  N   UNL     1      44.807   3.474   8.079  0.00  0.00    +0.000 NA
ATOM     30  C   UNL     1      45.774   3.174   7.023  0.00  0.00    +0.000 C 
ATOM     31  C   UNL     1      46.720   2.172   7.654  0.00  0.00    +0.000 C 
ATOM     32  O   UNL     1      45.978   1.529   8.700  0.00  0.00    +0.000 OA
ATOM     33  C   UNL     1      44.696   2.164   8.723  0.00  0.00    +0.000 C 
ENDBRANCH  28  29
ENDBRANCH  25  28
ENDBRANCH  22  25
ENDBRANCH  18  19
ENDBRANCH   1  18
TORSDOF 9
ENDMDL
MODEL 2
REMARK VINA RESULT:    -7.607      2.834      8.821
REMARK INTER + INTRA:         -12.208
REMARK INTER:                 -11.103
REMARK INTRA:                  -1.105
REMARK UNBOUND:                -0.821
REMARK  Name = 
REMARK  10 active torsions:
REMARK  status: ('A' for Active; 'I' for Inactive)
REMARK    1  A    between atoms: C_1  and  C_2
REMARK    2  A    between atoms: C_2  and  N_3
REMARK    3  A    between atoms: C_2  and  C_19
REMARK    4  A    between atoms: N_3  and  C_4
REMARK    5  A    between atoms: C_4  and  C_5
REMARK    6  A    between atoms: C_8  and  C_9
REMARK    7  A    between atoms: C_9  and  O_10
REMARK    8  A    between atoms: C_9  and  C_11
REMARK    9  A    between atoms: C_11  and  N_12
REMARK   10  A    between atoms: C_19  and  C_21
REMARK                            x       y       z     vdW  Elec       q    Type
REMARK                         _______ _______ _______ _____ _____    ______ ____
ROOT
ATOM      1  N   UNL     1      47.384   6.678  12.049  0.00  0.00    +0.000 NA
ATOM      2  H   UNL     1      47.122   5.700  11.926  0.00  0.00    +0.000 HD
ENDROOT
BRANCH   1   4
ATOM      3  C   UNL     1      46.562   8.923  12.057  0.00  0.00    +0.000 C 
ATOM      4  C   UNL     1      46.184   7.480  12.388  0.00  0.00    +0.000 C 
BRANCH   4   5
ATOM      5  C   UNL     1      44.913   7.022  11.601  0.00  0.00    +0.000 C 
ATOM      6  O   UNL     1      44.249   7.839  10.968  0.00  0.00    +0.000 OA
BRANCH   5   7
ATOM      7  C   UNL     1      44.536   5.596  11.605  0.00  0.00    +0.000 A 
ATOM      8  C   UNL     1      43.921   4.978  12.681  0.00  0.00    +0.000 A 
ATOM      9  S   UNL     1      43.536   3.335  12.403  0.00  0.00    +0.000 S 
ATOM     10  C   UNL     1      44.174   3.395  10.826  0.00  0.00    +0.000 A 
ATOM     11  N   UNL     1      44.094   2.317  10.000  0.00  0.00    +0.000 NA
ATOM     12  C   UNL     1      44.565   2.522   8.815  0.00  0.00    +0.000 A 
ATOM     13  N   UNL     1      45.139   3.693   8.390  0.00  0.00    +0.000 N 
ATOM     14  C   UNL     1      45.402   4.742   9.251  0.00  0.00    +0.000 A 
ATOM     15  O   UNL     1      46.162   5.642   8.902  0.00  0.00    +0.000 OA
ATOM     16  C   UNL     1      44.757   4.625  10.544  0.00  0.00    +0.000 A 
ATOM     17  H   UNL     1      45.556   3.763   7.477  0.00  0.00    +0.000 HD
ENDBRANCH   5   7
ENDBRANCH   4   5
ENDBRANCH   1   4
BRANCH   1  18
ATOM     18  C   UNL     1      48.435   6.767  13.062  0.00  0.00    +0.000 C 
BRANCH  18  19
ATOM     19  C   UNL     1      48.076   6.080  14.358  0.00  0.00    +0.000 A 
ATOM     20  C   UNL     1      48.596   6.544  15.562  0.00  0.00    +0.000 A 
ATOM     21  N   UNL     1      48.493   5.858  16.722  0.00  0.00    +0.000 NA
ATOM     22  C   UNL     1      47.804   4.697  16.653  0.00  0.00    +0.000 A 
ATOM     23  C   UNL     1      47.228   4.259  15.459  0.00  0.00    +0.000 A 
ATOM     24  N   UNL     1      47.353   4.931  14.295  0.00  0.00    +0.000 NA
BRANCH  22  25
ATOM     25  C   UNL     1      47.748   3.806  17.871  0.00  0.00    +0.000 C 
BRANCH  25  26
ATOM     26  O   UNL     1      46.694   2.842  17.706  0.00  0.00    +0.000 OA
ATOM     27  H   UNL     1      46.465   2.873  16.754  0.00  0.00    +0.000 HD
ENDBRANCH  25  26
BRANCH  25  28
ATOM     28  C   UNL     1      49.066   3.043  18.149  0.00  0.00    +0.000 C 
BRANCH  28  29
ATOM     29  N   UNL     1      50.079   3.074  17.070  0.00  0.00    +0.000 NA
ATOM     30  C   UNL     1      51.318   3.745  17.464  0.00  0.00    +0.000 C 
ATOM     31  C   UNL     1      52.086   2.692  18.238  0.00  0.00    +0.000 C 
ATOM     32  O   UNL     1      51.608   1.425  17.766  0.00  0.00    +0.000 OA
ATOM     33  C   UNL     1      50.574   1.719  16.821  0.00  0.00    +0.000 C 
ENDBRANCH  28  29
ENDBRANCH  25  28
ENDBRANCH  22  25
ENDBRANCH  18  19
ENDBRANCH   1  18
TORSDOF 9
ENDMDL
MODEL 3
REMARK VINA RESULT:    -6.733      3.291      9.216
REMARK INTER + INTRA:         -10.900
REMARK INTER:                  -9.653
REMARK INTRA:                  -1.246
REMARK UNBOUND:                -0.821
REMARK  Name = 
REMARK  10 active torsions:
REMARK  status: ('A' for Active; 'I' for Inactive)
REMARK    1  A    between atoms: C_1  and  C_2
REMARK    2  A    between atoms: C_2  and  N_3
REMARK    3  A    between atoms: C_2  and  C_19
REMARK    4  A    between atoms: N_3  and  C_4
REMARK    5  A    between atoms: C_4  and  C_5
REMARK    6  A    between atoms: C_8  and  C_9
REMARK    7  A    between atoms: C_9  and  O_10
REMARK    8  A    between atoms: C_9  and  C_11
REMARK    9  A    between atoms: C_11  and  N_12
REMARK   10  A    between atoms: C_19  and  C_21
REMARK                            x       y       z     vdW  Elec       q    Type
REMARK                         _______ _______ _______ _____ _____    ______ ____
ROOT
ATOM      1  N   UNL     1      46.182   6.583  13.648  0.00  0.00    +0.000 NA
ATOM      2  H   UNL     1      46.370   7.130  14.488  0.00  0.00    +0.000 HD
ENDROOT
BRANCH   1   4
ATOM      3  C   UNL     1      47.706   6.993  11.852  0.00  0.00    +0.000 C 
ATOM      4  C   UNL     1      46.368   7.430  12.446  0.00  0.00    +0.000 C 
BRANCH   4   5
ATOM      5  C   UNL     1      45.202   7.274  11.415  0.00  0.00    +0.000 C 
ATOM      6  O   UNL     1      44.480   8.232  11.148  0.00  0.00    +0.000 OA
BRANCH   5   7
ATOM      7  C   UNL     1      44.996   5.975  10.749  0.00  0.00    +0.000 A 
ATOM      8  C   UNL     1      45.453   5.698   9.471  0.00  0.00    +0.000 A 
ATOM      9  S   UNL     1      45.133   4.097   8.959  0.00  0.00    +0.000 S 
ATOM     10  C   UNL     1      44.375   3.717  10.434  0.00  0.00    +0.000 A 
ATOM     11  N   UNL     1      43.926   2.457  10.683  0.00  0.00    +0.000 NA
ATOM     12  C   UNL     1      43.425   2.297  11.863  0.00  0.00    +0.000 A 
ATOM     13  N   UNL     1      43.300   3.287  12.804  0.00  0.00    +0.000 N 
ATOM     14  C   UNL     1      43.576   4.612  12.522  0.00  0.00    +0.000 A 
ATOM     15  O   UNL     1      43.186   5.492  13.288  0.00  0.00    +0.000 OA
ATOM     16  C   UNL     1      44.283   4.821  11.275  0.00  0.00    +0.000 A 
ATOM     17  H   UNL     1      42.831   3.115  13.677  0.00  0.00    +0.000 HD
ENDBRANCH   5   7
ENDBRANCH   4   5
ENDBRANCH   1   4
BRANCH   1  18
ATOM     18  C   UNL     1      47.041   5.398  13.649  0.00  0.00    +0.000 C 
BRANCH  18  19
ATOM     19  C   UNL     1      47.514   5.003  15.027  0.00  0.00    +0.000 A 
ATOM     20  C   UNL     1      48.492   5.754  15.672  0.00  0.00    +0.000 A 
ATOM     21  N   UNL     1      49.111   5.343  16.801  0.00  0.00    +0.000 NA
ATOM     22  C   UNL     1      48.686   4.160  17.301  0.00  0.00    +0.000 A 
ATOM     23  C   UNL     1      47.662   3.434  16.690  0.00  0.00    +0.000 A 
ATOM     24  N   UNL     1      47.062   3.832  15.549  0.00  0.00    +0.000 NA
BRANCH  22  25
ATOM     25  C   UNL     1      49.409   3.565  18.486  0.00  0.00    +0.000 C 
BRANCH  25  26
ATOM     26  O   UNL     1      48.453   3.235  19.508  0.00  0.00    +0.000 OA
ATOM     27  H   UNL     1      48.959   2.730  20.178  0.00  0.00    +0.000 HD
ENDBRANCH  25  26
BRANCH  25  28
ATOM     28  C   UNL     1      50.221   2.291  18.148  0.00  0.00    +0.000 C 
BRANCH  28  29
ATOM     29  N   UNL     1      51.424   2.487  17.309  0.00  0.00    +0.000 NA
ATOM     30  C   UNL     1      52.326   3.515  17.829  0.00  0.00    +0.000 C 
ATOM     31  C   UNL     1      53.120   2.807  18.909  0.00  0.00    +0.000 C 
ATOM     32  O   UNL     1      53.098   1.414  18.569  0.00  0.00    +0.000 OA
ATOM     33  C   UNL     1      52.284   1.305  17.398  0.00  0.00    +0.000 C 
ENDBRANCH  28  29
ENDBRANCH  25  28
ENDBRANCH  22  25
ENDBRANCH  18  19
ENDBRANCH   1  18
TORSDOF 9
ENDMDL
MODEL 4
REMARK VINA RESULT:    -6.363      2.877      9.451
REMARK INTER + INTRA:         -10.346
REMARK INTER:                  -9.551
REMARK INTRA:                  -0.794
REMARK UNBOUND:                -0.821
REMARK  Name = 
REMARK  10 active torsions:
REMARK  status: ('A' for Active; 'I' for Inactive)
REMARK    1  A    between atoms: C_1  and  C_2
REMARK    2  A    between atoms: C_2  and  N_3
REMARK    3  A    between atoms: C_2  and  C_19
REMARK    4  A    between atoms: N_3  and  C_4
REMARK    5  A    between atoms: C_4  and  C_5
REMARK    6  A    between atoms: C_8  and  C_9
REMARK    7  A    between atoms: C_9  and  O_10
REMARK    8  A    between atoms: C_9  and  C_11
REMARK    9  A    between atoms: C_11  and  N_12
REMARK   10  A    between atoms: C_19  and  C_21
REMARK                            x       y       z     vdW  Elec       q    Type
REMARK                         _______ _______ _______ _____ _____    ______ ____
ROOT
ATOM      1  N   UNL     1      46.813   5.578  12.998  0.00  0.00    +0.000 NA
ATOM      2  H   UNL     1      46.738   4.981  12.175  0.00  0.00    +0.000 HD
ENDROOT
BRANCH   1   4
ATOM      3  C   UNL     1      46.864   7.861  12.290  0.00  0.00    +0.000 C 
ATOM      4  C   UNL     1      45.944   6.769  12.834  0.00  0.00    +0.000 C 
BRANCH   4   5
ATOM      5  C   UNL     1      44.736   6.503  11.878  0.00  0.00    +0.000 C 
ATOM      6  O   UNL     1      44.094   7.444  11.415  0.00  0.00    +0.000 OA
BRANCH   5   7
ATOM      7  C   UNL     1      44.390   5.116  11.517  0.00  0.00    +0.000 A 
ATOM      8  C   UNL     1      43.669   4.275  12.348  0.00  0.00    +0.000 A 
ATOM      9  S   UNL     1      43.353   2.738  11.665  0.00  0.00    +0.000 S 
ATOM     10  C   UNL     1      44.167   3.149  10.228  0.00  0.00    +0.000 A 
ATOM     11  N   UNL     1      44.206   2.285   9.177  0.00  0.00    +0.000 NA
ATOM     12  C   UNL     1      44.806   2.749   8.132  0.00  0.00    +0.000 A 
ATOM     13  N   UNL     1      45.401   3.982   8.052  0.00  0.00    +0.000 N 
ATOM     14  C   UNL     1      45.540   4.809   9.151  0.00  0.00    +0.000 A 
ATOM     15  O   UNL     1      46.317   5.761   9.104  0.00  0.00    +0.000 OA
ATOM     16  C   UNL     1      44.753   4.408  10.299  0.00  0.00    +0.000 A 
ATOM     17  H   UNL     1      45.919   4.254   7.233  0.00  0.00    +0.000 HD
ENDBRANCH   5   7
ENDBRANCH   4   5
ENDBRANCH   1   4
BRANCH   1  18
ATOM     18  C   UNL     1      46.485   4.793  14.188  0.00  0.00    +0.000 C 
BRANCH  18  19
ATOM     19  C   UNL     1      47.540   4.870  15.265  0.00  0.00    +0.000 A 
ATOM     20  C   UNL     1      47.483   4.017  16.362  0.00  0.00    +0.000 A 
ATOM     21  N   UNL     1      48.260   4.171  17.457  0.00  0.00    +0.000 NA
ATOM     22  C   UNL     1      49.144   5.193  17.405  0.00  0.00    +0.000 A 
ATOM     23  C   UNL     1      49.247   6.013  16.280  0.00  0.00    +0.000 A 
ATOM     24  N   UNL     1      48.454   5.874  15.197  0.00  0.00    +0.000 NA
BRANCH  22  25
ATOM     25  C   UNL     1      49.962   5.515  18.632  0.00  0.00    +0.000 C 
BRANCH  25  26
ATOM     26  O   UNL     1      49.094   5.589  19.776  0.00  0.00    +0.000 OA
ATOM     27  H   UNL     1      48.318   6.107  19.476  0.00  0.00    +0.000 HD
ENDBRANCH  25  26
BRANCH  25  28
ATOM     28  C   UNL     1      51.075   4.482  18.932  0.00  0.00    +0.000 C 
BRANCH  28  29
ATOM     29  N   UNL     1      51.819   3.966  17.761  0.00  0.00    +0.000 NA
ATOM     30  C   UNL     1      53.268   4.133  17.882  0.00  0.00    +0.000 C 
ATOM     31  C   UNL     1      53.709   2.972  18.751  0.00  0.00    +0.000 C 
ATOM     32  O   UNL     1      52.716   1.950  18.582  0.00  0.00    +0.000 OA
ATOM     33  C   UNL     1      51.720   2.505  17.719  0.00  0.00    +0.000 C 
ENDBRANCH  28  29
ENDBRANCH  25  28
ENDBRANCH  22  25
ENDBRANCH  18  19
ENDBRANCH   1  18
TORSDOF 9
ENDMDL
MODEL 5
REMARK VINA RESULT:    -6.193      3.610      9.621
REMARK INTER + INTRA:         -10.092
REMARK INTER:                  -9.525
REMARK INTRA:                  -0.567
REMARK UNBOUND:                -0.821
REMARK  Name = 
REMARK  10 active torsions:
REMARK  status: ('A' for Active; 'I' for Inactive)
REMARK    1  A    between atoms: C_1  and  C_2
REMARK    2  A    between atoms: C_2  and  N_3
REMARK    3  A    between atoms: C_2  and  C_19
REMARK    4  A    between atoms: N_3  and  C_4
REMARK    5  A    between atoms: C_4  and  C_5
REMARK    6  A    between atoms: C_8  and  C_9
REMARK    7  A    between atoms: C_9  and  O_10
REMARK    8  A    between atoms: C_9  and  C_11
REMARK    9  A    between atoms: C_11  and  N_12
REMARK   10  A    between atoms: C_19  and  C_21
REMARK                            x       y       z     vdW  Elec       q    Type
REMARK                         _______ _______ _______ _____ _____    ______ ____
ROOT
ATOM      1  N   UNL     1      45.221   3.065  11.739  0.00  0.00    +0.000 NA
ATOM      2  H   UNL     1      45.445   2.155  12.142  0.00  0.00    +0.000 HD
ENDROOT
BRANCH   1   4
ATOM      3  C   UNL     1      43.033   3.926  11.310  0.00  0.00    +0.000 C 
ATOM      4  C   UNL     1      44.077   2.932  10.806  0.00  0.00    +0.000 C 
BRANCH   4   5
ATOM      5  C   UNL     1      44.476   3.219   9.321  0.00  0.00    +0.000 C 
ATOM      6  O   UNL     1      44.084   4.240   8.761  0.00  0.00    +0.000 OA
BRANCH   5   7
ATOM      7  C   UNL     1      45.348   2.266   8.610  0.00  0.00    +0.000 A 
ATOM      8  C   UNL     1      45.288   0.896   8.802  0.00  0.00    +0.000 A 
ATOM      9  S   UNL     1      46.366   0.014   7.809  0.00  0.00    +0.000 S 
ATOM     10  C   UNL     1      46.949   1.439   7.082  0.00  0.00    +0.000 A 
ATOM     11  N   UNL     1      47.860   1.384   6.072  0.00  0.00    +0.000 NA
ATOM     12  C   UNL     1      48.169   2.536   5.575  0.00  0.00    +0.000 A 
ATOM     13  N   UNL     1      47.678   3.738   6.017  0.00  0.00    +0.000 N 
ATOM     14  C   UNL     1      46.897   3.845   7.152  0.00  0.00    +0.000 A 
ATOM     15  O   UNL     1      46.718   4.947   7.667  0.00  0.00    +0.000 OA
ATOM     16  C   UNL     1      46.396   2.580   7.651  0.00  0.00    +0.000 A 
ATOM     17  H   UNL     1      48.017   4.606   5.637  0.00  0.00    +0.000 HD
ENDBRANCH   5   7
ENDBRANCH   4   5
ENDBRANCH   1   4
BRANCH   1  18
ATOM     18  C   UNL     1      44.967   4.017  12.820  0.00  0.00    +0.000 C 
BRANCH  18  19
ATOM     19  C   UNL     1      46.198   4.780  13.246  0.00  0.00    +0.000 A 
ATOM     20  C   UNL     1      46.884   4.412  14.400  0.00  0.00    +0.000 A 
ATOM     21  N   UNL     1      47.855   5.173  14.953  0.00  0.00    +0.000 NA
ATOM     22  C   UNL     1      48.158   6.308  14.285  0.00  0.00    +0.000 A 
ATOM     23  C   UNL     1      47.515   6.649  13.094  0.00  0.00    +0.000 A 
ATOM     24  N   UNL     1      46.528   5.903  12.555  0.00  0.00    +0.000 NA
BRANCH  22  25
ATOM     25  C   UNL     1      49.140   7.278  14.898  0.00  0.00    +0.000 C 
BRANCH  25  26
ATOM     26  O   UNL     1      48.517   8.567  15.027  0.00  0.00    +0.000 OA
ATOM     27  H   UNL     1      47.832   8.453  15.719  0.00  0.00    +0.000 HD
ENDBRANCH  25  26
BRANCH  25  28
ATOM     28  C   UNL     1      49.658   6.846  16.292  0.00  0.00    +0.000 C 
BRANCH  28  29
ATOM     29  N   UNL     1      50.871   5.999  16.304  0.00  0.00    +0.000 NA
ATOM     30  C   UNL     1      52.093   6.750  16.595  0.00  0.00    +0.000 C 
ATOM     31  C   UNL     1      52.100   6.886  18.104  0.00  0.00    +0.000 C 
ATOM     32  O   UNL     1      51.320   5.793  18.606  0.00  0.00    +0.000 OA
ATOM     33  C   UNL     1      50.830   5.096  17.456  0.00  0.00    +0.000 C 
ENDBRANCH  28  29
ENDBRANCH  25  28
ENDBRANCH  22  25
ENDBRANCH  18  19
ENDBRANCH   1  18
TORSDOF 9
ENDMDL
MODEL 6
REMARK VINA RESULT:    -6.136      2.679      3.524
REMARK INTER + INTRA:         -10.007
REMARK INTER:                  -9.246
REMARK INTRA:                  -0.761
REMARK UNBOUND:                -0.821
REMARK  Name = 
REMARK  10 active torsions:
REMARK  status: ('A' for Active; 'I' for Inactive)
REMARK    1  A    between atoms: C_1  and  C_2
REMARK    2  A    between atoms: C_2  and  N_3
REMARK    3  A    between atoms: C_2  and  C_19
REMARK    4  A    between atoms: N_3  and  C_4
REMARK    5  A    between atoms: C_4  and  C_5
REMARK    6  A    between atoms: C_8  and  C_9
REMARK    7  A    between atoms: C_9  and  O_10
REMARK    8  A    between atoms: C_9  and  C_11
REMARK    9  A    between atoms: C_11  and  N_12
REMARK   10  A    between atoms: C_19  and  C_21
REMARK                            x       y       z     vdW  Elec       q    Type
REMARK                         _______ _______ _______ _____ _____    ______ ____
ROOT
ATOM      1  N   UNL     1      48.230   7.633  14.945  0.00  0.00    +0.000 NA
ATOM      2  H   UNL     1      48.096   7.146  15.831  0.00  0.00    +0.000 HD
ENDROOT
BRANCH   1   4
ATOM      3  C   UNL     1      49.087   9.832  14.562  0.00  0.00    +0.000 C 
ATOM      4  C   UNL     1      49.485   8.421  14.992  0.00  0.00    +0.000 C 
BRANCH   4   5
ATOM      5  C   UNL     1      50.146   8.415  16.409  0.00  0.00    +0.000 C 
ATOM      6  O   UNL     1      51.257   8.911  16.577  0.00  0.00    +0.000 OA
BRANCH   5   7
ATOM      7  C   UNL     1      49.410   7.833  17.547  0.00  0.00    +0.000 A 
ATOM      8  C   UNL     1      48.606   8.580  18.391  0.00  0.00    +0.000 A 
ATOM      9  S   UNL     1      47.819   7.651  19.593  0.00  0.00    +0.000 S 
ATOM     10  C   UNL     1      48.524   6.212  19.019  0.00  0.00    +0.000 A 
ATOM     11  N   UNL     1      48.204   5.010  19.573  0.00  0.00    +0.000 NA
ATOM     12  C   UNL     1      48.768   3.998  19.001  0.00  0.00    +0.000 A 
ATOM     13  N   UNL     1      49.647   4.078  17.952  0.00  0.00    +0.000 N 
ATOM     14  C   UNL     1      50.133   5.285  17.486  0.00  0.00    +0.000 A 
ATOM     15  O   UNL     1      51.117   5.303  16.749  0.00  0.00    +0.000 OA
ATOM     16  C   UNL     1      49.420   6.445  17.982  0.00  0.00    +0.000 A 
ATOM     17  H   UNL     1      50.110   3.256  17.601  0.00  0.00    +0.000 HD
ENDBRANCH   5   7
ENDBRANCH   4   5
ENDBRANCH   1   4
BRANCH   1  18
ATOM     18  C   UNL     1      48.210   6.658  13.855  0.00  0.00    +0.000 C 
BRANCH  18  19
ATOM     19  C   UNL     1      46.854   6.032  13.637  0.00  0.00    +0.000 A 
ATOM     20  C   UNL     1      46.663   4.675  13.878  0.00  0.00    +0.000 A 
ATOM     21  N   UNL     1      45.547   4.010  13.504  0.00  0.00    +0.000 NA
ATOM     22  C   UNL     1      44.590   4.761  12.914  0.00  0.00    +0.000 A 
ATOM     23  C   UNL     1      44.753   6.136  12.727  0.00  0.00    +0.000 A 
ATOM     24  N   UNL     1      45.877   6.795  13.077  0.00  0.00    +0.000 NA
BRANCH  22  25
ATOM     25  C   UNL     1      43.367   4.079  12.353  0.00  0.00    +0.000 C 
BRANCH  25  26
ATOM     26  O   UNL     1      42.278   5.017  12.308  0.00  0.00    +0.000 OA
ATOM     27  H   UNL     1      42.689   5.894  12.459  0.00  0.00    +0.000 HD
ENDBRANCH  25  26
BRANCH  25  28
ATOM     28  C   UNL     1      43.570   3.501  10.931  0.00  0.00    +0.000 C 
BRANCH  28  29
ATOM     29  N   UNL     1      44.960   3.490  10.423  0.00  0.00    +0.000 NA
ATOM     30  C   UNL     1      45.218   2.402   9.479  0.00  0.00    +0.000 C 
ATOM     31  C   UNL     1      44.676   2.913   8.159  0.00  0.00    +0.000 C 
ATOM     32  O   UNL     1      44.708   4.344   8.244  0.00  0.00    +0.000 OA
ATOM     33  C   UNL     1      45.178   4.652   9.559  0.00  0.00    +0.000 C 
ENDBRANCH  28  29
ENDBRANCH  25  28
ENDBRANCH  22  25
ENDBRANCH  18  19
ENDBRANCH   1  18
TORSDOF 9
ENDMDL
MODEL 7
REMARK VINA RESULT:    -6.096      5.114      9.143
REMARK INTER + INTRA:          -9.946
REMARK INTER:                  -9.258
REMARK INTRA:                  -0.688
REMARK UNBOUND:                -0.821
REMARK  Name = 
REMARK  10 active torsions:
REMARK  status: ('A' for Active; 'I' for Inactive)
REMARK    1  A    between atoms: C_1  and  C_2
REMARK    2  A    between atoms: C_2  and  N_3
REMARK    3  A    between atoms: C_2  and  C_19
REMARK    4  A    between atoms: N_3  and  C_4
REMARK    5  A    between atoms: C_4  and  C_5
REMARK    6  A    between atoms: C_8  and  C_9
REMARK    7  A    between atoms: C_9  and  O_10
REMARK    8  A    between atoms: C_9  and  C_11
REMARK    9  A    between atoms: C_11  and  N_12
REMARK   10  A    between atoms: C_19  and  C_21
REMARK                            x       y       z     vdW  Elec       q    Type
REMARK                         _______ _______ _______ _____ _____    ______ ____
ROOT
ATOM      1  N   UNL     1      45.313   3.175  11.802  0.00  0.00    +0.000 NA
ATOM      2  H   UNL     1      45.689   2.317  12.206  0.00  0.00    +0.000 HD
ENDROOT
BRANCH   1   4
ATOM      3  C   UNL     1      43.017   3.691  11.382  0.00  0.00    +0.000 C 
ATOM      4  C   UNL     1      44.191   2.848  10.889  0.00  0.00    +0.000 C 
BRANCH   4   5
ATOM      5  C   UNL     1      44.529   3.150   9.392  0.00  0.00    +0.000 C 
ATOM      6  O   UNL     1      44.102   4.169   8.854  0.00  0.00    +0.000 OA
BRANCH   5   7
ATOM      7  C   UNL     1      45.386   2.213   8.641  0.00  0.00    +0.000 A 
ATOM      8  C   UNL     1      45.334   0.839   8.808  0.00  0.00    +0.000 A 
ATOM      9  S   UNL     1      46.390  -0.020   7.772  0.00  0.00    +0.000 S 
ATOM     10  C   UNL     1      46.950   1.421   7.058  0.00  0.00    +0.000 A 
ATOM     11  N   UNL     1      47.836   1.388   6.025  0.00  0.00    +0.000 NA
ATOM     12  C   UNL     1      48.130   2.551   5.544  0.00  0.00    +0.000 A 
ATOM     13  N   UNL     1      47.647   3.743   6.020  0.00  0.00    +0.000 N 
ATOM     14  C   UNL     1      46.894   3.825   7.176  0.00  0.00    +0.000 A 
ATOM     15  O   UNL     1      46.725   4.916   7.717  0.00  0.00    +0.000 OA
ATOM     16  C   UNL     1      46.409   2.549   7.663  0.00  0.00    +0.000 A 
ATOM     17  H   UNL     1      47.975   4.619   5.649  0.00  0.00    +0.000 HD
ENDBRANCH   5   7
ENDBRANCH   4   5
ENDBRANCH   1   4
BRANCH   1  18
ATOM     18  C   UNL     1      44.923   4.081  12.882  0.00  0.00    +0.000 C 
BRANCH  18  19
ATOM     19  C   UNL     1      45.836   5.275  13.020  0.00  0.00    +0.000 A 
ATOM     20  C   UNL     1      47.033   5.163  13.721  0.00  0.00    +0.000 A 
ATOM     21  N   UNL     1      47.788   6.229  14.065  0.00  0.00    +0.000 NA
ATOM     22  C   UNL     1      47.330   7.429  13.642  0.00  0.00    +0.000 A 
ATOM     23  C   UNL     1      46.162   7.539  12.885  0.00  0.00    +0.000 A 
ATOM     24  N   UNL     1      45.394   6.477  12.563  0.00  0.00    +0.000 NA
BRANCH  22  25
ATOM     25  C   UNL     1      48.042   8.683  14.088  0.00  0.00    +0.000 C 
BRANCH  25  26
ATOM     26  O   UNL     1      47.471   9.138  15.328  0.00  0.00    +0.000 OA
ATOM     27  H   UNL     1      46.502   9.101  15.192  0.00  0.00    +0.000 HD
ENDBRANCH  25  26
BRANCH  25  28
ATOM     28  C   UNL     1      49.565   8.499  14.293  0.00  0.00    +0.000 C 
BRANCH  28  29
ATOM     29  N   UNL     1      50.441   9.443  13.563  0.00  0.00    +0.000 NA
ATOM     30  C   UNL     1      51.591   8.790  12.936  0.00  0.00    +0.000 C 
ATOM     31  C   UNL     1      51.039   8.212  11.648  0.00  0.00    +0.000 C 
ATOM     32  O   UNL     1      49.892   9.005  11.316  0.00  0.00    +0.000 OA
ATOM     33  C   UNL     1      49.742   9.949  12.381  0.00  0.00    +0.000 C 
ENDBRANCH  28  29
ENDBRANCH  25  28
ENDBRANCH  22  25
ENDBRANCH  18  19
ENDBRANCH   1  18
TORSDOF 9
ENDMDL
MODEL 8
REMARK VINA RESULT:    -6.041      3.504      9.846
REMARK INTER + INTRA:          -9.863
REMARK INTER:                  -9.088
REMARK INTRA:                  -0.776
REMARK UNBOUND:                -0.821
REMARK  Name = 
REMARK  10 active torsions:
REMARK  status: ('A' for Active; 'I' for Inactive)
REMARK    1  A    between atoms: C_1  and  C_2
REMARK    2  A    between atoms: C_2  and  N_3
REMARK    3  A    between atoms: C_2  and  C_19
REMARK    4  A    between atoms: N_3  and  C_4
REMARK    5  A    between atoms: C_4  and  C_5
REMARK    6  A    between atoms: C_8  and  C_9
REMARK    7  A    between atoms: C_9  and  O_10
REMARK    8  A    between atoms: C_9  and  C_11
REMARK    9  A    between atoms: C_11  and  N_12
REMARK   10  A    between atoms: C_19  and  C_21
REMARK                            x       y       z     vdW  Elec       q    Type
REMARK                         _______ _______ _______ _____ _____    ______ ____
ROOT
ATOM      1  N   UNL     1      45.835   4.107  13.704  0.00  0.00    +0.000 NA
ATOM      2  H   UNL     1      45.935   5.121  13.675  0.00  0.00    +0.000 HD
ENDROOT
BRANCH   1   4
ATOM      3  C   UNL     1      43.763   3.400  12.744  0.00  0.00    +0.000 C 
ATOM      4  C   UNL     1      45.241   3.626  12.433  0.00  0.00    +0.000 C 
BRANCH   4   5
ATOM      5  C   UNL     1      45.435   4.641  11.258  0.00  0.00    +0.000 C 
ATOM      6  O   UNL     1      45.306   4.272  10.093  0.00  0.00    +0.000 OA
BRANCH   5   7
ATOM      7  C   UNL     1      45.747   6.049  11.564  0.00  0.00    +0.000 A 
ATOM      8  C   UNL     1      46.996   6.474  11.985  0.00  0.00    +0.000 A 
ATOM      9  S   UNL     1      47.107   8.166  12.212  0.00  0.00    +0.000 S 
ATOM     10  C   UNL     1      45.484   8.390  11.749  0.00  0.00    +0.000 A 
ATOM     11  N   UNL     1      44.951   9.639  11.656  0.00  0.00    +0.000 NA
ATOM     12  C   UNL     1      43.729   9.663  11.237  0.00  0.00    +0.000 A 
ATOM     13  N   UNL     1      42.981   8.554  10.936  0.00  0.00    +0.000 N 
ATOM     14  C   UNL     1      43.426   7.271  11.191  0.00  0.00    +0.000 A 
ATOM     15  O   UNL     1      42.629   6.335  11.175  0.00  0.00    +0.000 OA
ATOM     16  C   UNL     1      44.837   7.183  11.511  0.00  0.00    +0.000 A 
ATOM     17  H   UNL     1      42.009   8.638  10.688  0.00  0.00    +0.000 HD
ENDBRANCH   5   7
ENDBRANCH   4   5
ENDBRANCH   1   4
BRANCH   1  18
ATOM     18  C   UNL     1      47.139   3.506  13.986  0.00  0.00    +0.000 C 
BRANCH  18  19
ATOM     19  C   UNL     1      47.479   3.479  15.457  0.00  0.00    +0.000 A 
ATOM     20  C   UNL     1      46.823   4.329  16.342  0.00  0.00    +0.000 A 
ATOM     21  N   UNL     1      47.221   4.511  17.621  0.00  0.00    +0.000 NA
ATOM     22  C   UNL     1      48.284   3.772  18.011  0.00  0.00    +0.000 A 
ATOM     23  C   UNL     1      48.906   2.872  17.144  0.00  0.00    +0.000 A 
ATOM     24  N   UNL     1      48.524   2.709  15.859  0.00  0.00    +0.000 NA
BRANCH  22  25
ATOM     25  C   UNL     1      48.872   4.005  19.382  0.00  0.00    +0.000 C 
BRANCH  25  26
ATOM     26  O   UNL     1      50.307   4.042  19.283  0.00  0.00    +0.000 OA
ATOM     27  H   UNL     1      50.506   4.832  18.738  0.00  0.00    +0.000 HD
ENDBRANCH  25  26
BRANCH  25  28
ATOM     28  C   UNL     1      48.397   5.316  20.052  0.00  0.00    +0.000 C 
BRANCH  28  29
ATOM     29  N   UNL     1      49.309   6.477  19.937  0.00  0.00    +0.000 NA
ATOM     30  C   UNL     1      49.143   7.215  18.685  0.00  0.00    +0.000 C 
ATOM     31  C   UNL     1      47.942   8.107  18.931  0.00  0.00    +0.000 C 
ATOM     32  O   UNL     1      47.870   8.293  20.351  0.00  0.00    +0.000 OA
ATOM     33  C   UNL     1      48.925   7.503  20.908  0.00  0.00    +0.000 C 
ENDBRANCH  28  29
ENDBRANCH  25  28
ENDBRANCH  22  25
ENDBRANCH  18  19
ENDBRANCH   1  18
TORSDOF 9
ENDMDL
MODEL 9
REMARK VINA RESULT:    -5.940      3.565      9.699
REMARK INTER + INTRA:          -9.713
REMARK INTER:                  -9.027
REMARK INTRA:                  -0.686
REMARK UNBOUND:                -0.821
REMARK  Name = 
REMARK  10 active torsions:
REMARK  status: ('A' for Active; 'I' for Inactive)
REMARK    1  A    between atoms: C_1  and  C_2
REMARK    2  A    between atoms: C_2  and  N_3
REMARK    3  A    between atoms: C_2  and  C_19
REMARK    4  A    between atoms: N_3  and  C_4
REMARK    5  A    between atoms: C_4  and  C_5
REMARK    6  A    between atoms: C_8  and  C_9
REMARK    7  A    between atoms: C_9  and  O_10
REMARK    8  A    between atoms: C_9  and  C_11
REMARK    9  A    between atoms: C_11  and  N_12
REMARK   10  A    between atoms: C_19  and  C_21
REMARK                            x       y       z     vdW  Elec       q    Type
REMARK                         _______ _______ _______ _____ _____    ______ ____
ROOT
ATOM      1  N   UNL     1      47.052   5.474  13.057  0.00  0.00    +0.000 NA
ATOM      2  H   UNL     1      46.849   4.829  12.293  0.00  0.00    +0.000 HD
ENDROOT
BRANCH   1   4
ATOM      3  C   UNL     1      47.280   7.673  12.147  0.00  0.00    +0.000 C 
ATOM      4  C   UNL     1      46.303   6.738  12.859  0.00  0.00    +0.000 C 
BRANCH   4   5
ATOM      5  C   UNL     1      44.992   6.536  12.031  0.00  0.00    +0.000 C 
ATOM      6  O   UNL     1      44.337   7.507  11.661  0.00  0.00    +0.000 OA
BRANCH   5   7
ATOM      7  C   UNL     1      44.564   5.170  11.678  0.00  0.00    +0.000 A 
ATOM      8  C   UNL     1      43.841   4.357  12.536  0.00  0.00    +0.000 A 
ATOM      9  S   UNL     1      43.421   2.843  11.858  0.00  0.00    +0.000 S 
ATOM     10  C   UNL     1      44.187   3.227  10.388  0.00  0.00    +0.000 A 
ATOM     11  N   UNL     1      44.135   2.371   9.331  0.00  0.00    +0.000 NA
ATOM     12  C   UNL     1      44.710   2.815   8.262  0.00  0.00    +0.000 A 
ATOM     13  N   UNL     1      45.359   4.018   8.162  0.00  0.00    +0.000 N 
ATOM     14  C   UNL     1      45.588   4.828   9.259  0.00  0.00    +0.000 A 
ATOM     15  O   UNL     1      46.406   5.742   9.182  0.00  0.00    +0.000 OA
ATOM     16  C   UNL     1      44.835   4.455  10.440  0.00  0.00    +0.000 A 
ATOM     17  H   UNL     1      45.852   4.272   7.322  0.00  0.00    +0.000 HD
ENDBRANCH   5   7
ENDBRANCH   4   5
ENDBRANCH   1   4
BRANCH   1  18
ATOM     18  C   UNL     1      46.742   4.821  14.328  0.00  0.00    +0.000 C 
BRANCH  18  19
ATOM     19  C   UNL     1      47.811   5.011  15.376  0.00  0.00    +0.000 A 
ATOM     20  C   UNL     1      47.809   4.231  16.528  0.00  0.00    +0.000 A 
ATOM     21  N   UNL     1      48.598   4.489  17.595  0.00  0.00    +0.000 NA
ATOM     22  C   UNL     1      49.438   5.540  17.458  0.00  0.00    +0.000 A 
ATOM     23  C   UNL     1      49.486   6.287  16.280  0.00  0.00    +0.000 A 
ATOM     24  N   UNL     1      48.681   6.045  15.224  0.00  0.00    +0.000 NA
BRANCH  22  25
ATOM     25  C   UNL     1      50.263   5.976  18.645  0.00  0.00    +0.000 C 
BRANCH  25  26
ATOM     26  O   UNL     1      51.485   6.574  18.179  0.00  0.00    +0.000 OA
ATOM     27  H   UNL     1      51.701   7.264  18.841  0.00  0.00    +0.000 HD
ENDBRANCH  25  26
BRANCH  25  28
ATOM     28  C   UNL     1      49.545   6.991  19.567  0.00  0.00    +0.000 C 
BRANCH  28  29
ATOM     29  N   UNL     1      48.065   6.949  19.557  0.00  0.00    +0.000 NA
ATOM     30  C   UNL     1      47.478   7.101  20.889  0.00  0.00    +0.000 C 
ATOM     31  C   UNL     1      47.495   8.595  21.139  0.00  0.00    +0.000 C 
ATOM     32  O   UNL     1      47.495   9.215  19.845  0.00  0.00    +0.000 OA
ATOM     33  C   UNL     1      47.543   8.146  18.895  0.00  0.00    +0.000 C 
ENDBRANCH  28  29
ENDBRANCH  25  28
ENDBRANCH  22  25
ENDBRANCH  18  19
ENDBRANCH   1  18
TORSDOF 9
ENDMDL
