MODEL 1
REMARK VINA RESULT:    -8.033      0.000      0.000
REMARK INTER + INTRA:         -10.234
REMARK INTER:                 -10.146
REMARK INTRA:                  -0.088
REMARK UNBOUND:                -0.088
REMARK  Name = 
REMARK  5 active torsions:
REMARK  status: ('A' for Active; 'I' for Inactive)
REMARK    1  A    between atoms: N_1  and  C_2
REMARK    2  A    between atoms: C_2  and  C_3
REMARK    3  A    between atoms: C_6  and  C_7
REMARK    4  A    between atoms: C_7  and  N_8
REMARK    5  A    between atoms: C_12  and  C_13
REMARK                            x       y       z     vdW  Elec       q    Type
REMARK                         _______ _______ _______ _____ _____    ______ ____
ROOT
ATOM      1  N   UNL     1      44.450   5.606  10.500  0.00  0.00    +0.000 N 
ATOM      2  C   UNL     1      45.167   5.289  11.667  0.00  0.00    +0.000 A 
ATOM      3  C   UNL     1      45.833   6.296  12.381  0.00  0.00    +0.000 A 
ATOM      4  N   UNL     1      46.552   6.086  13.518  0.00  0.00    +0.000 NA
ATOM      5  C   UNL     1      46.589   4.786  13.922  0.00  0.00    +0.000 A 
ATOM      6  C   UNL     1      45.950   3.774  13.225  0.00  0.00    +0.000 A 
ATOM      7  N   UNL     1      45.244   4.008  12.089  0.00  0.00    +0.000 NA
ATOM      8  H   UNL     1      43.753   6.314  10.713  0.00  0.00    +0.000 HD
ENDROOT
BRANCH   5   9
ATOM      9  C   UNL     1      47.344   4.453  15.163  0.00  0.00    +0.000 C 
ATOM     10  N   UNL     1      47.753   5.518  15.917  0.00  0.00    +0.000 N 
ATOM     11  O   UNL     1      47.585   3.297  15.493  0.00  0.00    +0.000 OA
ATOM     12  H   UNL     1      47.545   6.465  15.620  0.00  0.00    +0.000 HD
ATOM     13  H   UNL     1      48.273   5.351  16.768  0.00  0.00    +0.000 HD
ENDBRANCH   5   9
BRANCH   1  14
ATOM     14  C   UNL     1      43.813   4.435   9.883  0.00  0.00    +0.000 C 
BRANCH  14  18
ATOM     15  C   UNL     1      46.637   2.303   7.468  0.00  0.00    +0.000 A 
ATOM     16  C   UNL     1      45.846   1.597   8.377  0.00  0.00    +0.000 A 
ATOM     17  C   UNL     1      44.917   2.275   9.166  0.00  0.00    +0.000 A 
ATOM     18  C   UNL     1      44.805   3.658   9.037  0.00  0.00    +0.000 A 
ATOM     19  N   UNL     1      45.566   4.366   8.163  0.00  0.00    +0.000 NA
ATOM     20  C   UNL     1      46.448   3.678   7.402  0.00  0.00    +0.000 A 
BRANCH  15  21
ATOM     21  C   UNL     1      47.686   1.626   6.634  0.00  0.00    +0.000 C 
BRANCH  21  22
ATOM     22  N   UNL     1      48.721   2.553   6.191  0.00  0.00    +0.000 NA
ATOM     23  H   UNL     1      48.790   2.513   5.176  0.00  0.00    +0.000 HD
ATOM     24  H   UNL     1      49.623   2.242   6.551  0.00  0.00    +0.000 HD
ENDBRANCH  21  22
ENDBRANCH  15  21
ENDBRANCH  14  18
ENDBRANCH   1  14
TORSDOF 5
ENDMDL
MODEL 2
REMARK VINA RESULT:    -7.754      1.641      2.204
REMARK INTER + INTRA:          -9.881
REMARK INTER:                  -9.601
REMARK INTRA:                  -0.280
REMARK UNBOUND:                -0.088
REMARK  Name = 
REMARK  5 active torsions:
REMARK  status: ('A' for Active; 'I' for Inactive)
REMARK    1  A    between atoms: N_1  and  C_2
REMARK    2  A    between atoms: C_2  and  C_3
REMARK    3  A    between atoms: C_6  and  C_7
REMARK    4  A    between atoms: C_7  and  N_8
REMARK    5  A    between atoms: C_12  and  C_13
REMARK                            x       y       z     vdW  Elec       q    Type
REMARK                         _______ _______ _______ _____ _____    ______ ____
ROOT
ATOM      1  N   UNL     1      45.073   2.844  11.863  0.00  0.00    +0.000 N 
ATOM      2  C   UNL     1      45.834   3.853  12.480  0.00  0.00    +0.000 A 
ATOM      3  C   UNL     1      46.627   3.553  13.597  0.00  0.00    +0.000 A 
ATOM      4  N   UNL     1      47.395   4.461  14.261  0.00  0.00    +0.000 NA
ATOM      5  C   UNL     1      47.331   5.723  13.755  0.00  0.00    +0.000 A 
ATOM      6  C   UNL     1      46.543   6.044  12.661  0.00  0.00    +0.000 A 
ATOM      7  N   UNL     1      45.782   5.121  12.019  0.00  0.00    +0.000 NA
ATOM      8  H   UNL     1      45.684   2.083  11.584  0.00  0.00    +0.000 HD
ENDROOT
BRANCH   5   9
ATOM      9  C   UNL     1      48.142   6.788  14.406  0.00  0.00    +0.000 C 
ATOM     10  N   UNL     1      47.511   7.987  14.599  0.00  0.00    +0.000 N 
ATOM     11  O   UNL     1      49.305   6.609  14.751  0.00  0.00    +0.000 OA
ATOM     12  H   UNL     1      46.550   8.112  14.299  0.00  0.00    +0.000 HD
ATOM     13  H   UNL     1      48.015   8.748  15.033  0.00  0.00    +0.000 HD
ENDBRANCH   5   9
BRANCH   1  14
ATOM     14  C   UNL     1      44.307   3.331  10.708  0.00  0.00    +0.000 C 
BRANCH  14  18
ATOM     15  C   UNL     1      46.489   2.704   7.076  0.00  0.00    +0.000 A 
ATOM     16  C   UNL     1      46.092   3.999   7.419  0.00  0.00    +0.000 A 
ATOM     17  C   UNL     1      45.387   4.221   8.601  0.00  0.00    +0.000 A 
ATOM     18  C   UNL     1      45.081   3.134   9.418  0.00  0.00    +0.000 A 
ATOM     19  N   UNL     1      45.453   1.866   9.103  0.00  0.00    +0.000 NA
ATOM     20  C   UNL     1      46.148   1.685   7.957  0.00  0.00    +0.000 A 
BRANCH  15  21
ATOM     21  C   UNL     1      47.205   2.407   5.790  0.00  0.00    +0.000 C 
BRANCH  21  22
ATOM     22  N   UNL     1      48.491   1.757   6.011  0.00  0.00    +0.000 NA
ATOM     23  H   UNL     1      48.332   0.785   6.269  0.00  0.00    +0.000 HD
ATOM     24  H   UNL     1      48.951   2.192   6.811  0.00  0.00    +0.000 HD
ENDBRANCH  21  22
ENDBRANCH  15  21
ENDBRANCH  14  18
ENDBRANCH   1  14
TORSDOF 5
ENDMDL
MODEL 3
REMARK VINA RESULT:    -7.262      2.568      6.532
REMARK INTER + INTRA:          -9.260
REMARK INTER:                  -9.163
REMARK INTRA:                  -0.097
REMARK UNBOUND:                -0.088
REMARK  Name = 
REMARK  5 active torsions:
REMARK  status: ('A' for Active; 'I' for Inactive)
REMARK    1  A    between atoms: N_1  and  C_2
REMARK    2  A    between atoms: C_2  and  C_3
REMARK    3  A    between atoms: C_6  and  C_7
REMARK    4  A    between atoms: C_7  and  N_8
REMARK    5  A    between atoms: C_12  and  C_13
REMARK                            x       y       z     vdW  Elec       q    Type
REMARK                         _______ _______ _______ _____ _____    ______ ____
ROOT
ATOM      1  N   UNL     1      43.816   3.433  10.568  0.00  0.00    +0.000 N 
ATOM      2  C   UNL     1      44.707   3.174   9.513  0.00  0.00    +0.000 A 
ATOM      3  C   UNL     1      44.970   1.854   9.119  0.00  0.00    +0.000 A 
ATOM      4  N   UNL     1      45.816   1.506   8.111  0.00  0.00    +0.000 NA
ATOM      5  C   UNL     1      46.418   2.562   7.498  0.00  0.00    +0.000 A 
ATOM      6  C   UNL     1      46.184   3.873   7.880  0.00  0.00    +0.000 A 
ATOM      7  N   UNL     1      45.339   4.194   8.892  0.00  0.00    +0.000 NA
ATOM      8  H   UNL     1      42.915   3.012  10.361  0.00  0.00    +0.000 HD
ENDROOT
BRANCH   5   9
ATOM      9  C   UNL     1      47.358   2.286   6.375  0.00  0.00    +0.000 C 
ATOM     10  N   UNL     1      47.240   3.103   5.284  0.00  0.00    +0.000 N 
ATOM     11  O   UNL     1      48.188   1.385   6.421  0.00  0.00    +0.000 OA
ATOM     12  H   UNL     1      46.542   3.838   5.268  0.00  0.00    +0.000 HD
ATOM     13  H   UNL     1      47.850   2.959   4.490  0.00  0.00    +0.000 HD
ENDBRANCH   5   9
BRANCH   1  14
ATOM     14  C   UNL     1      43.656   4.867  10.845  0.00  0.00    +0.000 C 
BRANCH  14  18
ATOM     15  C   UNL     1      46.880   6.279  13.286  0.00  0.00    +0.000 A 
ATOM     16  C   UNL     1      46.473   7.038  12.186  0.00  0.00    +0.000 A 
ATOM     17  C   UNL     1      45.421   6.596  11.385  0.00  0.00    +0.000 A 
ATOM     18  C   UNL     1      44.799   5.389  11.696  0.00  0.00    +0.000 A 
ATOM     19  N   UNL     1      45.180   4.631  12.757  0.00  0.00    +0.000 NA
ATOM     20  C   UNL     1      46.194   5.094  13.523  0.00  0.00    +0.000 A 
BRANCH  15  21
ATOM     21  C   UNL     1      48.040   6.687  14.148  0.00  0.00    +0.000 C 
BRANCH  21  22
ATOM     22  N   UNL     1      49.305   6.644  13.425  0.00  0.00    +0.000 NA
ATOM     23  H   UNL     1      49.211   6.019  12.627  0.00  0.00    +0.000 HD
ATOM     24  H   UNL     1      50.019   6.232  14.026  0.00  0.00    +0.000 HD
ENDBRANCH  21  22
ENDBRANCH  15  21
ENDBRANCH  14  18
ENDBRANCH   1  14
TORSDOF 5
ENDMDL
MODEL 4
REMARK VINA RESULT:    -6.752      3.409      7.599
REMARK INTER + INTRA:          -8.616
REMARK INTER:                  -8.303
REMARK INTRA:                  -0.313
REMARK UNBOUND:                -0.088
REMARK  Name = 
REMARK  5 active torsions:
REMARK  status: ('A' for Active; 'I' for Inactive)
REMARK    1  A    between atoms: N_1  and  C_2
REMARK    2  A    between atoms: C_2  and  C_3
REMARK    3  A    between atoms: C_6  and  C_7
REMARK    4  A    between atoms: C_7  and  N_8
REMARK    5  A    between atoms: C_12  and  C_13
REMARK                            x       y       z     vdW  Elec       q    Type
REMARK                         _______ _______ _______ _____ _____    ______ ____
ROOT
ATOM      1  N   UNL     1      47.259   5.201  15.161  0.00  0.00    +0.000 N 
ATOM      2  C   UNL     1      46.592   4.987  13.942  0.00  0.00    +0.000 A 
ATOM      3  C   UNL     1      46.673   5.941  12.917  0.00  0.00    +0.000 A 
ATOM      4  N   UNL     1      46.062   5.822  11.706  0.00  0.00    +0.000 NA
ATOM      5  C   UNL     1      45.335   4.681  11.557  0.00  0.00    +0.000 A 
ATOM      6  C   UNL     1      45.230   3.732  12.561  0.00  0.00    +0.000 A 
ATOM      7  N   UNL     1      45.844   3.876  13.763  0.00  0.00    +0.000 NA
ATOM      8  H   UNL     1      48.248   5.346  14.984  0.00  0.00    +0.000 HD
ENDROOT
BRANCH   5   9
ATOM      9  C   UNL     1      44.634   4.453  10.263  0.00  0.00    +0.000 C 
ATOM     10  N   UNL     1      45.183   5.067   9.170  0.00  0.00    +0.000 N 
ATOM     11  O   UNL     1      43.627   3.759  10.175  0.00  0.00    +0.000 OA
ATOM     12  H   UNL     1      46.014   5.640   9.270  0.00  0.00    +0.000 HD
ATOM     13  H   UNL     1      44.747   4.950   8.265  0.00  0.00    +0.000 HD
ENDBRANCH   5   9
BRANCH   1  14
ATOM     14  C   UNL     1      47.069   4.102  16.118  0.00  0.00    +0.000 C 
BRANCH  14  18
ATOM     15  C   UNL     1      50.821   2.443  17.351  0.00  0.00    +0.000 A 
ATOM     16  C   UNL     1      50.495   3.749  17.727  0.00  0.00    +0.000 A 
ATOM     17  C   UNL     1      49.275   4.301  17.340  0.00  0.00    +0.000 A 
ATOM     18  C   UNL     1      48.403   3.535  16.569  0.00  0.00    +0.000 A 
ATOM     19  N   UNL     1      48.700   2.266  16.188  0.00  0.00    +0.000 NA
ATOM     20  C   UNL     1      49.885   1.753  16.591  0.00  0.00    +0.000 A 
BRANCH  15  21
ATOM     21  C   UNL     1      52.143   1.822  17.700  0.00  0.00    +0.000 C 
BRANCH  21  22
ATOM     22  N   UNL     1      52.009   0.427  18.098  0.00  0.00    +0.000 NA
ATOM     23  H   UNL     1      52.895  -0.050  17.942  0.00  0.00    +0.000 HD
ATOM     24  H   UNL     1      51.328  -0.029  17.492  0.00  0.00    +0.000 HD
ENDBRANCH  21  22
ENDBRANCH  15  21
ENDBRANCH  14  18
ENDBRANCH   1  14
TORSDOF 5
ENDMDL
MODEL 5
REMARK VINA RESULT:    -6.021      2.600      4.581
REMARK INTER + INTRA:          -7.692
REMARK INTER:                  -7.436
REMARK INTRA:                  -0.257
REMARK UNBOUND:                -0.088
REMARK  Name = 
REMARK  5 active torsions:
REMARK  status: ('A' for Active; 'I' for Inactive)
REMARK    1  A    between atoms: N_1  and  C_2
REMARK    2  A    between atoms: C_2  and  C_3
REMARK    3  A    between atoms: C_6  and  C_7
REMARK    4  A    between atoms: C_7  and  N_8
REMARK    5  A    between atoms: C_12  and  C_13
REMARK                            x       y       z     vdW  Elec       q    Type
REMARK                         _______ _______ _______ _____ _____    ______ ____
ROOT
ATOM      1  N   UNL     1      46.466   4.202  14.822  0.00  0.00    +0.000 N 
ATOM      2  C   UNL     1      47.434   4.277  15.840  0.00  0.00    +0.000 A 
ATOM      3  C   UNL     1      47.514   3.269  16.811  0.00  0.00    +0.000 A 
ATOM      4  N   UNL     1      48.415   3.255  17.833  0.00  0.00    +0.000 NA
ATOM      5  C   UNL     1      49.253   4.328  17.852  0.00  0.00    +0.000 A 
ATOM      6  C   UNL     1      49.182   5.341  16.911  0.00  0.00    +0.000 A 
ATOM      7  N   UNL     1      48.271   5.335  15.905  0.00  0.00    +0.000 NA
ATOM      8  H   UNL     1      46.573   3.328  14.318  0.00  0.00    +0.000 HD
ENDROOT
BRANCH   5   9
ATOM      9  C   UNL     1      50.281   4.401  18.927  0.00  0.00    +0.000 C 
ATOM     10  N   UNL     1      51.404   3.644  18.733  0.00  0.00    +0.000 N 
ATOM     11  O   UNL     1      50.136   5.097  19.927  0.00  0.00    +0.000 OA
ATOM     12  H   UNL     1      51.497   3.073  17.900  0.00  0.00    +0.000 HD
ATOM     13  H   UNL     1      52.134   3.653  19.432  0.00  0.00    +0.000 HD
ENDBRANCH   5   9
BRANCH   1  14
ATOM     14  C   UNL     1      46.526   5.337  13.891  0.00  0.00    +0.000 C 
BRANCH  14  18
ATOM     15  C   UNL     1      44.979   4.325  10.028  0.00  0.00    +0.000 A 
ATOM     16  C   UNL     1      44.873   3.401  11.069  0.00  0.00    +0.000 A 
ATOM     17  C   UNL     1      45.365   3.717  12.334  0.00  0.00    +0.000 A 
ATOM     18  C   UNL     1      45.969   4.957  12.532  0.00  0.00    +0.000 A 
ATOM     19  N   UNL     1      46.088   5.870  11.534  0.00  0.00    +0.000 NA
ATOM     20  C   UNL     1      45.588   5.539  10.321  0.00  0.00    +0.000 A 
BRANCH  15  21
ATOM     21  C   UNL     1      44.511   4.012   8.635  0.00  0.00    +0.000 C 
BRANCH  21  22
ATOM     22  N   UNL     1      45.605   4.015   7.672  0.00  0.00    +0.000 NA
ATOM     23  H   UNL     1      46.487   4.121   8.171  0.00  0.00    +0.000 HD
ATOM     24  H   UNL     1      45.518   4.834   7.071  0.00  0.00    +0.000 HD
ENDBRANCH  21  22
ENDBRANCH  15  21
ENDBRANCH  14  18
ENDBRANCH   1  14
TORSDOF 5
ENDMDL
MODEL 6
REMARK VINA RESULT:    -5.990      2.243      2.611
REMARK INTER + INTRA:          -7.654
REMARK INTER:                  -7.672
REMARK INTRA:                   0.018
REMARK UNBOUND:                -0.088
REMARK  Name = 
REMARK  5 active torsions:
REMARK  status: ('A' for Active; 'I' for Inactive)
REMARK    1  A    between atoms: N_1  and  C_2
REMARK    2  A    between atoms: C_2  and  C_3
REMARK    3  A    between atoms: C_6  and  C_7
REMARK    4  A    between atoms: C_7  and  N_8
REMARK    5  A    between atoms: C_12  and  C_13
REMARK                            x       y       z     vdW  Elec       q    Type
REMARK                         _______ _______ _______ _____ _____    ______ ____
ROOT
ATOM      1  N   UNL     1      44.134   6.295  12.179  0.00  0.00    +0.000 N 
ATOM      2  C   UNL     1      45.359   6.657  12.765  0.00  0.00    +0.000 A 
ATOM      3  C   UNL     1      45.688   8.009  12.934  0.00  0.00    +0.000 A 
ATOM      4  N   UNL     1      46.849   8.455  13.489  0.00  0.00    +0.000 NA
ATOM      5  C   UNL     1      47.700   7.465  13.874  0.00  0.00    +0.000 A 
ATOM      6  C   UNL     1      47.401   6.123  13.705  0.00  0.00    +0.000 A 
ATOM      7  N   UNL     1      46.238   5.703  13.142  0.00  0.00    +0.000 NA
ATOM      8  H   UNL     1      43.371   6.712  12.704  0.00  0.00    +0.000 HD
ENDROOT
BRANCH   5   9
ATOM      9  C   UNL     1      48.995   7.849  14.502  0.00  0.00    +0.000 C 
ATOM     10  N   UNL     1      50.120   7.348  13.906  0.00  0.00    +0.000 N 
ATOM     11  O   UNL     1      49.055   8.571  15.491  0.00  0.00    +0.000 OA
ATOM     12  H   UNL     1      50.043   6.748  13.092  0.00  0.00    +0.000 HD
ATOM     13  H   UNL     1      51.027   7.573  14.292  0.00  0.00    +0.000 HD
ENDBRANCH   5   9
BRANCH   1  14
ATOM     14  C   UNL     1      43.951   4.840  12.083  0.00  0.00    +0.000 C 
BRANCH  14  18
ATOM     15  C   UNL     1      45.447   3.410   8.334  0.00  0.00    +0.000 A 
ATOM     16  C   UNL     1      44.743   2.537   9.165  0.00  0.00    +0.000 A 
ATOM     17  C   UNL     1      44.243   2.988  10.386  0.00  0.00    +0.000 A 
ATOM     18  C   UNL     1      44.470   4.311  10.759  0.00  0.00    +0.000 A 
ATOM     19  N   UNL     1      45.156   5.178   9.969  0.00  0.00    +0.000 NA
ATOM     20  C   UNL     1      45.616   4.713   8.785  0.00  0.00    +0.000 A 
BRANCH  15  21
ATOM     21  C   UNL     1      46.049   2.958   7.034  0.00  0.00    +0.000 C 
BRANCH  21  22
ATOM     22  N   UNL     1      46.843   4.003   6.401  0.00  0.00    +0.000 NA
ATOM     23  H   UNL     1      46.514   4.911   6.722  0.00  0.00    +0.000 HD
ATOM     24  H   UNL     1      46.682   3.981   5.394  0.00  0.00    +0.000 HD
ENDBRANCH  21  22
ENDBRANCH  15  21
ENDBRANCH  14  18
ENDBRANCH   1  14
TORSDOF 5
ENDMDL
MODEL 7
REMARK VINA RESULT:    -5.805      1.708      2.817
REMARK INTER + INTRA:          -7.420
REMARK INTER:                  -7.069
REMARK INTRA:                  -0.351
REMARK UNBOUND:                -0.088
REMARK  Name = 
REMARK  5 active torsions:
REMARK  status: ('A' for Active; 'I' for Inactive)
REMARK    1  A    between atoms: N_1  and  C_2
REMARK    2  A    between atoms: C_2  and  C_3
REMARK    3  A    between atoms: C_6  and  C_7
REMARK    4  A    between atoms: C_7  and  N_8
REMARK    5  A    between atoms: C_12  and  C_13
REMARK                            x       y       z     vdW  Elec       q    Type
REMARK                         _______ _______ _______ _____ _____    ______ ____
ROOT
ATOM      1  N   UNL     1      46.077   6.032  13.201  0.00  0.00    +0.000 N 
ATOM      2  C   UNL     1      46.846   5.507  14.254  0.00  0.00    +0.000 A 
ATOM      3  C   UNL     1      47.975   6.198  14.716  0.00  0.00    +0.000 A 
ATOM      4  N   UNL     1      48.780   5.769  15.727  0.00  0.00    +0.000 NA
ATOM      5  C   UNL     1      48.406   4.578  16.271  0.00  0.00    +0.000 A 
ATOM      6  C   UNL     1      47.302   3.872  15.821  0.00  0.00    +0.000 A 
ATOM      7  N   UNL     1      46.518   4.318  14.807  0.00  0.00    +0.000 NA
ATOM      8  H   UNL     1      45.760   6.965  13.446  0.00  0.00    +0.000 HD
ENDROOT
BRANCH   5   9
ATOM      9  C   UNL     1      49.217   4.027  17.391  0.00  0.00    +0.000 C 
ATOM     10  N   UNL     1      50.073   4.905  17.998  0.00  0.00    +0.000 N 
ATOM     11  O   UNL     1      49.129   2.858  17.752  0.00  0.00    +0.000 OA
ATOM     12  H   UNL     1      50.131   5.866  17.678  0.00  0.00    +0.000 HD
ATOM     13  H   UNL     1      50.651   4.584  18.763  0.00  0.00    +0.000 HD
ENDBRANCH   5   9
BRANCH   1  14
ATOM     14  C   UNL     1      44.932   5.182  12.848  0.00  0.00    +0.000 C 
BRANCH  14  18
ATOM     15  C   UNL     1      45.315   3.770   8.823  0.00  0.00    +0.000 A 
ATOM     16  C   UNL     1      44.825   2.907   9.805  0.00  0.00    +0.000 A 
ATOM     17  C   UNL     1      44.688   3.352  11.119  0.00  0.00    +0.000 A 
ATOM     18  C   UNL     1      45.056   4.660  11.429  0.00  0.00    +0.000 A 
ATOM     19  N   UNL     1      45.539   5.516  10.492  0.00  0.00    +0.000 NA
ATOM     20  C   UNL     1      45.647   5.058   9.223  0.00  0.00    +0.000 A 
BRANCH  15  21
ATOM     21  C   UNL     1      45.529   3.322   7.405  0.00  0.00    +0.000 C 
BRANCH  21  22
ATOM     22  N   UNL     1      46.879   2.817   7.185  0.00  0.00    +0.000 NA
ATOM     23  H   UNL     1      47.516   3.281   7.829  0.00  0.00    +0.000 HD
ATOM     24  H   UNL     1      47.183   3.075   6.247  0.00  0.00    +0.000 HD
ENDBRANCH  21  22
ENDBRANCH  15  21
ENDBRANCH  14  18
ENDBRANCH   1  14
TORSDOF 5
ENDMDL
MODEL 8
REMARK VINA RESULT:    -5.784      3.352      7.832
REMARK INTER + INTRA:          -7.394
REMARK INTER:                  -7.044
REMARK INTRA:                  -0.350
REMARK UNBOUND:                -0.088
REMARK  Name = 
REMARK  5 active torsions:
REMARK  status: ('A' for Active; 'I' for Inactive)
REMARK    1  A    between atoms: N_1  and  C_2
REMARK    2  A    between atoms: C_2  and  C_3
REMARK    3  A    between atoms: C_6  and  C_7
REMARK    4  A    between atoms: C_7  and  N_8
REMARK    5  A    between atoms: C_12  and  C_13
REMARK                            x       y       z     vdW  Elec       q    Type
REMARK                         _______ _______ _______ _____ _____    ______ ____
ROOT
ATOM      1  N   UNL     1      47.126   7.333  13.929  0.00  0.00    +0.000 N 
ATOM      2  C   UNL     1      46.296   6.555  13.103  0.00  0.00    +0.000 A 
ATOM      3  C   UNL     1      45.019   7.017  12.752  0.00  0.00    +0.000 A 
ATOM      4  N   UNL     1      44.146   6.336  11.959  0.00  0.00    +0.000 NA
ATOM      5  C   UNL     1      44.609   5.131  11.526  0.00  0.00    +0.000 A 
ATOM      6  C   UNL     1      45.861   4.650  11.872  0.00  0.00    +0.000 A 
ATOM      7  N   UNL     1      46.712   5.346  12.668  0.00  0.00    +0.000 NA
ATOM      8  H   UNL     1      47.258   8.248  13.510  0.00  0.00    +0.000 HD
ENDROOT
BRANCH   5   9
ATOM      9  C   UNL     1      43.731   4.311  10.645  0.00  0.00    +0.000 C 
ATOM     10  N   UNL     1      43.820   4.570   9.305  0.00  0.00    +0.000 N 
ATOM     11  O   UNL     1      42.973   3.455  11.089  0.00  0.00    +0.000 OA
ATOM     12  H   UNL     1      44.451   5.287   8.964  0.00  0.00    +0.000 HD
ATOM     13  H   UNL     1      43.244   4.046   8.660  0.00  0.00    +0.000 HD
ENDBRANCH   5   9
BRANCH   1  14
ATOM     14  C   UNL     1      48.426   6.701  14.193  0.00  0.00    +0.000 C 
BRANCH  14  18
ATOM     15  C   UNL     1      48.641   5.202  18.199  0.00  0.00    +0.000 A 
ATOM     16  C   UNL     1      48.890   6.556  17.963  0.00  0.00    +0.000 A 
ATOM     17  C   UNL     1      48.818   7.061  16.665  0.00  0.00    +0.000 A 
ATOM     18  C   UNL     1      48.506   6.194  15.620  0.00  0.00    +0.000 A 
ATOM     19  N   UNL     1      48.264   4.873  15.825  0.00  0.00    +0.000 NA
ATOM     20  C   UNL     1      48.328   4.416  17.097  0.00  0.00    +0.000 A 
BRANCH  15  21
ATOM     21  C   UNL     1      48.757   4.600  19.570  0.00  0.00    +0.000 C 
BRANCH  21  22
ATOM     22  N   UNL     1      48.325   3.208  19.599  0.00  0.00    +0.000 NA
ATOM     23  H   UNL     1      47.308   3.175  19.561  0.00  0.00    +0.000 HD
ATOM     24  H   UNL     1      48.591   2.795  20.493  0.00  0.00    +0.000 HD
ENDBRANCH  21  22
ENDBRANCH  15  21
ENDBRANCH  14  18
ENDBRANCH   1  14
TORSDOF 5
ENDMDL
MODEL 9
REMARK VINA RESULT:    -5.669      3.962      6.296
REMARK INTER + INTRA:          -7.248
REMARK INTER:                  -6.992
REMARK INTRA:                  -0.256
REMARK UNBOUND:                -0.088
REMARK  Name = 
REMARK  5 active torsions:
REMARK  status: ('A' for Active; 'I' for Inactive)
REMARK    1  A    between atoms: N_1  and  C_2
REMARK    2  A    between atoms: C_2  and  C_3
REMARK    3  A    between atoms: C_6  and  C_7
REMARK    4  A    between atoms: C_7  and  N_8
REMARK    5  A    between atoms: C_12  and  C_13
REMARK                            x       y       z     vdW  Elec       q    Type
REMARK                         _______ _______ _______ _____ _____    ______ ____
ROOT
ATOM      1  N   UNL     1      46.492   7.089  13.482  0.00  0.00    +0.000 N 
ATOM      2  C   UNL     1      45.844   6.007  12.861  0.00  0.00    +0.000 A 
ATOM      3  C   UNL     1      45.726   4.779  13.529  0.00  0.00    +0.000 A 
ATOM      4  N   UNL     1      45.118   3.676  13.011  0.00  0.00    +0.000 NA
ATOM      5  C   UNL     1      44.625   3.851  11.754  0.00  0.00    +0.000 A 
ATOM      6  C   UNL     1      44.742   5.050  11.071  0.00  0.00    +0.000 A 
ATOM      7  N   UNL     1      45.358   6.134  11.607  0.00  0.00    +0.000 NA
ATOM      8  H   UNL     1      46.042   7.289  14.370  0.00  0.00    +0.000 HD
ENDROOT
BRANCH   5   9
ATOM      9  C   UNL     1      43.933   2.705  11.101  0.00  0.00    +0.000 C 
ATOM     10  N   UNL     1      44.495   2.250   9.939  0.00  0.00    +0.000 N 
ATOM     11  O   UNL     1      42.921   2.195  11.571  0.00  0.00    +0.000 OA
ATOM     12  H   UNL     1      45.330   2.692   9.568  0.00  0.00    +0.000 HD
ATOM     13  H   UNL     1      44.065   1.476   9.451  0.00  0.00    +0.000 HD
ENDBRANCH   5   9
BRANCH   1  14
ATOM     14  C   UNL     1      46.522   8.295  12.643  0.00  0.00    +0.000 C 
BRANCH  14  18
ATOM     15  C   UNL     1      50.484   9.196  11.289  0.00  0.00    +0.000 A 
ATOM     16  C   UNL     1      50.107   7.862  11.458  0.00  0.00    +0.000 A 
ATOM     17  C   UNL     1      48.819   7.551  11.892  0.00  0.00    +0.000 A 
ATOM     18  C   UNL     1      47.929   8.590  12.161  0.00  0.00    +0.000 A 
ATOM     19  N   UNL     1      48.274   9.894  12.007  0.00  0.00    +0.000 NA
ATOM     20  C   UNL     1      49.527  10.163  11.572  0.00  0.00    +0.000 A 
BRANCH  15  21
ATOM     21  C   UNL     1      51.874   9.583  10.874  0.00  0.00    +0.000 C 
BRANCH  21  22
ATOM     22  N   UNL     1      51.875  10.546   9.780  0.00  0.00    +0.000 NA
ATOM     23  H   UNL     1      52.584  10.277   9.101  0.00  0.00    +0.000 HD
ATOM     24  H   UNL     1      52.156  11.458  10.139  0.00  0.00    +0.000 HD
ENDBRANCH  21  22
ENDBRANCH  15  21
ENDBRANCH  14  18
ENDBRANCH   1  14
TORSDOF 5
ENDMDL
