MODEL 1
REMARK VINA RESULT:    -8.871      0.000      0.000
REMARK INTER + INTRA:         -13.041
REMARK INTER:                 -11.982
REMARK INTRA:                  -1.059
REMARK UNBOUND:                -1.059
REMARK  Name = 
REMARK  6 active torsions:
REMARK  status: ('A' for Active; 'I' for Inactive)
REMARK    1  A    between atoms: C_2  and  C_3
REMARK    2  A    between atoms: C_6  and  C_7
REMARK    3  A    between atoms: C_11  and  C_12
REMARK    4  A    between atoms: C_12  and  N_13
REMARK    5  A    between atoms: N_13  and  C_14
REMARK    6  A    between atoms: C_17  and  C_18
REMARK                            x       y       z     vdW  Elec       q    Type
REMARK                         _______ _______ _______ _____ _____    ______ ____
ROOT
ATOM      1  C   UNL     1      43.716   5.255  11.101  0.00  0.00    +0.000 C 
ATOM      2  C   UNL     1      43.128   6.652  11.072  0.00  0.00    +0.000 C 
ATOM      3  C   UNL     1      42.422   5.593  11.846  0.00  0.00    +0.000 C 
ENDROOT
BRANCH   1   8
ATOM      4  C   UNL     1      47.128   5.726  12.849  0.00  0.00    +0.000 A 
ATOM      5  C   UNL     1      47.089   4.571  13.632  0.00  0.00    +0.000 A 
ATOM      6  N   UNL     1      46.118   3.630  13.586  0.00  0.00    +0.000 NA
ATOM      7  C   UNL     1      45.094   3.872  12.740  0.00  0.00    +0.000 A 
ATOM      8  C   UNL     1      44.952   5.011  11.950  0.00  0.00    +0.000 A 
ATOM      9  C   UNL     1      46.020   5.922  12.006  0.00  0.00    +0.000 A 
BRANCH   4  13
ATOM     10  C   UNL     1      50.379   8.447  13.075  0.00  0.00    +0.000 A 
ATOM     11  C   UNL     1      49.783   8.242  11.840  0.00  0.00    +0.000 A 
ATOM     12  C   UNL     1      48.712   7.350  11.763  0.00  0.00    +0.000 A 
ATOM     13  C   UNL     1      48.254   6.671  12.904  0.00  0.00    +0.000 A 
ATOM     14  C   UNL     1      48.936   6.960  14.091  0.00  0.00    +0.000 A 
ATOM     15  N   UNL     1      49.977   7.823  14.205  0.00  0.00    +0.000 NA
BRANCH  10  17
ATOM     16  N   UNL     1      52.392  10.062  13.362  0.00  0.00    +0.000 NA
ATOM     17  C   UNL     1      51.483   9.357  13.215  0.00  0.00    +0.000 C 
ENDBRANCH  10  17
ENDBRANCH   4  13
ENDBRANCH   1   8
BRANCH   1  18
ATOM     18  N   UNL     1      43.533   4.285  10.021  0.00  0.00    +0.000 N 
ATOM     19  H   UNL     1      42.575   4.042   9.783  0.00  0.00    +0.000 HD
BRANCH  18  20
ATOM     20  C   UNL     1      44.510   3.648   9.246  0.00  0.00    +0.000 A 
ATOM     21  C   UNL     1      45.317   4.478   8.443  0.00  0.00    +0.000 A 
ATOM     22  C   UNL     1      46.357   3.966   7.662  0.00  0.00    +0.000 A 
ATOM     23  C   UNL     1      46.620   2.596   7.654  0.00  0.00    +0.000 A 
ATOM     24  C   UNL     1      45.796   1.747   8.405  0.00  0.00    +0.000 A 
ATOM     25  C   UNL     1      44.754   2.272   9.181  0.00  0.00    +0.000 A 
ATOM     26  F   UNL     1      44.009   1.405   9.884  0.00  0.00    +0.000 F 
BRANCH  23  27
ATOM     27  C   UNL     1      47.754   1.998   6.893  0.00  0.00    +0.000 C 
ATOM     28  N   UNL     1      48.643   2.831   6.273  0.00  0.00    +0.000 N 
ATOM     29  O   UNL     1      47.907   0.785   6.828  0.00  0.00    +0.000 OA
ATOM     30  H   UNL     1      48.622   3.840   6.295  0.00  0.00    +0.000 HD
ATOM     31  H   UNL     1      49.419   2.394   5.793  0.00  0.00    +0.000 HD
ENDBRANCH  23  27
ENDBRANCH  18  20
ENDBRANCH   1  18
TORSDOF 6
ENDMDL
MODEL 2
REMARK VINA RESULT:    -8.566      2.214      3.274
REMARK INTER + INTRA:         -12.629
REMARK INTER:                 -12.405
REMARK INTRA:                  -0.225
REMARK UNBOUND:                -1.059
REMARK  Name = 
REMARK  6 active torsions:
REMARK  status: ('A' for Active; 'I' for Inactive)
REMARK    1  A    between atoms: C_2  and  C_3
REMARK    2  A    between atoms: C_6  and  C_7
REMARK    3  A    between atoms: C_11  and  C_12
REMARK    4  A    between atoms: C_12  and  N_13
REMARK    5  A    between atoms: N_13  and  C_14
REMARK    6  A    between atoms: C_17  and  C_18
REMARK                            x       y       z     vdW  Elec       q    Type
REMARK                         _______ _______ _______ _____ _____    ______ ____
ROOT
ATOM      1  C   UNL     1      43.843   5.099  11.412  0.00  0.00    +0.000 C 
ATOM      2  C   UNL     1      42.612   5.423  12.236  0.00  0.00    +0.000 C 
ATOM      3  C   UNL     1      43.182   4.048  12.310  0.00  0.00    +0.000 C 
ENDROOT
BRANCH   1   8
ATOM      4  C   UNL     1      47.011   5.780  13.514  0.00  0.00    +0.000 A 
ATOM      5  C   UNL     1      47.686   6.560  12.573  0.00  0.00    +0.000 A 
ATOM      6  N   UNL     1      47.185   6.945  11.377  0.00  0.00    +0.000 NA
ATOM      7  C   UNL     1      45.951   6.492  11.073  0.00  0.00    +0.000 A 
ATOM      8  C   UNL     1      45.183   5.648  11.873  0.00  0.00    +0.000 A 
ATOM      9  C   UNL     1      45.739   5.329  13.123  0.00  0.00    +0.000 A 
BRANCH   4  13
ATOM     10  C   UNL     1      48.736   4.907  17.293  0.00  0.00    +0.000 A 
ATOM     11  C   UNL     1      47.814   4.012  16.773  0.00  0.00    +0.000 A 
ATOM     12  C   UNL     1      47.246   4.295  15.530  0.00  0.00    +0.000 A 
ATOM     13  C   UNL     1      47.594   5.459  14.826  0.00  0.00    +0.000 A 
ATOM     14  C   UNL     1      48.535   6.284  15.453  0.00  0.00    +0.000 A 
ATOM     15  N   UNL     1      49.109   6.040  16.658  0.00  0.00    +0.000 NA
BRANCH  10  17
ATOM     16  N   UNL     1      49.822   4.435  19.605  0.00  0.00    +0.000 NA
ATOM     17  C   UNL     1      49.355   4.665  18.567  0.00  0.00    +0.000 C 
ENDBRANCH  10  17
ENDBRANCH   4  13
ENDBRANCH   1   8
BRANCH   1  18
ATOM     18  N   UNL     1      43.790   4.767   9.988  0.00  0.00    +0.000 N 
ATOM     19  H   UNL     1      43.078   5.237   9.436  0.00  0.00    +0.000 HD
BRANCH  18  20
ATOM     20  C   UNL     1      44.610   3.890   9.267  0.00  0.00    +0.000 A 
ATOM     21  C   UNL     1      45.457   4.470   8.302  0.00  0.00    +0.000 A 
ATOM     22  C   UNL     1      46.354   3.706   7.551  0.00  0.00    +0.000 A 
ATOM     23  C   UNL     1      46.429   2.325   7.739  0.00  0.00    +0.000 A 
ATOM     24  C   UNL     1      45.559   1.722   8.657  0.00  0.00    +0.000 A 
ATOM     25  C   UNL     1      44.660   2.499   9.400  0.00  0.00    +0.000 A 
ATOM     26  F   UNL     1      43.861   1.859  10.268  0.00  0.00    +0.000 F 
BRANCH  23  27
ATOM     27  C   UNL     1      47.409   1.466   7.015  0.00  0.00    +0.000 C 
ATOM     28  N   UNL     1      48.510   2.051   6.456  0.00  0.00    +0.000 N 
ATOM     29  O   UNL     1      47.252   0.254   6.930  0.00  0.00    +0.000 OA
ATOM     30  H   UNL     1      48.746   3.031   6.501  0.00  0.00    +0.000 HD
ATOM     31  H   UNL     1      49.172   1.436   6.001  0.00  0.00    +0.000 HD
ENDBRANCH  23  27
ENDBRANCH  18  20
ENDBRANCH   1  18
TORSDOF 6
ENDMDL
MODEL 3
REMARK VINA RESULT:    -7.455      1.589      2.245
REMARK INTER + INTRA:         -11.129
REMARK INTER:                 -10.866
REMARK INTRA:                  -0.263
REMARK UNBOUND:                -1.059
REMARK  Name = 
REMARK  6 active torsions:
REMARK  status: ('A' for Active; 'I' for Inactive)
REMARK    1  A    between atoms: C_2  and  C_3
REMARK    2  A    between atoms: C_6  and  C_7
REMARK    3  A    between atoms: C_11  and  C_12
REMARK    4  A    between atoms: C_12  and  N_13
REMARK    5  A    between atoms: N_13  and  C_14
REMARK    6  A    between atoms: C_17  and  C_18
REMARK                            x       y       z     vdW  Elec       q    Type
REMARK                         _______ _______ _______ _____ _____    ______ ____
ROOT
ATOM      1  C   UNL     1      44.447   5.269  11.673  0.00  0.00    +0.000 C 
ATOM      2  C   UNL     1      43.701   4.699  12.864  0.00  0.00    +0.000 C 
ATOM      3  C   UNL     1      45.025   4.119  12.504  0.00  0.00    +0.000 C 
ENDROOT
BRANCH   1   8
ATOM      4  C   UNL     1      47.113   8.024  12.138  0.00  0.00    +0.000 A 
ATOM      5  C   UNL     1      46.275   9.121  11.931  0.00  0.00    +0.000 A 
ATOM      6  N   UNL     1      44.938   9.055  11.739  0.00  0.00    +0.000 NA
ATOM      7  C   UNL     1      44.401   7.817  11.707  0.00  0.00    +0.000 A 
ATOM      8  C   UNL     1      45.114   6.626  11.823  0.00  0.00    +0.000 A 
ATOM      9  C   UNL     1      46.489   6.766  12.073  0.00  0.00    +0.000 A 
BRANCH   4  13
ATOM     10  C   UNL     1      51.276   8.437  12.864  0.00  0.00    +0.000 A 
ATOM     11  C   UNL     1      50.399   8.757  13.890  0.00  0.00    +0.000 A 
ATOM     12  C   UNL     1      49.030   8.619  13.655  0.00  0.00    +0.000 A 
ATOM     13  C   UNL     1      48.551   8.178  12.411  0.00  0.00    +0.000 A 
ATOM     14  C   UNL     1      49.532   7.887  11.456  0.00  0.00    +0.000 A 
ATOM     15  N   UNL     1      50.870   8.005  11.650  0.00  0.00    +0.000 NA
BRANCH  10  17
ATOM     16  N   UNL     1      53.848   8.609  13.178  0.00  0.00    +0.000 NA
ATOM     17  C   UNL     1      52.696   8.556  13.050  0.00  0.00    +0.000 C 
ENDBRANCH  10  17
ENDBRANCH   4  13
ENDBRANCH   1   8
BRANCH   1  18
ATOM     18  N   UNL     1      44.151   4.898  10.289  0.00  0.00    +0.000 N 
ATOM     19  H   UNL     1      43.306   5.289   9.882  0.00  0.00    +0.000 HD
BRANCH  18  20
ATOM     20  C   UNL     1      44.892   4.078   9.429  0.00  0.00    +0.000 A 
ATOM     21  C   UNL     1      45.762   4.730   8.532  0.00  0.00    +0.000 A 
ATOM     22  C   UNL     1      46.589   4.020   7.657  0.00  0.00    +0.000 A 
ATOM     23  C   UNL     1      46.567   2.625   7.646  0.00  0.00    +0.000 A 
ATOM     24  C   UNL     1      45.671   1.959   8.494  0.00  0.00    +0.000 A 
ATOM     25  C   UNL     1      44.844   2.682   9.363  0.00  0.00    +0.000 A 
ATOM     26  F   UNL     1      44.016   1.982  10.155  0.00  0.00    +0.000 F 
BRANCH  23  27
ATOM     27  C   UNL     1      47.469   1.812   6.782  0.00  0.00    +0.000 C 
ATOM     28  N   UNL     1      48.573   2.409   6.239  0.00  0.00    +0.000 N 
ATOM     29  O   UNL     1      47.248   0.627   6.569  0.00  0.00    +0.000 OA
ATOM     30  H   UNL     1      48.859   3.365   6.382  0.00  0.00    +0.000 HD
ATOM     31  H   UNL     1      49.182   1.821   5.685  0.00  0.00    +0.000 HD
ENDBRANCH  23  27
ENDBRANCH  18  20
ENDBRANCH   1  18
TORSDOF 6
ENDMDL
MODEL 4
REMARK VINA RESULT:    -6.547      3.889      5.981
REMARK INTER + INTRA:          -9.902
REMARK INTER:                  -9.003
REMARK INTRA:                  -0.899
REMARK UNBOUND:                -1.059
REMARK  Name = 
REMARK  6 active torsions:
REMARK  status: ('A' for Active; 'I' for Inactive)
REMARK    1  A    between atoms: C_2  and  C_3
REMARK    2  A    between atoms: C_6  and  C_7
REMARK    3  A    between atoms: C_11  and  C_12
REMARK    4  A    between atoms: C_12  and  N_13
REMARK    5  A    between atoms: N_13  and  C_14
REMARK    6  A    between atoms: C_17  and  C_18
REMARK                            x       y       z     vdW  Elec       q    Type
REMARK                         _______ _______ _______ _____ _____    ______ ____
ROOT
ATOM      1  C   UNL     1      47.744   7.986  13.265  0.00  0.00    +0.000 C 
ATOM      2  C   UNL     1      48.648   7.817  12.060  0.00  0.00    +0.000 C 
ATOM      3  C   UNL     1      48.066   9.161  12.336  0.00  0.00    +0.000 C 
ENDROOT
BRANCH   1   8
ATOM      4  C   UNL     1      49.775   6.989  16.395  0.00  0.00    +0.000 A 
ATOM      5  C   UNL     1      49.630   8.189  17.093  0.00  0.00    +0.000 A 
ATOM      6  N   UNL     1      48.881   9.240  16.688  0.00  0.00    +0.000 NA
ATOM      7  C   UNL     1      48.271   9.112  15.491  0.00  0.00    +0.000 A 
ATOM      8  C   UNL     1      48.380   8.010  14.645  0.00  0.00    +0.000 A 
ATOM      9  C   UNL     1      49.128   6.932  15.148  0.00  0.00    +0.000 A 
BRANCH   4  13
ATOM     10  C   UNL     1      52.072   3.763  17.926  0.00  0.00    +0.000 A 
ATOM     11  C   UNL     1      50.693   3.623  17.886  0.00  0.00    +0.000 A 
ATOM     12  C   UNL     1      49.935   4.680  17.381  0.00  0.00    +0.000 A 
ATOM     13  C   UNL     1      50.551   5.860  16.932  0.00  0.00    +0.000 A 
ATOM     14  C   UNL     1      51.947   5.883  17.024  0.00  0.00    +0.000 A 
ATOM     15  N   UNL     1      52.716   4.874  17.505  0.00  0.00    +0.000 NA
BRANCH  10  17
ATOM     16  N   UNL     1      53.534   1.826  18.852  0.00  0.00    +0.000 NA
ATOM     17  C   UNL     1      52.903   2.705  18.433  0.00  0.00    +0.000 C 
ENDBRANCH  10  17
ENDBRANCH   4  13
ENDBRANCH   1   8
BRANCH   1  18
ATOM     18  N   UNL     1      46.330   7.613  13.265  0.00  0.00    +0.000 N 
ATOM     19  H   UNL     1      45.675   8.302  13.625  0.00  0.00    +0.000 HD
BRANCH  18  20
ATOM     20  C   UNL     1      45.742   6.423  12.816  0.00  0.00    +0.000 A 
ATOM     21  C   UNL     1      44.938   6.515  11.663  0.00  0.00    +0.000 A 
ATOM     22  C   UNL     1      44.336   5.391  11.090  0.00  0.00    +0.000 A 
ATOM     23  C   UNL     1      44.516   4.131  11.661  0.00  0.00    +0.000 A 
ATOM     24  C   UNL     1      45.270   4.026  12.838  0.00  0.00    +0.000 A 
ATOM     25  C   UNL     1      45.864   5.161  13.405  0.00  0.00    +0.000 A 
ATOM     26  F   UNL     1      46.580   4.989  14.527  0.00  0.00    +0.000 F 
BRANCH  23  27
ATOM     27  C   UNL     1      43.954   2.887  11.061  0.00  0.00    +0.000 C 
ATOM     28  N   UNL     1      44.598   2.321   9.997  0.00  0.00    +0.000 N 
ATOM     29  O   UNL     1      42.944   2.363  11.514  0.00  0.00    +0.000 OA
ATOM     30  H   UNL     1      45.451   2.655   9.576  0.00  0.00    +0.000 HD
ATOM     31  H   UNL     1      44.209   1.460   9.635  0.00  0.00    +0.000 HD
ENDBRANCH  23  27
ENDBRANCH  18  20
ENDBRANCH   1  18
TORSDOF 6
ENDMDL
MODEL 5
REMARK VINA RESULT:    -6.468      4.727      8.824
REMARK INTER + INTRA:          -9.797
REMARK INTER:                  -8.784
REMARK INTRA:                  -1.012
REMARK UNBOUND:                -1.059
REMARK  Name = 
REMARK  6 active torsions:
REMARK  status: ('A' for Active; 'I' for Inactive)
REMARK    1  A    between atoms: C_2  and  C_3
REMARK    2  A    between atoms: C_6  and  C_7
REMARK    3  A    between atoms: C_11  and  C_12
REMARK    4  A    between atoms: C_12  and  N_13
REMARK    5  A    between atoms: N_13  and  C_14
REMARK    6  A    between atoms: C_17  and  C_18
REMARK                            x       y       z     vdW  Elec       q    Type
REMARK                         _______ _______ _______ _____ _____    ______ ____
ROOT
ATOM      1  C   UNL     1      49.518   7.356  17.423  0.00  0.00    +0.000 C 
ATOM      2  C   UNL     1      48.277   7.703  18.221  0.00  0.00    +0.000 C 
ATOM      3  C   UNL     1      49.300   8.761  17.992  0.00  0.00    +0.000 C 
ENDROOT
BRANCH   1   8
ATOM      4  C   UNL     1      48.186   6.380  13.931  0.00  0.00    +0.000 A 
ATOM      5  C   UNL     1      49.124   7.087  13.178  0.00  0.00    +0.000 A 
ATOM      6  N   UNL     1      50.176   7.770  13.684  0.00  0.00    +0.000 NA
ATOM      7  C   UNL     1      50.281   7.791  15.030  0.00  0.00    +0.000 A 
ATOM      8  C   UNL     1      49.385   7.199  15.917  0.00  0.00    +0.000 A 
ATOM      9  C   UNL     1      48.346   6.461  15.326  0.00  0.00    +0.000 A 
BRANCH   4  13
ATOM     10  C   UNL     1      45.085   4.077  12.169  0.00  0.00    +0.000 A 
ATOM     11  C   UNL     1      45.431   5.277  11.566  0.00  0.00    +0.000 A 
ATOM     12  C   UNL     1      46.452   6.035  12.142  0.00  0.00    +0.000 A 
ATOM     13  C   UNL     1      47.107   5.600  13.305  0.00  0.00    +0.000 A 
ATOM     14  C   UNL     1      46.669   4.374  13.820  0.00  0.00    +0.000 A 
ATOM     15  N   UNL     1      45.684   3.609  13.286  0.00  0.00    +0.000 NA
BRANCH  10  17
ATOM     16  N   UNL     1      43.176   2.601  11.209  0.00  0.00    +0.000 NA
ATOM     17  C   UNL     1      44.045   3.253  11.618  0.00  0.00    +0.000 C 
ENDBRANCH  10  17
ENDBRANCH   4  13
ENDBRANCH   1   8
BRANCH   1  18
ATOM     18  N   UNL     1      50.673   6.666  17.996  0.00  0.00    +0.000 N 
ATOM     19  H   UNL     1      51.297   7.222  18.575  0.00  0.00    +0.000 HD
BRANCH  18  20
ATOM     20  C   UNL     1      51.035   5.319  17.869  0.00  0.00    +0.000 A 
ATOM     21  C   UNL     1      52.415   5.041  17.810  0.00  0.00    +0.000 A 
ATOM     22  C   UNL     1      52.903   3.734  17.730  0.00  0.00    +0.000 A 
ATOM     23  C   UNL     1      52.019   2.655  17.700  0.00  0.00    +0.000 A 
ATOM     24  C   UNL     1      50.641   2.912  17.706  0.00  0.00    +0.000 A 
ATOM     25  C   UNL     1      50.165   4.228  17.781  0.00  0.00    +0.000 A 
ATOM     26  F   UNL     1      48.834   4.404  17.792  0.00  0.00    +0.000 F 
BRANCH  23  27
ATOM     27  C   UNL     1      52.479   1.237  17.681  0.00  0.00    +0.000 C 
ATOM     28  N   UNL     1      51.613   0.259  18.085  0.00  0.00    +0.000 N 
ATOM     29  O   UNL     1      53.602   0.937  17.296  0.00  0.00    +0.000 OA
ATOM     30  H   UNL     1      50.661   0.400  18.386  0.00  0.00    +0.000 HD
ATOM     31  H   UNL     1      51.945  -0.695  18.029  0.00  0.00    +0.000 HD
ENDBRANCH  23  27
ENDBRANCH  18  20
ENDBRANCH   1  18
TORSDOF 6
ENDMDL
