MODEL 1
REMARK VINA RESULT:    -8.286      0.000      0.000
REMARK INTER + INTRA:         -11.331
REMARK INTER:                 -10.708
REMARK INTRA:                  -0.623
REMARK UNBOUND:                -0.623
REMARK  Name = 
REMARK  5 active torsions:
REMARK  status: ('A' for Active; 'I' for Inactive)
REMARK    1  A    between atoms: C_2  and  C_4
REMARK    2  A    between atoms: C_7  and  N_8
REMARK    3  A    between atoms: N_8  and  C_9
REMARK    4  A    between atoms: C_9  and  C_10
REMARK    5  A    between atoms: C_14  and  N_15
REMARK                            x       y       z     vdW  Elec       q    Type
REMARK                         _______ _______ _______ _____ _____    ______ ____
ROOT
ATOM      1  N   UNL     1      43.783   4.788   9.833  0.00  0.00    +0.000 N 
ATOM      2  H   UNL     1      44.062   5.764   9.804  0.00  0.00    +0.000 HD
ENDROOT
BRANCH   1   6
ATOM      3  C   UNL     1      46.366   2.329   7.789  0.00  0.00    +0.000 A 
ATOM      4  C   UNL     1      46.424   3.704   7.629  0.00  0.00    +0.000 A 
ATOM      5  N   UNL     1      45.570   4.553   8.262  0.00  0.00    +0.000 NA
ATOM      6  C   UNL     1      44.646   3.995   9.072  0.00  0.00    +0.000 A 
ATOM      7  C   UNL     1      44.611   2.600   9.224  0.00  0.00    +0.000 A 
ATOM      8  N   UNL     1      45.445   1.732   8.592  0.00  0.00    +0.000 NA
BRANCH   3  10
ATOM      9  N   UNL     1      48.412   2.091   6.512  0.00  0.00    +0.000 N 
ATOM     10  C   UNL     1      47.337   1.457   7.075  0.00  0.00    +0.000 C 
ATOM     11  O   UNL     1      47.192   0.244   6.997  0.00  0.00    +0.000 OA
ATOM     12  H   UNL     1      49.124   1.541   6.053  0.00  0.00    +0.000 HD
ATOM     13  H   UNL     1      48.543   3.088   6.647  0.00  0.00    +0.000 HD
ENDBRANCH   3  10
ENDBRANCH   1   6
BRANCH   1  14
ATOM     14  C   UNL     1      43.496   4.345  11.193  0.00  0.00    +0.000 C 
BRANCH  14  15
ATOM     15  C   UNL     1      44.718   4.571  12.045  0.00  0.00    +0.000 A 
ATOM     16  C   UNL     1      45.297   3.548  12.779  0.00  0.00    +0.000 A 
ATOM     17  N   UNL     1      46.390   3.709  13.550  0.00  0.00    +0.000 NA
ATOM     18  C   UNL     1      46.926   4.955  13.593  0.00  0.00    +0.000 A 
ATOM     19  C   UNL     1      46.449   6.079  12.910  0.00  0.00    +0.000 A 
ATOM     20  C   UNL     1      45.308   5.845  12.140  0.00  0.00    +0.000 A 
BRANCH  19  21
ATOM     21  N   UNL     1      47.062   7.312  12.966  0.00  0.00    +0.000 N 
ATOM     22  C   UNL     1      46.341   8.566  13.230  0.00  0.00    +0.000 C 
ATOM     23  C   UNL     1      46.705   9.606  12.159  0.00  0.00    +0.000 C 
ATOM     24  O   UNL     1      48.128   9.801  12.072  0.00  0.00    +0.000 OA
ATOM     25  C   UNL     1      48.783   8.561  11.751  0.00  0.00    +0.000 C 
ATOM     26  C   UNL     1      48.515   7.482  12.815  0.00  0.00    +0.000 C 
ENDBRANCH  19  21
ENDBRANCH  14  15
ENDBRANCH   1  14
TORSDOF 5
ENDMDL
MODEL 2
REMARK VINA RESULT:    -8.154      1.950      2.906
REMARK INTER + INTRA:         -11.160
REMARK INTER:                 -10.504
REMARK INTRA:                  -0.656
REMARK UNBOUND:                -0.623
REMARK  Name = 
REMARK  5 active torsions:
REMARK  status: ('A' for Active; 'I' for Inactive)
REMARK    1  A    between atoms: C_2  and  C_4
REMARK    2  A    between atoms: C_7  and  N_8
REMARK    3  A    between atoms: N_8  and  C_9
REMARK    4  A    between atoms: C_9  and  C_10
REMARK    5  A    between atoms: C_14  and  N_15
REMARK                            x       y       z     vdW  Elec       q    Type
REMARK                         _______ _______ _______ _____ _____    ______ ____
ROOT
ATOM      1  N   UNL     1      43.690   4.850   9.643  0.00  0.00    +0.000 N 
ATOM      2  H   UNL     1      43.855   5.820   9.393  0.00  0.00    +0.000 HD
ENDROOT
BRANCH   1   6
ATOM      3  C   UNL     1      46.335   2.253   7.866  0.00  0.00    +0.000 A 
ATOM      4  C   UNL     1      46.322   3.595   7.521  0.00  0.00    +0.000 A 
ATOM      5  N   UNL     1      45.445   4.484   8.061  0.00  0.00    +0.000 NA
ATOM      6  C   UNL     1      44.570   4.000   8.968  0.00  0.00    +0.000 A 
ATOM      7  C   UNL     1      44.606   2.639   9.307  0.00  0.00    +0.000 A 
ATOM      8  N   UNL     1      45.465   1.730   8.771  0.00  0.00    +0.000 NA
BRANCH   3  10
ATOM      9  N   UNL     1      48.392   1.935   6.625  0.00  0.00    +0.000 N 
ATOM     10  C   UNL     1      47.328   1.336   7.245  0.00  0.00    +0.000 C 
ATOM     11  O   UNL     1      47.209   0.119   7.286  0.00  0.00    +0.000 OA
ATOM     12  H   UNL     1      49.118   1.359   6.225  0.00  0.00    +0.000 HD
ATOM     13  H   UNL     1      48.501   2.943   6.660  0.00  0.00    +0.000 HD
ENDBRANCH   3  10
ENDBRANCH   1   6
BRANCH   1  14
ATOM     14  C   UNL     1      43.567   4.673  11.086  0.00  0.00    +0.000 C 
BRANCH  14  15
ATOM     15  C   UNL     1      44.546   5.592  11.771  0.00  0.00    +0.000 A 
ATOM     16  C   UNL     1      44.563   6.956  11.527  0.00  0.00    +0.000 A 
ATOM     17  N   UNL     1      45.419   7.810  12.119  0.00  0.00    +0.000 NA
ATOM     18  C   UNL     1      46.305   7.273  12.995  0.00  0.00    +0.000 A 
ATOM     19  C   UNL     1      46.405   5.920  13.338  0.00  0.00    +0.000 A 
ATOM     20  C   UNL     1      45.498   5.089  12.678  0.00  0.00    +0.000 A 
BRANCH  19  21
ATOM     21  N   UNL     1      47.305   5.441  14.265  0.00  0.00    +0.000 N 
ATOM     22  C   UNL     1      47.189   4.121  14.902  0.00  0.00    +0.000 C 
ATOM     23  C   UNL     1      47.303   4.271  16.426  0.00  0.00    +0.000 C 
ATOM     24  O   UNL     1      48.512   4.955  16.803  0.00  0.00    +0.000 OA
ATOM     25  C   UNL     1      48.551   6.264  16.207  0.00  0.00    +0.000 C 
ATOM     26  C   UNL     1      48.502   6.193  14.670  0.00  0.00    +0.000 C 
ENDBRANCH  19  21
ENDBRANCH  14  15
ENDBRANCH   1  14
TORSDOF 5
ENDMDL
MODEL 3
REMARK VINA RESULT:    -7.119      3.561      8.176
REMARK INTER + INTRA:          -9.823
REMARK INTER:                  -9.393
REMARK INTRA:                  -0.430
REMARK UNBOUND:                -0.623
REMARK  Name = 
REMARK  5 active torsions:
REMARK  status: ('A' for Active; 'I' for Inactive)
REMARK    1  A    between atoms: C_2  and  C_4
REMARK    2  A    between atoms: C_7  and  N_8
REMARK    3  A    between atoms: N_8  and  C_9
REMARK    4  A    between atoms: C_9  and  C_10
REMARK    5  A    between atoms: C_14  and  N_15
REMARK                            x       y       z     vdW  Elec       q    Type
REMARK                         _______ _______ _______ _____ _____    ______ ____
ROOT
ATOM      1  N   UNL     1      46.692   3.936  14.524  0.00  0.00    +0.000 N 
ATOM      2  H   UNL     1      47.282   3.325  13.968  0.00  0.00    +0.000 HD
ENDROOT
BRANCH   1   6
ATOM      3  C   UNL     1      48.443   4.499  18.200  0.00  0.00    +0.000 A 
ATOM      4  C   UNL     1      47.639   3.396  17.962  0.00  0.00    +0.000 A 
ATOM      5  N   UNL     1      47.016   3.185  16.771  0.00  0.00    +0.000 NA
ATOM      6  C   UNL     1      47.216   4.109  15.808  0.00  0.00    +0.000 A 
ATOM      7  C   UNL     1      48.040   5.214  16.069  0.00  0.00    +0.000 A 
ATOM      8  N   UNL     1      48.662   5.452  17.255  0.00  0.00    +0.000 NA
BRANCH   3  10
ATOM      9  N   UNL     1      48.597   3.909  20.545  0.00  0.00    +0.000 N 
ATOM     10  C   UNL     1      49.104   4.665  19.522  0.00  0.00    +0.000 C 
ATOM     11  O   UNL     1      50.048   5.425  19.691  0.00  0.00    +0.000 OA
ATOM     12  H   UNL     1      49.037   3.950  21.454  0.00  0.00    +0.000 HD
ATOM     13  H   UNL     1      47.857   3.239  20.365  0.00  0.00    +0.000 HD
ENDBRANCH   3  10
ENDBRANCH   1   6
BRANCH   1  14
ATOM     14  C   UNL     1      46.309   5.137  13.792  0.00  0.00    +0.000 C 
BRANCH  14  15
ATOM     15  C   UNL     1      45.196   4.789  12.837  0.00  0.00    +0.000 A 
ATOM     16  C   UNL     1      43.865   5.003  13.157  0.00  0.00    +0.000 A 
ATOM     17  N   UNL     1      42.842   4.707  12.332  0.00  0.00    +0.000 NA
ATOM     18  C   UNL     1      43.167   4.166  11.131  0.00  0.00    +0.000 A 
ATOM     19  C   UNL     1      44.461   3.892  10.675  0.00  0.00    +0.000 A 
ATOM     20  C   UNL     1      45.472   4.211  11.585  0.00  0.00    +0.000 A 
BRANCH  19  21
ATOM     21  N   UNL     1      44.728   3.374   9.427  0.00  0.00    +0.000 N 
ATOM     22  C   UNL     1      44.701   1.937   9.120  0.00  0.00    +0.000 C 
ATOM     23  C   UNL     1      46.002   1.537   8.407  0.00  0.00    +0.000 C 
ATOM     24  O   UNL     1      46.234   2.341   7.236  0.00  0.00    +0.000 OA
ATOM     25  C   UNL     1      46.314   3.732   7.594  0.00  0.00    +0.000 C 
ATOM     26  C   UNL     1      45.018   4.225   8.262  0.00  0.00    +0.000 C 
ENDBRANCH  19  21
ENDBRANCH  14  15
ENDBRANCH   1  14
TORSDOF 5
ENDMDL
MODEL 4
REMARK VINA RESULT:    -6.677      2.047      6.731
REMARK INTER + INTRA:          -9.252
REMARK INTER:                  -8.626
REMARK INTRA:                  -0.626
REMARK UNBOUND:                -0.623
REMARK  Name = 
REMARK  5 active torsions:
REMARK  status: ('A' for Active; 'I' for Inactive)
REMARK    1  A    between atoms: C_2  and  C_4
REMARK    2  A    between atoms: C_7  and  N_8
REMARK    3  A    between atoms: N_8  and  C_9
REMARK    4  A    between atoms: C_9  and  C_10
REMARK    5  A    between atoms: C_14  and  N_15
REMARK                            x       y       z     vdW  Elec       q    Type
REMARK                         _______ _______ _______ _____ _____    ______ ____
ROOT
ATOM      1  N   UNL     1      46.407   6.086  13.696  0.00  0.00    +0.000 N 
ATOM      2  H   UNL     1      46.544   5.090  13.836  0.00  0.00    +0.000 HD
ENDROOT
BRANCH   1   6
ATOM      3  C   UNL     1      49.904   7.798  12.379  0.00  0.00    +0.000 A 
ATOM      4  C   UNL     1      49.801   7.304  13.670  0.00  0.00    +0.000 A 
ATOM      5  N   UNL     1      48.654   6.757  14.157  0.00  0.00    +0.000 NA
ATOM      6  C   UNL     1      47.599   6.709  13.318  0.00  0.00    +0.000 A 
ATOM      7  C   UNL     1      47.729   7.210  12.013  0.00  0.00    +0.000 A 
ATOM      8  N   UNL     1      48.859   7.772  11.509  0.00  0.00    +0.000 NA
BRANCH   3  10
ATOM      9  N   UNL     1      52.251   8.261  12.764  0.00  0.00    +0.000 N 
ATOM     10  C   UNL     1      51.191   8.375  11.906  0.00  0.00    +0.000 C 
ATOM     11  O   UNL     1      51.302   8.916  10.813  0.00  0.00    +0.000 OA
ATOM     12  H   UNL     1      53.159   8.597  12.474  0.00  0.00    +0.000 HD
ATOM     13  H   UNL     1      52.149   7.752  13.636  0.00  0.00    +0.000 HD
ENDBRANCH   3  10
ENDBRANCH   1   6
BRANCH   1  14
ATOM     14  C   UNL     1      45.224   6.365  12.890  0.00  0.00    +0.000 C 
BRANCH  14  15
ATOM     15  C   UNL     1      44.702   5.066  12.329  0.00  0.00    +0.000 A 
ATOM     16  C   UNL     1      43.860   4.242  13.058  0.00  0.00    +0.000 A 
ATOM     17  N   UNL     1      43.372   3.075  12.593  0.00  0.00    +0.000 NA
ATOM     18  C   UNL     1      43.748   2.714  11.341  0.00  0.00    +0.000 A 
ATOM     19  C   UNL     1      44.591   3.443  10.494  0.00  0.00    +0.000 A 
ATOM     20  C   UNL     1      45.071   4.633  11.043  0.00  0.00    +0.000 A 
BRANCH  19  21
ATOM     21  N   UNL     1      44.907   3.040   9.214  0.00  0.00    +0.000 N 
ATOM     22  C   UNL     1      45.056   1.631   8.820  0.00  0.00    +0.000 C 
ATOM     23  C   UNL     1      46.388   1.441   8.079  0.00  0.00    +0.000 C 
ATOM     24  O   UNL     1      46.505   2.337   6.960  0.00  0.00    +0.000 OA
ATOM     25  C   UNL     1      46.416   3.703   7.402  0.00  0.00    +0.000 C 
ATOM     26  C   UNL     1      45.076   3.988   8.103  0.00  0.00    +0.000 C 
ENDBRANCH  19  21
ENDBRANCH  14  15
ENDBRANCH   1  14
TORSDOF 5
ENDMDL
MODEL 5
REMARK VINA RESULT:    -6.650      1.812      6.566
REMARK INTER + INTRA:          -9.216
REMARK INTER:                  -8.510
REMARK INTRA:                  -0.706
REMARK UNBOUND:                -0.623
REMARK  Name = 
REMARK  5 active torsions:
REMARK  status: ('A' for Active; 'I' for Inactive)
REMARK    1  A    between atoms: C_2  and  C_4
REMARK    2  A    between atoms: C_7  and  N_8
REMARK    3  A    between atoms: N_8  and  C_9
REMARK    4  A    between atoms: C_9  and  C_10
REMARK    5  A    between atoms: C_14  and  N_15
REMARK                            x       y       z     vdW  Elec       q    Type
REMARK                         _______ _______ _______ _____ _____    ______ ____
ROOT
ATOM      1  N   UNL     1      44.508   6.461  12.681  0.00  0.00    +0.000 N 
ATOM      2  H   UNL     1      44.294   5.705  13.324  0.00  0.00    +0.000 HD
ENDROOT
BRANCH   1   6
ATOM      3  C   UNL     1      48.549   7.197  12.844  0.00  0.00    +0.000 A 
ATOM      4  C   UNL     1      47.703   8.050  12.155  0.00  0.00    +0.000 A 
ATOM      5  N   UNL     1      46.364   7.829  12.049  0.00  0.00    +0.000 NA
ATOM      6  C   UNL     1      45.880   6.726  12.657  0.00  0.00    +0.000 A 
ATOM      7  C   UNL     1      46.755   5.881  13.356  0.00  0.00    +0.000 A 
ATOM      8  N   UNL     1      48.097   6.074  13.464  0.00  0.00    +0.000 NA
BRANCH   3  10
ATOM      9  N   UNL     1      50.696   7.454  11.750  0.00  0.00    +0.000 N 
ATOM     10  C   UNL     1      50.002   7.502  12.929  0.00  0.00    +0.000 C 
ATOM     11  O   UNL     1      50.550   7.785  13.987  0.00  0.00    +0.000 OA
ATOM     12  H   UNL     1      51.677   7.696  11.744  0.00  0.00    +0.000 HD
ATOM     13  H   UNL     1      50.207   7.281  10.878  0.00  0.00    +0.000 HD
ENDBRANCH   3  10
ENDBRANCH   1   6
BRANCH   1  14
ATOM     14  C   UNL     1      43.839   6.289  11.397  0.00  0.00    +0.000 C 
BRANCH  14  15
ATOM     15  C   UNL     1      43.887   4.832  11.017  0.00  0.00    +0.000 A 
ATOM     16  C   UNL     1      43.234   3.861  11.759  0.00  0.00    +0.000 A 
ATOM     17  N   UNL     1      43.251   2.549  11.452  0.00  0.00    +0.000 NA
ATOM     18  C   UNL     1      43.959   2.192  10.352  0.00  0.00    +0.000 A 
ATOM     19  C   UNL     1      44.667   3.059   9.511  0.00  0.00    +0.000 A 
ATOM     20  C   UNL     1      44.618   4.400   9.895  0.00  0.00    +0.000 A 
BRANCH  19  21
ATOM     21  N   UNL     1      45.337   2.637   8.384  0.00  0.00    +0.000 N 
ATOM     22  C   UNL     1      45.674   1.231   8.117  0.00  0.00    +0.000 C 
ATOM     23  C   UNL     1      47.165   1.115   7.766  0.00  0.00    +0.000 C 
ATOM     24  O   UNL     1      47.521   1.980   6.671  0.00  0.00    +0.000 OA
ATOM     25  C   UNL     1      47.231   3.349   7.002  0.00  0.00    +0.000 C 
ATOM     26  C   UNL     1      45.737   3.558   7.309  0.00  0.00    +0.000 C 
ENDBRANCH  19  21
ENDBRANCH  14  15
ENDBRANCH   1  14
TORSDOF 5
ENDMDL
MODEL 6
REMARK VINA RESULT:    -6.186      3.432      7.110
REMARK INTER + INTRA:          -8.617
REMARK INTER:                  -8.395
REMARK INTRA:                  -0.222
REMARK UNBOUND:                -0.623
REMARK  Name = 
REMARK  5 active torsions:
REMARK  status: ('A' for Active; 'I' for Inactive)
REMARK    1  A    between atoms: C_2  and  C_4
REMARK    2  A    between atoms: C_7  and  N_8
REMARK    3  A    between atoms: N_8  and  C_9
REMARK    4  A    between atoms: C_9  and  C_10
REMARK    5  A    between atoms: C_14  and  N_15
REMARK                            x       y       z     vdW  Elec       q    Type
REMARK                         _______ _______ _______ _____ _____    ______ ____
ROOT
ATOM      1  N   UNL     1      48.267   6.627  12.881  0.00  0.00    +0.000 N 
ATOM      2  H   UNL     1      49.233   6.626  12.569  0.00  0.00    +0.000 HD
ENDROOT
BRANCH   1   6
ATOM      3  C   UNL     1      47.584   4.358  16.239  0.00  0.00    +0.000 A 
ATOM      4  C   UNL     1      48.341   5.516  16.311  0.00  0.00    +0.000 A 
ATOM      5  N   UNL     1      48.617   6.281  15.220  0.00  0.00    +0.000 NA
ATOM      6  C   UNL     1      48.113   5.863  14.040  0.00  0.00    +0.000 A 
ATOM      7  C   UNL     1      47.344   4.690  13.994  0.00  0.00    +0.000 A 
ATOM      8  N   UNL     1      47.066   3.903  15.067  0.00  0.00    +0.000 NA
BRANCH   3  10
ATOM      9  N   UNL     1      48.101   3.858  18.554  0.00  0.00    +0.000 N 
ATOM     10  C   UNL     1      47.311   3.572  17.473  0.00  0.00    +0.000 C 
ATOM     11  O   UNL     1      46.430   2.724  17.526  0.00  0.00    +0.000 OA
ATOM     12  H   UNL     1      47.929   3.385  19.430  0.00  0.00    +0.000 HD
ATOM     13  H   UNL     1      48.780   4.610  18.504  0.00  0.00    +0.000 HD
ENDBRANCH   3  10
ENDBRANCH   1   6
BRANCH   1  14
ATOM     14  C   UNL     1      47.697   7.969  12.885  0.00  0.00    +0.000 C 
BRANCH  14  15
ATOM     15  C   UNL     1      46.323   7.914  12.266  0.00  0.00    +0.000 A 
ATOM     16  C   UNL     1      45.638   9.063  11.906  0.00  0.00    +0.000 A 
ATOM     17  N   UNL     1      44.411   9.056  11.349  0.00  0.00    +0.000 NA
ATOM     18  C   UNL     1      43.841   7.842  11.149  0.00  0.00    +0.000 A 
ATOM     19  C   UNL     1      44.412   6.603  11.464  0.00  0.00    +0.000 A 
ATOM     20  C   UNL     1      45.677   6.684  12.049  0.00  0.00    +0.000 A 
BRANCH  19  21
ATOM     21  N   UNL     1      43.795   5.399  11.200  0.00  0.00    +0.000 N 
ATOM     22  C   UNL     1      42.962   4.682  12.176  0.00  0.00    +0.000 C 
ATOM     23  C   UNL     1      43.427   3.221  12.277  0.00  0.00    +0.000 C 
ATOM     24  O   UNL     1      43.438   2.578  10.990  0.00  0.00    +0.000 OA
ATOM     25  C   UNL     1      44.314   3.278  10.089  0.00  0.00    +0.000 C 
ATOM     26  C   UNL     1      43.874   4.740   9.888  0.00  0.00    +0.000 C 
ENDBRANCH  19  21
ENDBRANCH  14  15
ENDBRANCH   1  14
TORSDOF 5
ENDMDL
MODEL 7
REMARK VINA RESULT:    -6.141      5.332      8.190
REMARK INTER + INTRA:          -8.559
REMARK INTER:                  -8.063
REMARK INTRA:                  -0.496
REMARK UNBOUND:                -0.623
REMARK  Name = 
REMARK  5 active torsions:
REMARK  status: ('A' for Active; 'I' for Inactive)
REMARK    1  A    between atoms: C_2  and  C_4
REMARK    2  A    between atoms: C_7  and  N_8
REMARK    3  A    between atoms: N_8  and  C_9
REMARK    4  A    between atoms: C_9  and  C_10
REMARK    5  A    between atoms: C_14  and  N_15
REMARK                            x       y       z     vdW  Elec       q    Type
REMARK                         _______ _______ _______ _____ _____    ______ ____
ROOT
ATOM      1  N   UNL     1      48.804   4.395  17.265  0.00  0.00    +0.000 N 
ATOM      2  H   UNL     1      48.537   4.762  18.173  0.00  0.00    +0.000 HD
ENDROOT
BRANCH   1   6
ATOM      3  C   UNL     1      52.000   1.841  17.654  0.00  0.00    +0.000 A 
ATOM      4  C   UNL     1      52.114   3.174  18.012  0.00  0.00    +0.000 A 
ATOM      5  N   UNL     1      51.092   4.061  17.872  0.00  0.00    +0.000 NA
ATOM      6  C   UNL     1      49.937   3.584  17.364  0.00  0.00    +0.000 A 
ATOM      7  C   UNL     1      49.843   2.228  17.015  0.00  0.00    +0.000 A 
ATOM      8  N   UNL     1      50.854   1.326  17.133  0.00  0.00    +0.000 NA
BRANCH   3  10
ATOM      9  N   UNL     1      54.339   1.322  17.287  0.00  0.00    +0.000 N 
ATOM     10  C   UNL     1      53.154   0.920  17.843  0.00  0.00    +0.000 C 
ATOM     11  O   UNL     1      53.057  -0.132  18.460  0.00  0.00    +0.000 OA
ATOM     12  H   UNL     1      55.164   0.756  17.423  0.00  0.00    +0.000 HD
ATOM     13  H   UNL     1      54.409   2.229  16.837  0.00  0.00    +0.000 HD
ENDBRANCH   3  10
ENDBRANCH   1   6
BRANCH   1  14
ATOM     14  C   UNL     1      47.660   3.858  16.538  0.00  0.00    +0.000 C 
BRANCH  14  15
ATOM     15  C   UNL     1      47.422   4.705  15.314  0.00  0.00    +0.000 A 
ATOM     16  C   UNL     1      48.111   5.888  15.099  0.00  0.00    +0.000 A 
ATOM     17  N   UNL     1      47.929   6.672  14.018  0.00  0.00    +0.000 NA
ATOM     18  C   UNL     1      47.010   6.255  13.112  0.00  0.00    +0.000 A 
ATOM     19  C   UNL     1      46.241   5.088  13.198  0.00  0.00    +0.000 A 
ATOM     20  C   UNL     1      46.471   4.330  14.348  0.00  0.00    +0.000 A 
BRANCH  19  21
ATOM     21  N   UNL     1      45.349   4.699  12.223  0.00  0.00    +0.000 N 
ATOM     22  C   UNL     1      44.626   5.644  11.359  0.00  0.00    +0.000 C 
ATOM     23  C   UNL     1      43.125   5.319  11.381  0.00  0.00    +0.000 C 
ATOM     24  O   UNL     1      42.874   3.948  11.022  0.00  0.00    +0.000 OA
ATOM     25  C   UNL     1      43.550   3.062  11.931  0.00  0.00    +0.000 C 
ATOM     26  C   UNL     1      45.073   3.287  11.920  0.00  0.00    +0.000 C 
ENDBRANCH  19  21
ENDBRANCH  14  15
ENDBRANCH   1  14
TORSDOF 5
ENDMDL
MODEL 8
REMARK VINA RESULT:    -6.069      3.767      5.863
REMARK INTER + INTRA:          -8.465
REMARK INTER:                  -7.860
REMARK INTRA:                  -0.605
REMARK UNBOUND:                -0.623
REMARK  Name = 
REMARK  5 active torsions:
REMARK  status: ('A' for Active; 'I' for Inactive)
REMARK    1  A    between atoms: C_2  and  C_4
REMARK    2  A    between atoms: C_7  and  N_8
REMARK    3  A    between atoms: N_8  and  C_9
REMARK    4  A    between atoms: C_9  and  C_10
REMARK    5  A    between atoms: C_14  and  N_15
REMARK                            x       y       z     vdW  Elec       q    Type
REMARK                         _______ _______ _______ _____ _____    ______ ____
ROOT
ATOM      1  N   UNL     1      46.596   7.307  13.335  0.00  0.00    +0.000 N 
ATOM      2  H   UNL     1      46.023   8.142  13.411  0.00  0.00    +0.000 HD
ENDROOT
BRANCH   1   6
ATOM      3  C   UNL     1      44.636   4.063  11.747  0.00  0.00    +0.000 A 
ATOM      4  C   UNL     1      44.928   5.166  10.961  0.00  0.00    +0.000 A 
ATOM      5  N   UNL     1      45.548   6.273  11.452  0.00  0.00    +0.000 NA
ATOM      6  C   UNL     1      45.878   6.256  12.760  0.00  0.00    +0.000 A 
ATOM      7  C   UNL     1      45.579   5.124  13.534  0.00  0.00    +0.000 A 
ATOM      8  N   UNL     1      44.949   4.013  13.069  0.00  0.00    +0.000 NA
BRANCH   3  10
ATOM      9  N   UNL     1      44.518   2.400   9.987  0.00  0.00    +0.000 N 
ATOM     10  C   UNL     1      43.965   2.879  11.145  0.00  0.00    +0.000 C 
ATOM     11  O   UNL     1      42.981   2.358  11.651  0.00  0.00    +0.000 OA
ATOM     12  H   UNL     1      44.129   1.572   9.560  0.00  0.00    +0.000 HD
ATOM     13  H   UNL     1      45.372   2.810   9.623  0.00  0.00    +0.000 HD
ENDBRANCH   3  10
ENDBRANCH   1   6
BRANCH   1  14
ATOM     14  C   UNL     1      47.913   7.599  12.780  0.00  0.00    +0.000 C 
BRANCH  14  15
ATOM     15  C   UNL     1      48.941   7.465  13.874  0.00  0.00    +0.000 A 
ATOM     16  C   UNL     1      50.147   8.145  13.832  0.00  0.00    +0.000 A 
ATOM     17  N   UNL     1      51.090   8.054  14.789  0.00  0.00    +0.000 NA
ATOM     18  C   UNL     1      50.815   7.237  15.838  0.00  0.00    +0.000 A 
ATOM     19  C   UNL     1      49.644   6.490  16.013  0.00  0.00    +0.000 A 
ATOM     20  C   UNL     1      48.716   6.621  14.978  0.00  0.00    +0.000 A 
BRANCH  19  21
ATOM     21  N   UNL     1      49.408   5.706  17.121  0.00  0.00    +0.000 N 
ATOM     22  C   UNL     1      50.287   4.605  17.540  0.00  0.00    +0.000 C 
ATOM     23  C   UNL     1      49.452   3.336  17.768  0.00  0.00    +0.000 C 
ATOM     24  O   UNL     1      48.382   3.567  18.703  0.00  0.00    +0.000 OA
ATOM     25  C   UNL     1      47.514   4.608  18.221  0.00  0.00    +0.000 C 
ATOM     26  C   UNL     1      48.271   5.935  18.025  0.00  0.00    +0.000 C 
ENDBRANCH  19  21
ENDBRANCH  14  15
ENDBRANCH   1  14
TORSDOF 5
ENDMDL
MODEL 9
REMARK VINA RESULT:    -6.054      5.042      6.738
REMARK INTER + INTRA:          -8.446
REMARK INTER:                  -7.903
REMARK INTRA:                  -0.542
REMARK UNBOUND:                -0.623
REMARK  Name = 
REMARK  5 active torsions:
REMARK  status: ('A' for Active; 'I' for Inactive)
REMARK    1  A    between atoms: C_2  and  C_4
REMARK    2  A    between atoms: C_7  and  N_8
REMARK    3  A    between atoms: N_8  and  C_9
REMARK    4  A    between atoms: C_9  and  C_10
REMARK    5  A    between atoms: C_14  and  N_15
REMARK                            x       y       z     vdW  Elec       q    Type
REMARK                         _______ _______ _______ _____ _____    ______ ____
ROOT
ATOM      1  N   UNL     1      47.338   5.083  15.264  0.00  0.00    +0.000 N 
ATOM      2  H   UNL     1      48.322   5.278  15.106  0.00  0.00    +0.000 HD
ENDROOT
BRANCH   1   6
ATOM      3  C   UNL     1      45.246   4.535  11.769  0.00  0.00    +0.000 A 
ATOM      4  C   UNL     1      45.561   3.457  12.580  0.00  0.00    +0.000 A 
ATOM      5  N   UNL     1      46.278   3.588  13.729  0.00  0.00    +0.000 NA
ATOM      6  C   UNL     1      46.675   4.834  14.059  0.00  0.00    +0.000 A 
ATOM      7  C   UNL     1      46.338   5.912  13.226  0.00  0.00    +0.000 A 
ATOM      8  N   UNL     1      45.635   5.804  12.067  0.00  0.00    +0.000 NA
BRANCH   3  10
ATOM      9  N   UNL     1      43.456   5.235  10.292  0.00  0.00    +0.000 N 
ATOM     10  C   UNL     1      44.450   4.324  10.529  0.00  0.00    +0.000 C 
ATOM     11  O   UNL     1      44.670   3.397   9.761  0.00  0.00    +0.000 OA
ATOM     12  H   UNL     1      42.914   5.164   9.443  0.00  0.00    +0.000 HD
ATOM     13  H   UNL     1      43.336   6.031  10.910  0.00  0.00    +0.000 HD
ENDBRANCH   3  10
ENDBRANCH   1   6
BRANCH   1  14
ATOM     14  C   UNL     1      47.140   4.124  16.345  0.00  0.00    +0.000 C 
BRANCH  14  15
ATOM     15  C   UNL     1      48.472   3.518  16.705  0.00  0.00    +0.000 A 
ATOM     16  C   UNL     1      48.827   2.241  16.300  0.00  0.00    +0.000 A 
ATOM     17  N   UNL     1      50.007   1.665  16.599  0.00  0.00    +0.000 NA
ATOM     18  C   UNL     1      50.872   2.400  17.344  0.00  0.00    +0.000 A 
ATOM     19  C   UNL     1      50.649   3.696  17.822  0.00  0.00    +0.000 A 
ATOM     20  C   UNL     1      49.402   4.227  17.487  0.00  0.00    +0.000 A 
BRANCH  19  21
ATOM     21  N   UNL     1      51.584   4.405  18.543  0.00  0.00    +0.000 N 
ATOM     22  C   UNL     1      51.473   5.844  18.824  0.00  0.00    +0.000 C 
ATOM     23  C   UNL     1      52.782   6.548  18.436  0.00  0.00    +0.000 C 
ATOM     24  O   UNL     1      53.919   5.951  19.087  0.00  0.00    +0.000 OA
ATOM     25  C   UNL     1      54.022   4.560  18.733  0.00  0.00    +0.000 C 
ATOM     26  C   UNL     1      52.766   3.772  19.148  0.00  0.00    +0.000 C 
ENDBRANCH  19  21
ENDBRANCH  14  15
ENDBRANCH   1  14
TORSDOF 5
ENDMDL
