MODEL 1
REMARK VINA RESULT:    -7.993      0.000      0.000
REMARK INTER + INTRA:         -10.458
REMARK INTER:                  -9.862
REMARK INTRA:                  -0.596
REMARK UNBOUND:                -0.596
REMARK  Name = 
REMARK  5 active torsions:
REMARK  status: ('A' for Active; 'I' for Inactive)
REMARK    1  A    between atoms: C_1  and  C_2
REMARK    2  A    between atoms: C_2  and  O_3
REMARK    3  A    between atoms: C_2  and  C_13
REMARK    4  A    between atoms: O_3  and  C_4
REMARK    5  A    between atoms: C_7  and  C_8
REMARK                            x       y       z     vdW  Elec       q    Type
REMARK                         _______ _______ _______ _____ _____    ______ ____
ROOT
ATOM      1  C   UNL     1      44.602   4.019   9.069  0.00  0.00    +0.000 A 
ATOM      2  C   UNL     1      44.553   2.634   9.138  0.00  0.00    +0.000 A 
ATOM      3  C   UNL     1      45.522   1.899   8.459  0.00  0.00    +0.000 A 
ATOM      4  C   UNL     1      46.471   2.555   7.668  0.00  0.00    +0.000 A 
ATOM      5  C   UNL     1      46.380   3.940   7.599  0.00  0.00    +0.000 A 
ATOM      6  N   UNL     1      45.479   4.690   8.290  0.00  0.00    +0.000 NA
ENDROOT
BRANCH   4   7
ATOM      7  C   UNL     1      47.507   1.742   6.972  0.00  0.00    +0.000 C 
ATOM      8  N   UNL     1      48.574   2.366   6.400  0.00  0.00    +0.000 N 
ATOM      9  O   UNL     1      47.409   0.522   6.911  0.00  0.00    +0.000 OA
ATOM     10  H   UNL     1      48.742   3.357   6.367  0.00  0.00    +0.000 HD
ATOM     11  H   UNL     1      49.246   1.769   5.940  0.00  0.00    +0.000 HD
ENDBRANCH   4   7
BRANCH   1  12
ATOM     12  O   UNL     1      43.706   4.713   9.859  0.00  0.00    +0.000 OA
BRANCH  12  14
ATOM     13  C   UNL     1      42.696   5.213  12.034  0.00  0.00    +0.000 C 
ATOM     14  C   UNL     1      43.704   4.352  11.256  0.00  0.00    +0.000 C 
BRANCH  14  15
ATOM     15  C   UNL     1      45.149   4.548  11.830  0.00  0.00    +0.000 C 
ATOM     16  C   UNL     1      45.563   3.407  12.786  0.00  0.00    +0.000 C 
ATOM     17  C   UNL     1      46.914   3.635  13.459  0.00  0.00    +0.000 C 
ATOM     18  C   UNL     1      46.935   4.971  14.187  0.00  0.00    +0.000 C 
ATOM     19  C   UNL     1      46.648   6.106  13.213  0.00  0.00    +0.000 C 
ATOM     20  C   UNL     1      45.296   5.923  12.518  0.00  0.00    +0.000 C 
ENDBRANCH  14  15
ENDBRANCH  12  14
ENDBRANCH   1  12
TORSDOF 4
ENDMDL
MODEL 2
REMARK VINA RESULT:    -6.587      3.360      6.282
REMARK INTER + INTRA:          -8.723
REMARK INTER:                  -8.119
REMARK INTRA:                  -0.604
REMARK UNBOUND:                -0.596
REMARK  Name = 
REMARK  5 active torsions:
REMARK  status: ('A' for Active; 'I' for Inactive)
REMARK    1  A    between atoms: C_1  and  C_2
REMARK    2  A    between atoms: C_2  and  O_3
REMARK    3  A    between atoms: C_2  and  C_13
REMARK    4  A    between atoms: O_3  and  C_4
REMARK    5  A    between atoms: C_7  and  C_8
REMARK                            x       y       z     vdW  Elec       q    Type
REMARK                         _______ _______ _______ _____ _____    ______ ____
ROOT
ATOM      1  C   UNL     1      45.721   4.658  12.896  0.00  0.00    +0.000 A 
ATOM      2  C   UNL     1      46.226   5.873  12.458  0.00  0.00    +0.000 A 
ATOM      3  C   UNL     1      47.223   6.491  13.211  0.00  0.00    +0.000 A 
ATOM      4  C   UNL     1      47.640   5.921  14.418  0.00  0.00    +0.000 A 
ATOM      5  C   UNL     1      47.010   4.746  14.809  0.00  0.00    +0.000 A 
ATOM      6  N   UNL     1      46.070   4.093  14.072  0.00  0.00    +0.000 NA
ENDROOT
BRANCH   4   7
ATOM      7  C   UNL     1      48.723   6.593  15.189  0.00  0.00    +0.000 C 
ATOM      8  N   UNL     1      48.499   6.953  16.483  0.00  0.00    +0.000 N 
ATOM      9  O   UNL     1      49.811   6.821  14.672  0.00  0.00    +0.000 OA
ATOM     10  H   UNL     1      47.641   6.839  16.997  0.00  0.00    +0.000 HD
ATOM     11  H   UNL     1      49.265   7.406  16.960  0.00  0.00    +0.000 HD
ENDBRANCH   4   7
BRANCH   1  12
ATOM     12  O   UNL     1      44.830   4.017  12.056  0.00  0.00    +0.000 OA
BRANCH  12  14
ATOM     13  C   UNL     1      42.889   5.191  11.132  0.00  0.00    +0.000 C 
ATOM     14  C   UNL     1      44.362   4.798  10.937  0.00  0.00    +0.000 C 
BRANCH  14  15
ATOM     15  C   UNL     1      44.535   3.956   9.626  0.00  0.00    +0.000 C 
ATOM     16  C   UNL     1      44.809   2.464   9.918  0.00  0.00    +0.000 C 
ATOM     17  C   UNL     1      45.108   1.643   8.666  0.00  0.00    +0.000 C 
ATOM     18  C   UNL     1      46.262   2.252   7.884  0.00  0.00    +0.000 C 
ATOM     19  C   UNL     1      45.934   3.687   7.492  0.00  0.00    +0.000 C 
ATOM     20  C   UNL     1      45.633   4.552   8.719  0.00  0.00    +0.000 C 
ENDBRANCH  14  15
ENDBRANCH  12  14
ENDBRANCH   1  12
TORSDOF 4
ENDMDL
MODEL 3
REMARK VINA RESULT:    -6.007      3.375      6.404
REMARK INTER + INTRA:          -8.008
REMARK INTER:                  -7.547
REMARK INTRA:                  -0.460
REMARK UNBOUND:                -0.596
REMARK  Name = 
REMARK  5 active torsions:
REMARK  status: ('A' for Active; 'I' for Inactive)
REMARK    1  A    between atoms: C_1  and  C_2
REMARK    2  A    between atoms: C_2  and  O_3
REMARK    3  A    between atoms: C_2  and  C_13
REMARK    4  A    between atoms: O_3  and  C_4
REMARK    5  A    between atoms: C_7  and  C_8
REMARK                            x       y       z     vdW  Elec       q    Type
REMARK                         _______ _______ _______ _____ _____    ______ ____
ROOT
ATOM      1  C   UNL     1      45.748   6.497  11.650  0.00  0.00    +0.000 A 
ATOM      2  C   UNL     1      47.122   6.634  11.780  0.00  0.00    +0.000 A 
ATOM      3  C   UNL     1      47.641   7.889  12.088  0.00  0.00    +0.000 A 
ATOM      4  C   UNL     1      46.788   8.993  12.187  0.00  0.00    +0.000 A 
ATOM      5  C   UNL     1      45.437   8.764  11.955  0.00  0.00    +0.000 A 
ATOM      6  N   UNL     1      44.894   7.541  11.703  0.00  0.00    +0.000 NA
ENDROOT
BRANCH   4   7
ATOM      7  C   UNL     1      47.370  10.318  12.538  0.00  0.00    +0.000 C 
ATOM      8  N   UNL     1      48.097  10.447  13.682  0.00  0.00    +0.000 N 
ATOM      9  O   UNL     1      47.201  11.288  11.808  0.00  0.00    +0.000 OA
ATOM     10  H   UNL     1      48.275   9.729  14.363  0.00  0.00    +0.000 HD
ATOM     11  H   UNL     1      48.468  11.367  13.874  0.00  0.00    +0.000 HD
ENDBRANCH   4   7
BRANCH   1  12
ATOM     12  O   UNL     1      45.265   5.214  11.474  0.00  0.00    +0.000 OA
BRANCH  12  14
ATOM     13  C   UNL     1      42.890   4.617  11.546  0.00  0.00    +0.000 C 
ATOM     14  C   UNL     1      44.063   5.108  10.682  0.00  0.00    +0.000 C 
BRANCH  14  15
ATOM     15  C   UNL     1      44.325   4.115   9.499  0.00  0.00    +0.000 C 
ATOM     16  C   UNL     1      44.462   2.653   9.977  0.00  0.00    +0.000 C 
ATOM     17  C   UNL     1      44.843   1.680   8.864  0.00  0.00    +0.000 C 
ATOM     18  C   UNL     1      46.117   2.132   8.165  0.00  0.00    +0.000 C 
ATOM     19  C   UNL     1      45.933   3.529   7.587  0.00  0.00    +0.000 C 
ATOM     20  C   UNL     1      45.556   4.542   8.671  0.00  0.00    +0.000 C 
ENDBRANCH  14  15
ENDBRANCH  12  14
ENDBRANCH   1  12
TORSDOF 4
ENDMDL
MODEL 4
REMARK VINA RESULT:    -5.823      2.447      6.009
REMARK INTER + INTRA:          -7.780
REMARK INTER:                  -8.024
REMARK INTRA:                   0.244
REMARK UNBOUND:                -0.596
REMARK  Name = 
REMARK  5 active torsions:
REMARK  status: ('A' for Active; 'I' for Inactive)
REMARK    1  A    between atoms: C_1  and  C_2
REMARK    2  A    between atoms: C_2  and  O_3
REMARK    3  A    between atoms: C_2  and  C_13
REMARK    4  A    between atoms: O_3  and  C_4
REMARK    5  A    between atoms: C_7  and  C_8
REMARK                            x       y       z     vdW  Elec       q    Type
REMARK                         _______ _______ _______ _____ _____    ______ ____
ROOT
ATOM      1  C   UNL     1      44.695   5.151  10.139  0.00  0.00    +0.000 A 
ATOM      2  C   UNL     1      43.916   5.388  11.262  0.00  0.00    +0.000 A 
ATOM      3  C   UNL     1      44.399   6.259  12.236  0.00  0.00    +0.000 A 
ATOM      4  C   UNL     1      45.675   6.816  12.105  0.00  0.00    +0.000 A 
ATOM      5  C   UNL     1      46.408   6.447  10.983  0.00  0.00    +0.000 A 
ATOM      6  N   UNL     1      45.945   5.640   9.990  0.00  0.00    +0.000 NA
ENDROOT
BRANCH   4   7
ATOM      7  C   UNL     1      46.155   7.761  13.152  0.00  0.00    +0.000 C 
ATOM      8  N   UNL     1      47.124   7.361  14.021  0.00  0.00    +0.000 N 
ATOM      9  O   UNL     1      45.688   8.891  13.236  0.00  0.00    +0.000 OA
ATOM     10  H   UNL     1      47.557   6.454  14.060  0.00  0.00    +0.000 HD
ATOM     11  H   UNL     1      47.412   8.039  14.711  0.00  0.00    +0.000 HD
ENDBRANCH   4   7
BRANCH   1  12
ATOM     12  O   UNL     1      44.126   4.387   9.138  0.00  0.00    +0.000 OA
BRANCH  12  14
ATOM     13  C   UNL     1      45.037   2.629  10.581  0.00  0.00    +0.000 C 
ATOM     14  C   UNL     1      44.307   2.961   9.270  0.00  0.00    +0.000 C 
BRANCH  14  15
ATOM     15  C   UNL     1      45.127   2.441   8.040  0.00  0.00    +0.000 C 
ATOM     16  C   UNL     1      46.130   1.331   8.428  0.00  0.00    +0.000 C 
ATOM     17  C   UNL     1      47.032   0.895   7.276  0.00  0.00    +0.000 C 
ATOM     18  C   UNL     1      47.764   2.088   6.681  0.00  0.00    +0.000 C 
ATOM     19  C   UNL     1      46.765   3.126   6.187  0.00  0.00    +0.000 C 
ATOM     20  C   UNL     1      45.842   3.600   7.313  0.00  0.00    +0.000 C 
ENDBRANCH  14  15
ENDBRANCH  12  14
ENDBRANCH   1  12
TORSDOF 4
ENDMDL
MODEL 5
REMARK VINA RESULT:    -5.468      3.818      6.977
REMARK INTER + INTRA:          -7.342
REMARK INTER:                  -6.972
REMARK INTRA:                  -0.370
REMARK UNBOUND:                -0.596
REMARK  Name = 
REMARK  5 active torsions:
REMARK  status: ('A' for Active; 'I' for Inactive)
REMARK    1  A    between atoms: C_1  and  C_2
REMARK    2  A    between atoms: C_2  and  O_3
REMARK    3  A    between atoms: C_2  and  C_13
REMARK    4  A    between atoms: O_3  and  C_4
REMARK    5  A    between atoms: C_7  and  C_8
REMARK                            x       y       z     vdW  Elec       q    Type
REMARK                         _______ _______ _______ _____ _____    ______ ____
ROOT
ATOM      1  C   UNL     1      46.830   6.670  12.080  0.00  0.00    +0.000 A 
ATOM      2  C   UNL     1      46.358   7.974  12.066  0.00  0.00    +0.000 A 
ATOM      3  C   UNL     1      46.821   8.861  13.036  0.00  0.00    +0.000 A 
ATOM      4  C   UNL     1      47.685   8.410  14.039  0.00  0.00    +0.000 A 
ATOM      5  C   UNL     1      48.030   7.064  14.012  0.00  0.00    +0.000 A 
ATOM      6  N   UNL     1      47.635   6.186  13.050  0.00  0.00    +0.000 NA
ENDROOT
BRANCH   4   7
ATOM      7  C   UNL     1      48.180   9.387  15.049  0.00  0.00    +0.000 C 
ATOM      8  N   UNL     1      47.760   9.285  16.341  0.00  0.00    +0.000 N 
ATOM      9  O   UNL     1      48.960  10.277  14.729  0.00  0.00    +0.000 OA
ATOM     10  H   UNL     1      47.105   8.614  16.707  0.00  0.00    +0.000 HD
ATOM     11  H   UNL     1      48.124   9.972  16.984  0.00  0.00    +0.000 HD
ENDBRANCH   4   7
BRANCH   1  12
ATOM     12  O   UNL     1      46.449   5.860  11.028  0.00  0.00    +0.000 OA
BRANCH  12  14
ATOM     13  C   UNL     1      44.586   4.933  12.321  0.00  0.00    +0.000 C 
ATOM     14  C   UNL     1      45.045   5.526  10.980  0.00  0.00    +0.000 C 
BRANCH  14  15
ATOM     15  C   UNL     1      44.810   4.500   9.819  0.00  0.00    +0.000 C 
ATOM     16  C   UNL     1      44.799   3.038  10.319  0.00  0.00    +0.000 C 
ATOM     17  C   UNL     1      44.699   2.010   9.195  0.00  0.00    +0.000 C 
ATOM     18  C   UNL     1      45.811   2.214   8.177  0.00  0.00    +0.000 C 
ATOM     19  C   UNL     1      45.741   3.620   7.595  0.00  0.00    +0.000 C 
ATOM     20  C   UNL     1      45.845   4.687   8.688  0.00  0.00    +0.000 C 
ENDBRANCH  14  15
ENDBRANCH  12  14
ENDBRANCH   1  12
TORSDOF 4
ENDMDL
MODEL 6
REMARK VINA RESULT:    -5.375      3.494      5.561
REMARK INTER + INTRA:          -7.228
REMARK INTER:                  -6.668
REMARK INTRA:                  -0.560
REMARK UNBOUND:                -0.596
REMARK  Name = 
REMARK  5 active torsions:
REMARK  status: ('A' for Active; 'I' for Inactive)
REMARK    1  A    between atoms: C_1  and  C_2
REMARK    2  A    between atoms: C_2  and  O_3
REMARK    3  A    between atoms: C_2  and  C_13
REMARK    4  A    between atoms: O_3  and  C_4
REMARK    5  A    between atoms: C_7  and  C_8
REMARK                            x       y       z     vdW  Elec       q    Type
REMARK                         _______ _______ _______ _____ _____    ______ ____
ROOT
ATOM      1  C   UNL     1      46.312   6.105  12.725  0.00  0.00    +0.000 A 
ATOM      2  C   UNL     1      46.252   4.877  13.367  0.00  0.00    +0.000 A 
ATOM      3  C   UNL     1      45.551   3.839  12.756  0.00  0.00    +0.000 A 
ATOM      4  C   UNL     1      44.867   4.069  11.559  0.00  0.00    +0.000 A 
ATOM      5  C   UNL     1      44.920   5.357  11.042  0.00  0.00    +0.000 A 
ATOM      6  N   UNL     1      45.637   6.378  11.588  0.00  0.00    +0.000 NA
ENDROOT
BRANCH   4   7
ATOM      7  C   UNL     1      44.145   2.933  10.918  0.00  0.00    +0.000 C 
ATOM      8  N   UNL     1      44.726   2.271   9.880  0.00  0.00    +0.000 N 
ATOM      9  O   UNL     1      43.038   2.591  11.319  0.00  0.00    +0.000 OA
ATOM     10  H   UNL     1      45.613   2.483   9.456  0.00  0.00    +0.000 HD
ATOM     11  H   UNL     1      44.194   1.511   9.482  0.00  0.00    +0.000 HD
ENDBRANCH   4   7
BRANCH   1  12
ATOM     12  O   UNL     1      47.122   7.067  13.298  0.00  0.00    +0.000 OA
BRANCH  12  14
ATOM     13  C   UNL     1      49.310   7.094  14.400  0.00  0.00    +0.000 C 
ATOM     14  C   UNL     1      48.539   6.889  13.086  0.00  0.00    +0.000 C 
BRANCH  14  15
ATOM     15  C   UNL     1      49.020   7.915  12.004  0.00  0.00    +0.000 C 
ATOM     16  C   UNL     1      50.552   8.112  12.020  0.00  0.00    +0.000 C 
ATOM     17  C   UNL     1      51.038   9.199  11.064  0.00  0.00    +0.000 C 
ATOM     18  C   UNL     1      50.330  10.517  11.342  0.00  0.00    +0.000 C 
ATOM     19  C   UNL     1      48.823  10.346  11.203  0.00  0.00    +0.000 C 
ATOM     20  C   UNL     1      48.289   9.268  12.151  0.00  0.00    +0.000 C 
ENDBRANCH  14  15
ENDBRANCH  12  14
ENDBRANCH   1  12
TORSDOF 4
ENDMDL
MODEL 7
REMARK VINA RESULT:    -5.354      4.070      6.122
REMARK INTER + INTRA:          -7.201
REMARK INTER:                  -6.702
REMARK INTRA:                  -0.499
REMARK UNBOUND:                -0.596
REMARK  Name = 
REMARK  5 active torsions:
REMARK  status: ('A' for Active; 'I' for Inactive)
REMARK    1  A    between atoms: C_1  and  C_2
REMARK    2  A    between atoms: C_2  and  O_3
REMARK    3  A    between atoms: C_2  and  C_13
REMARK    4  A    between atoms: O_3  and  C_4
REMARK    5  A    between atoms: C_7  and  C_8
REMARK                            x       y       z     vdW  Elec       q    Type
REMARK                         _______ _______ _______ _____ _____    ______ ____
ROOT
ATOM      1  C   UNL     1      47.000   5.424  13.294  0.00  0.00    +0.000 A 
ATOM      2  C   UNL     1      46.813   6.354  12.282  0.00  0.00    +0.000 A 
ATOM      3  C   UNL     1      45.581   6.393  11.632  0.00  0.00    +0.000 A 
ATOM      4  C   UNL     1      44.592   5.459  11.954  0.00  0.00    +0.000 A 
ATOM      5  C   UNL     1      44.911   4.516  12.923  0.00  0.00    +0.000 A 
ATOM      6  N   UNL     1      46.085   4.483  13.611  0.00  0.00    +0.000 NA
ENDROOT
BRANCH   4   7
ATOM      7  C   UNL     1      43.277   5.540  11.258  0.00  0.00    +0.000 C 
ATOM      8  N   UNL     1      42.288   6.313  11.784  0.00  0.00    +0.000 N 
ATOM      9  O   UNL     1      43.082   4.921  10.218  0.00  0.00    +0.000 OA
ATOM     10  H   UNL     1      42.330   6.840  12.639  0.00  0.00    +0.000 HD
ATOM     11  H   UNL     1      41.417   6.333  11.273  0.00  0.00    +0.000 HD
ENDBRANCH   4   7
BRANCH   1  12
ATOM     12  O   UNL     1      48.186   5.504  14.000  0.00  0.00    +0.000 OA
BRANCH  12  14
ATOM     13  C   UNL     1      48.906   7.305  15.496  0.00  0.00    +0.000 C 
ATOM     14  C   UNL     1      48.074   6.021  15.342  0.00  0.00    +0.000 C 
BRANCH  14  15
ATOM     15  C   UNL     1      48.567   4.926  16.348  0.00  0.00    +0.000 C 
ATOM     16  C   UNL     1      47.410   4.048  16.875  0.00  0.00    +0.000 C 
ATOM     17  C   UNL     1      47.840   3.055  17.953  0.00  0.00    +0.000 C 
ATOM     18  C   UNL     1      48.529   3.772  19.103  0.00  0.00    +0.000 C 
ATOM     19  C   UNL     1      49.744   4.538  18.596  0.00  0.00    +0.000 C 
ATOM     20  C   UNL     1      49.359   5.553  17.516  0.00  0.00    +0.000 C 
ENDBRANCH  14  15
ENDBRANCH  12  14
ENDBRANCH   1  12
TORSDOF 4
ENDMDL
MODEL 8
REMARK VINA RESULT:    -5.250      3.756      5.831
REMARK INTER + INTRA:          -7.073
REMARK INTER:                  -6.521
REMARK INTRA:                  -0.552
REMARK UNBOUND:                -0.596
REMARK  Name = 
REMARK  5 active torsions:
REMARK  status: ('A' for Active; 'I' for Inactive)
REMARK    1  A    between atoms: C_1  and  C_2
REMARK    2  A    between atoms: C_2  and  O_3
REMARK    3  A    between atoms: C_2  and  C_13
REMARK    4  A    between atoms: O_3  and  C_4
REMARK    5  A    between atoms: C_7  and  C_8
REMARK                            x       y       z     vdW  Elec       q    Type
REMARK                         _______ _______ _______ _____ _____    ______ ____
ROOT
ATOM      1  C   UNL     1      46.117   6.316  12.624  0.00  0.00    +0.000 A 
ATOM      2  C   UNL     1      45.825   6.324  11.268  0.00  0.00    +0.000 A 
ATOM      3  C   UNL     1      45.128   5.245  10.729  0.00  0.00    +0.000 A 
ATOM      4  C   UNL     1      44.805   4.150  11.537  0.00  0.00    +0.000 A 
ATOM      5  C   UNL     1      45.219   4.203  12.862  0.00  0.00    +0.000 A 
ATOM      6  N   UNL     1      45.855   5.264  13.430  0.00  0.00    +0.000 NA
ENDROOT
BRANCH   4   7
ATOM      7  C   UNL     1      44.041   3.020  10.937  0.00  0.00    +0.000 C 
ATOM      8  N   UNL     1      43.353   2.171  11.750  0.00  0.00    +0.000 N 
ATOM      9  O   UNL     1      44.025   2.850   9.723  0.00  0.00    +0.000 OA
ATOM     10  H   UNL     1      43.318   2.200  12.755  0.00  0.00    +0.000 HD
ATOM     11  H   UNL     1      42.853   1.422  11.293  0.00  0.00    +0.000 HD
ENDBRANCH   4   7
BRANCH   1  12
ATOM     12  O   UNL     1      46.692   7.460  13.143  0.00  0.00    +0.000 OA
BRANCH  12  14
ATOM     13  C   UNL     1      48.972   7.186  13.996  0.00  0.00    +0.000 C 
ATOM     14  C   UNL     1      48.087   7.650  12.828  0.00  0.00    +0.000 C 
BRANCH  14  15
ATOM     15  C   UNL     1      48.334   9.168  12.525  0.00  0.00    +0.000 C 
ATOM     16  C   UNL     1      47.046   9.895  12.076  0.00  0.00    +0.000 C 
ATOM     17  C   UNL     1      47.280  11.343  11.652  0.00  0.00    +0.000 C 
ATOM     18  C   UNL     1      48.340  11.422  10.564  0.00  0.00    +0.000 C 
ATOM     19  C   UNL     1      49.647  10.813  11.057  0.00  0.00    +0.000 C 
ATOM     20  C   UNL     1      49.462   9.356  11.487  0.00  0.00    +0.000 C 
ENDBRANCH  14  15
ENDBRANCH  12  14
ENDBRANCH   1  12
TORSDOF 4
ENDMDL
MODEL 9
REMARK VINA RESULT:    -5.223      4.439      6.462
REMARK INTER + INTRA:          -7.040
REMARK INTER:                  -6.397
REMARK INTRA:                  -0.643
REMARK UNBOUND:                -0.596
REMARK  Name = 
REMARK  5 active torsions:
REMARK  status: ('A' for Active; 'I' for Inactive)
REMARK    1  A    between atoms: C_1  and  C_2
REMARK    2  A    between atoms: C_2  and  O_3
REMARK    3  A    between atoms: C_2  and  C_13
REMARK    4  A    between atoms: O_3  and  C_4
REMARK    5  A    between atoms: C_7  and  C_8
REMARK                            x       y       z     vdW  Elec       q    Type
REMARK                         _______ _______ _______ _____ _____    ______ ____
ROOT
ATOM      1  C   UNL     1      47.792   5.918  12.879  0.00  0.00    +0.000 A 
ATOM      2  C   UNL     1      46.848   6.491  12.041  0.00  0.00    +0.000 A 
ATOM      3  C   UNL     1      45.526   6.061  12.134  0.00  0.00    +0.000 A 
ATOM      4  C   UNL     1      45.189   5.021  13.006  0.00  0.00    +0.000 A 
ATOM      5  C   UNL     1      46.226   4.457  13.739  0.00  0.00    +0.000 A 
ATOM      6  N   UNL     1      47.516   4.888  13.708  0.00  0.00    +0.000 NA
ENDROOT
BRANCH   4   7
ATOM      7  C   UNL     1      43.764   4.598  13.098  0.00  0.00    +0.000 C 
ATOM      8  N   UNL     1      42.783   5.543  13.085  0.00  0.00    +0.000 N 
ATOM      9  O   UNL     1      43.468   3.412  13.184  0.00  0.00    +0.000 OA
ATOM     10  H   UNL     1      42.912   6.540  13.044  0.00  0.00    +0.000 HD
ATOM     11  H   UNL     1      41.835   5.203  13.151  0.00  0.00    +0.000 HD
ENDBRANCH   4   7
BRANCH   1  12
ATOM     12  O   UNL     1      49.062   6.462  12.848  0.00  0.00    +0.000 OA
BRANCH  12  14
ATOM     13  C   UNL     1      50.189   8.349  11.766  0.00  0.00    +0.000 C 
ATOM     14  C   UNL     1      49.118   7.902  12.774  0.00  0.00    +0.000 C 
BRANCH  14  15
ATOM     15  C   UNL     1      49.438   8.468  14.200  0.00  0.00    +0.000 C 
ATOM     16  C   UNL     1      50.194   7.449  15.081  0.00  0.00    +0.000 C 
ATOM     17  C   UNL     1      50.407   7.925  16.517  0.00  0.00    +0.000 C 
ATOM     18  C   UNL     1      49.083   8.305  17.161  0.00  0.00    +0.000 C 
ATOM     19  C   UNL     1      48.399   9.399  16.354  0.00  0.00    +0.000 C 
ATOM     20  C   UNL     1      48.157   8.964  14.906  0.00  0.00    +0.000 C 
ENDBRANCH  14  15
ENDBRANCH  12  14
ENDBRANCH   1  12
TORSDOF 4
ENDMDL
