MODEL 1
REMARK VINA RESULT:    -7.037      0.000      0.000
REMARK INTER + INTRA:          -7.962
REMARK INTER:                  -7.860
REMARK INTRA:                  -0.102
REMARK UNBOUND:                -0.102
REMARK  Name = 
REMARK  3 active torsions:
REMARK  status: ('A' for Active; 'I' for Inactive)
REMARK    1  A    between atoms: C_1  and  C_2
REMARK    2  A    between atoms: N_7  and  C_8
REMARK    3  A    between atoms: C_8  and  C_9
REMARK                            x       y       z     vdW  Elec       q    Type
REMARK                         _______ _______ _______ _____ _____    ______ ____
ROOT
ATOM      1  C   UNL     1      47.683   4.188  16.317  0.00  0.00    +0.000 C 
ATOM      2  C   UNL     1      47.238   4.583  14.942  0.00  0.00    +0.000 A 
ATOM      3  C   UNL     1      47.500   5.841  14.440  0.00  0.00    +0.000 A 
ATOM      4  C   UNL     1      47.025   6.080  13.173  0.00  0.00    +0.000 A 
ATOM      5  N   UNL     1      46.333   5.180  12.450  0.00  0.00    +0.000 NA
ATOM      6  C   UNL     1      46.128   3.979  13.008  0.00  0.00    +0.000 A 
ATOM      7  N   UNL     1      45.427   2.976  12.335  0.00  0.00    +0.000 N 
ATOM      8  N   UNL     1      46.553   3.653  14.243  0.00  0.00    +0.000 NA
ATOM      9  H   UNL     1      45.214   2.253  13.007  0.00  0.00    +0.000 HD
ENDROOT
BRANCH   7  10
ATOM     10  C   UNL     1      44.477   3.296  11.266  0.00  0.00    +0.000 C 
ATOM     11  C   UNL     1      43.321   4.243  11.549  0.00  0.00    +0.000 C 
ATOM     12  C   UNL     1      43.043   2.785  11.398  0.00  0.00    +0.000 C 
BRANCH  10  13
ATOM     13  C   UNL     1      45.059   3.233   9.858  0.00  0.00    +0.000 A 
ATOM     14  C   UNL     1      45.349   4.406   9.135  0.00  0.00    +0.000 A 
ATOM     15  C   UNL     1      46.000   4.357   7.899  0.00  0.00    +0.000 A 
ATOM     16  C   UNL     1      46.361   3.130   7.352  0.00  0.00    +0.000 A 
ATOM     17  C   UNL     1      46.038   1.953   8.021  0.00  0.00    +0.000 A 
ATOM     18  C   UNL     1      45.382   2.008   9.252  0.00  0.00    +0.000 A 
ENDBRANCH  10  13
ENDBRANCH   7  10
TORSDOF 2
ENDMDL
MODEL 2
REMARK VINA RESULT:    -6.722      1.819      5.241
REMARK INTER + INTRA:          -7.610
REMARK INTER:                  -8.110
REMARK INTRA:                   0.500
REMARK UNBOUND:                -0.102
REMARK  Name = 
REMARK  3 active torsions:
REMARK  status: ('A' for Active; 'I' for Inactive)
REMARK    1  A    between atoms: C_1  and  C_2
REMARK    2  A    between atoms: N_7  and  C_8
REMARK    3  A    between atoms: C_8  and  C_9
REMARK                            x       y       z     vdW  Elec       q    Type
REMARK                         _______ _______ _______ _____ _____    ______ ____
ROOT
ATOM      1  C   UNL     1      46.761   0.425   7.642  0.00  0.00    +0.000 C 
ATOM      2  C   UNL     1      46.251   1.793   7.977  0.00  0.00    +0.000 A 
ATOM      3  C   UNL     1      46.561   2.883   7.190  0.00  0.00    +0.000 A 
ATOM      4  C   UNL     1      46.042   4.082   7.614  0.00  0.00    +0.000 A 
ATOM      5  N   UNL     1      45.293   4.224   8.724  0.00  0.00    +0.000 NA
ATOM      6  C   UNL     1      45.032   3.114   9.428  0.00  0.00    +0.000 A 
ATOM      7  N   UNL     1      44.259   3.157  10.590  0.00  0.00    +0.000 N 
ATOM      8  N   UNL     1      45.498   1.896   9.092  0.00  0.00    +0.000 NA
ATOM      9  H   UNL     1      44.368   2.268  11.058  0.00  0.00    +0.000 HD
ENDROOT
BRANCH   7  10
ATOM     10  C   UNL     1      44.121   4.391  11.369  0.00  0.00    +0.000 C 
ATOM     11  C   UNL     1      42.816   4.677  12.095  0.00  0.00    +0.000 C 
ATOM     12  C   UNL     1      43.149   5.456  10.867  0.00  0.00    +0.000 C 
BRANCH  10  13
ATOM     13  C   UNL     1      45.427   4.926  11.947  0.00  0.00    +0.000 A 
ATOM     14  C   UNL     1      46.059   6.057  11.396  0.00  0.00    +0.000 A 
ATOM     15  C   UNL     1      47.184   6.627  11.998  0.00  0.00    +0.000 A 
ATOM     16  C   UNL     1      47.709   6.069  13.159  0.00  0.00    +0.000 A 
ATOM     17  C   UNL     1      47.135   4.919  13.694  0.00  0.00    +0.000 A 
ATOM     18  C   UNL     1      46.015   4.350  13.084  0.00  0.00    +0.000 A 
ENDBRANCH  10  13
ENDBRANCH   7  10
TORSDOF 2
ENDMDL
MODEL 3
REMARK VINA RESULT:    -6.477      1.159      1.441
REMARK INTER + INTRA:          -7.336
REMARK INTER:                  -7.328
REMARK INTRA:                  -0.008
REMARK UNBOUND:                -0.102
REMARK  Name = 
REMARK  3 active torsions:
REMARK  status: ('A' for Active; 'I' for Inactive)
REMARK    1  A    between atoms: C_1  and  C_2
REMARK    2  A    between atoms: N_7  and  C_8
REMARK    3  A    between atoms: C_8  and  C_9
REMARK                            x       y       z     vdW  Elec       q    Type
REMARK                         _______ _______ _______ _____ _____    ______ ____
ROOT
ATOM      1  C   UNL     1      48.195   4.131  17.147  0.00  0.00    +0.000 C 
ATOM      2  C   UNL     1      47.789   4.726  15.833  0.00  0.00    +0.000 A 
ATOM      3  C   UNL     1      48.374   5.884  15.362  0.00  0.00    +0.000 A 
ATOM      4  C   UNL     1      47.904   6.331  14.152  0.00  0.00    +0.000 A 
ATOM      5  N   UNL     1      46.928   5.719  13.455  0.00  0.00    +0.000 NA
ATOM      6  C   UNL     1      46.418   4.596  13.979  0.00  0.00    +0.000 A 
ATOM      7  N   UNL     1      45.408   3.885  13.327  0.00  0.00    +0.000 N 
ATOM      8  N   UNL     1      46.814   4.082  15.158  0.00  0.00    +0.000 NA
ATOM      9  H   UNL     1      45.038   3.214  13.986  0.00  0.00    +0.000 HD
ENDROOT
BRANCH   7  10
ATOM     10  C   UNL     1      44.520   4.535  12.359  0.00  0.00    +0.000 C 
ATOM     11  C   UNL     1      43.928   5.898  12.681  0.00  0.00    +0.000 C 
ATOM     12  C   UNL     1      43.046   4.696  12.725  0.00  0.00    +0.000 C 
BRANCH  10  13
ATOM     13  C   UNL     1      44.790   4.168  10.904  0.00  0.00    +0.000 A 
ATOM     14  C   UNL     1      45.335   5.103  10.003  0.00  0.00    +0.000 A 
ATOM     15  C   UNL     1      45.702   4.736   8.706  0.00  0.00    +0.000 A 
ATOM     16  C   UNL     1      45.519   3.425   8.276  0.00  0.00    +0.000 A 
ATOM     17  C   UNL     1      44.932   2.494   9.128  0.00  0.00    +0.000 A 
ATOM     18  C   UNL     1      44.561   2.868  10.422  0.00  0.00    +0.000 A 
ENDBRANCH  10  13
ENDBRANCH   7  10
TORSDOF 2
ENDMDL
MODEL 4
REMARK VINA RESULT:    -5.980      2.001      6.009
REMARK INTER + INTRA:          -6.781
REMARK INTER:                  -6.744
REMARK INTRA:                  -0.037
REMARK UNBOUND:                -0.102
REMARK  Name = 
REMARK  3 active torsions:
REMARK  status: ('A' for Active; 'I' for Inactive)
REMARK    1  A    between atoms: C_1  and  C_2
REMARK    2  A    between atoms: N_7  and  C_8
REMARK    3  A    between atoms: C_8  and  C_9
REMARK                            x       y       z     vdW  Elec       q    Type
REMARK                         _______ _______ _______ _____ _____    ______ ____
ROOT
ATOM      1  C   UNL     1      46.760   3.194   5.144  0.00  0.00    +0.000 C 
ATOM      2  C   UNL     1      46.449   2.954   6.590  0.00  0.00    +0.000 A 
ATOM      3  C   UNL     1      46.427   1.678   7.114  0.00  0.00    +0.000 A 
ATOM      4  C   UNL     1      46.115   1.594   8.449  0.00  0.00    +0.000 A 
ATOM      5  N   UNL     1      45.827   2.660   9.219  0.00  0.00    +0.000 NA
ATOM      6  C   UNL     1      45.879   3.865   8.635  0.00  0.00    +0.000 A 
ATOM      7  N   UNL     1      45.604   5.032   9.352  0.00  0.00    +0.000 N 
ATOM      8  N   UNL     1      46.173   4.046   7.334  0.00  0.00    +0.000 NA
ATOM      9  H   UNL     1      45.495   5.780   8.681  0.00  0.00    +0.000 HD
ENDROOT
BRANCH   7  10
ATOM     10  C   UNL     1      44.787   5.005  10.568  0.00  0.00    +0.000 C 
ATOM     11  C   UNL     1      43.491   4.210  10.583  0.00  0.00    +0.000 C 
ATOM     12  C   UNL     1      43.427   5.699  10.540  0.00  0.00    +0.000 C 
BRANCH  10  13
ATOM     13  C   UNL     1      45.572   5.171  11.865  0.00  0.00    +0.000 A 
ATOM     14  C   UNL     1      45.706   4.107  12.778  0.00  0.00    +0.000 A 
ATOM     15  C   UNL     1      46.529   4.213  13.903  0.00  0.00    +0.000 A 
ATOM     16  C   UNL     1      47.224   5.394  14.146  0.00  0.00    +0.000 A 
ATOM     17  C   UNL     1      47.066   6.478  13.289  0.00  0.00    +0.000 A 
ATOM     18  C   UNL     1      46.237   6.369  12.170  0.00  0.00    +0.000 A 
ENDBRANCH  10  13
ENDBRANCH   7  10
TORSDOF 2
ENDMDL
MODEL 5
REMARK VINA RESULT:    -5.912      2.261      3.340
REMARK INTER + INTRA:          -6.705
REMARK INTER:                  -7.626
REMARK INTRA:                   0.920
REMARK UNBOUND:                -0.102
REMARK  Name = 
REMARK  3 active torsions:
REMARK  status: ('A' for Active; 'I' for Inactive)
REMARK    1  A    between atoms: C_1  and  C_2
REMARK    2  A    between atoms: N_7  and  C_8
REMARK    3  A    between atoms: C_8  and  C_9
REMARK                            x       y       z     vdW  Elec       q    Type
REMARK                         _______ _______ _______ _____ _____    ______ ____
ROOT
ATOM      1  C   UNL     1      44.167   9.892  10.936  0.00  0.00    +0.000 C 
ATOM      2  C   UNL     1      44.551   8.552  11.486  0.00  0.00    +0.000 A 
ATOM      3  C   UNL     1      45.523   8.429  12.457  0.00  0.00    +0.000 A 
ATOM      4  C   UNL     1      45.790   7.145  12.865  0.00  0.00    +0.000 A 
ATOM      5  N   UNL     1      45.178   6.057  12.361  0.00  0.00    +0.000 NA
ATOM      6  C   UNL     1      44.241   6.263  11.426  0.00  0.00    +0.000 A 
ATOM      7  N   UNL     1      43.546   5.198  10.848  0.00  0.00    +0.000 N 
ATOM      8  N   UNL     1      43.912   7.483  10.963  0.00  0.00    +0.000 NA
ATOM      9  H   UNL     1      43.057   5.560  10.041  0.00  0.00    +0.000 HD
ENDROOT
BRANCH   7  10
ATOM     10  C   UNL     1      44.105   3.844  10.828  0.00  0.00    +0.000 C 
ATOM     11  C   UNL     1      43.400   2.731  11.588  0.00  0.00    +0.000 C 
ATOM     12  C   UNL     1      44.678   3.281  12.127  0.00  0.00    +0.000 C 
BRANCH  10  13
ATOM     13  C   UNL     1      44.894   3.500   9.570  0.00  0.00    +0.000 A 
ATOM     14  C   UNL     1      45.462   4.508   8.766  0.00  0.00    +0.000 A 
ATOM     15  C   UNL     1      46.292   4.196   7.687  0.00  0.00    +0.000 A 
ATOM     16  C   UNL     1      46.561   2.866   7.378  0.00  0.00    +0.000 A 
ATOM     17  C   UNL     1      45.969   1.851   8.122  0.00  0.00    +0.000 A 
ATOM     18  C   UNL     1      45.135   2.168   9.196  0.00  0.00    +0.000 A 
ENDBRANCH  10  13
ENDBRANCH   7  10
TORSDOF 2
ENDMDL
MODEL 6
REMARK VINA RESULT:    -5.307      2.873      7.215
REMARK INTER + INTRA:          -6.029
REMARK INTER:                  -6.032
REMARK INTRA:                   0.003
REMARK UNBOUND:                -0.102
REMARK  Name = 
REMARK  3 active torsions:
REMARK  status: ('A' for Active; 'I' for Inactive)
REMARK    1  A    between atoms: C_1  and  C_2
REMARK    2  A    between atoms: N_7  and  C_8
REMARK    3  A    between atoms: C_8  and  C_9
REMARK                            x       y       z     vdW  Elec       q    Type
REMARK                         _______ _______ _______ _____ _____    ______ ____
ROOT
ATOM      1  C   UNL     1      45.499   6.673  11.944  0.00  0.00    +0.000 C 
ATOM      2  C   UNL     1      46.045   5.538  12.755  0.00  0.00    +0.000 A 
ATOM      3  C   UNL     1      45.837   4.226  12.380  0.00  0.00    +0.000 A 
ATOM      4  C   UNL     1      46.378   3.282  13.217  0.00  0.00    +0.000 A 
ATOM      5  N   UNL     1      47.055   3.578  14.343  0.00  0.00    +0.000 NA
ATOM      6  C   UNL     1      47.219   4.876  14.631  0.00  0.00    +0.000 A 
ATOM      7  N   UNL     1      47.912   5.284  15.773  0.00  0.00    +0.000 N 
ATOM      8  N   UNL     1      46.724   5.872  13.873  0.00  0.00    +0.000 NA
ATOM      9  H   UNL     1      47.732   6.270  15.899  0.00  0.00    +0.000 HD
ENDROOT
BRANCH   7  10
ATOM     10  C   UNL     1      48.051   4.403  16.936  0.00  0.00    +0.000 C 
ATOM     11  C   UNL     1      46.843   3.629  17.439  0.00  0.00    +0.000 C 
ATOM     12  C   UNL     1      47.336   4.795  18.228  0.00  0.00    +0.000 C 
BRANCH  10  13
ATOM     13  C   UNL     1      49.444   3.810  17.122  0.00  0.00    +0.000 A 
ATOM     14  C   UNL     1      50.550   4.626  17.429  0.00  0.00    +0.000 A 
ATOM     15  C   UNL     1      51.799   4.076  17.726  0.00  0.00    +0.000 A 
ATOM     16  C   UNL     1      51.973   2.695  17.707  0.00  0.00    +0.000 A 
ATOM     17  C   UNL     1      50.911   1.870  17.353  0.00  0.00    +0.000 A 
ATOM     18  C   UNL     1      49.665   2.425  17.051  0.00  0.00    +0.000 A 
ENDBRANCH  10  13
ENDBRANCH   7  10
TORSDOF 2
ENDMDL
MODEL 7
REMARK VINA RESULT:    -5.150      2.561      7.548
REMARK INTER + INTRA:          -5.854
REMARK INTER:                  -5.727
REMARK INTRA:                  -0.127
REMARK UNBOUND:                -0.102
REMARK  Name = 
REMARK  3 active torsions:
REMARK  status: ('A' for Active; 'I' for Inactive)
REMARK    1  A    between atoms: C_1  and  C_2
REMARK    2  A    between atoms: N_7  and  C_8
REMARK    3  A    between atoms: C_8  and  C_9
REMARK                            x       y       z     vdW  Elec       q    Type
REMARK                         _______ _______ _______ _____ _____    ______ ____
ROOT
ATOM      1  C   UNL     1      45.055   4.815  11.588  0.00  0.00    +0.000 C 
ATOM      2  C   UNL     1      46.056   5.142  12.654  0.00  0.00    +0.000 A 
ATOM      3  C   UNL     1      47.096   6.017  12.414  0.00  0.00    +0.000 A 
ATOM      4  C   UNL     1      47.950   6.220  13.470  0.00  0.00    +0.000 A 
ATOM      5  N   UNL     1      47.823   5.612  14.664  0.00  0.00    +0.000 NA
ATOM      6  C   UNL     1      46.782   4.783  14.817  0.00  0.00    +0.000 A 
ATOM      7  N   UNL     1      46.560   4.111  16.022  0.00  0.00    +0.000 N 
ATOM      8  N   UNL     1      45.893   4.520  13.841  0.00  0.00    +0.000 NA
ATOM      9  H   UNL     1      45.865   3.399  15.847  0.00  0.00    +0.000 HD
ENDROOT
BRANCH   7  10
ATOM     10  C   UNL     1      47.652   3.862  16.968  0.00  0.00    +0.000 C 
ATOM     11  C   UNL     1      48.697   2.807  16.646  0.00  0.00    +0.000 C 
ATOM     12  C   UNL     1      47.681   2.522  17.700  0.00  0.00    +0.000 C 
BRANCH  10  13
ATOM     13  C   UNL     1      48.049   5.069  17.811  0.00  0.00    +0.000 A 
ATOM     14  C   UNL     1      47.118   5.714  18.648  0.00  0.00    +0.000 A 
ATOM     15  C   UNL     1      47.506   6.737  19.517  0.00  0.00    +0.000 A 
ATOM     16  C   UNL     1      48.835   7.148  19.557  0.00  0.00    +0.000 A 
ATOM     17  C   UNL     1      49.765   6.565  18.701  0.00  0.00    +0.000 A 
ATOM     18  C   UNL     1      49.370   5.547  17.830  0.00  0.00    +0.000 A 
ENDBRANCH  10  13
ENDBRANCH   7  10
TORSDOF 2
ENDMDL
MODEL 8
REMARK VINA RESULT:    -5.095      2.527      4.287
REMARK INTER + INTRA:          -5.793
REMARK INTER:                  -5.676
REMARK INTRA:                  -0.117
REMARK UNBOUND:                -0.102
REMARK  Name = 
REMARK  3 active torsions:
REMARK  status: ('A' for Active; 'I' for Inactive)
REMARK    1  A    between atoms: C_1  and  C_2
REMARK    2  A    between atoms: N_7  and  C_8
REMARK    3  A    between atoms: C_8  and  C_9
REMARK                            x       y       z     vdW  Elec       q    Type
REMARK                         _______ _______ _______ _____ _____    ______ ____
ROOT
ATOM      1  C   UNL     1      48.990   4.345  19.173  0.00  0.00    +0.000 C 
ATOM      2  C   UNL     1      48.523   3.930  17.811  0.00  0.00    +0.000 A 
ATOM      3  C   UNL     1      48.774   2.663  17.325  0.00  0.00    +0.000 A 
ATOM      4  C   UNL     1      48.304   2.415  16.058  0.00  0.00    +0.000 A 
ATOM      5  N   UNL     1      47.657   3.326  15.308  0.00  0.00    +0.000 NA
ATOM      6  C   UNL     1      47.448   4.530  15.857  0.00  0.00    +0.000 A 
ATOM      7  N   UNL     1      46.779   5.539  15.161  0.00  0.00    +0.000 N 
ATOM      8  N   UNL     1      47.871   4.866  17.090  0.00  0.00    +0.000 NA
ATOM      9  H   UNL     1      46.920   6.401  15.668  0.00  0.00    +0.000 HD
ENDROOT
BRANCH   7  10
ATOM     10  C   UNL     1      46.720   5.545  13.696  0.00  0.00    +0.000 C 
ATOM     11  C   UNL     1      48.009   5.626  12.894  0.00  0.00    +0.000 C 
ATOM     12  C   UNL     1      47.122   6.823  12.963  0.00  0.00    +0.000 C 
BRANCH  10  13
ATOM     13  C   UNL     1      45.522   4.808  13.105  0.00  0.00    +0.000 A 
ATOM     14  C   UNL     1      44.222   5.340  13.194  0.00  0.00    +0.000 A 
ATOM     15  C   UNL     1      43.142   4.736  12.545  0.00  0.00    +0.000 A 
ATOM     16  C   UNL     1      43.339   3.574  11.804  0.00  0.00    +0.000 A 
ATOM     17  C   UNL     1      44.604   2.998  11.745  0.00  0.00    +0.000 A 
ATOM     18  C   UNL     1      45.678   3.603  12.401  0.00  0.00    +0.000 A 
ENDBRANCH  10  13
ENDBRANCH   7  10
TORSDOF 2
ENDMDL
MODEL 9
REMARK VINA RESULT:    -4.784      2.942      4.434
REMARK INTER + INTRA:          -5.446
REMARK INTER:                  -6.343
REMARK INTRA:                   0.897
REMARK UNBOUND:                -0.102
REMARK  Name = 
REMARK  3 active torsions:
REMARK  status: ('A' for Active; 'I' for Inactive)
REMARK    1  A    between atoms: C_1  and  C_2
REMARK    2  A    between atoms: N_7  and  C_8
REMARK    3  A    between atoms: C_8  and  C_9
REMARK                            x       y       z     vdW  Elec       q    Type
REMARK                         _______ _______ _______ _____ _____    ______ ____
ROOT
ATOM      1  C   UNL     1      44.033  11.199  11.011  0.00  0.00    +0.000 C 
ATOM      2  C   UNL     1      44.939  10.124  11.528  0.00  0.00    +0.000 A 
ATOM      3  C   UNL     1      46.276  10.369  11.768  0.00  0.00    +0.000 A 
ATOM      4  C   UNL     1      46.999   9.296  12.227  0.00  0.00    +0.000 A 
ATOM      5  N   UNL     1      46.477   8.070  12.424  0.00  0.00    +0.000 NA
ATOM      6  C   UNL     1      45.169   7.918  12.175  0.00  0.00    +0.000 A 
ATOM      7  N   UNL     1      44.534   6.687  12.356  0.00  0.00    +0.000 N 
ATOM      8  N   UNL     1      44.381   8.910  11.721  0.00  0.00    +0.000 NA
ATOM      9  H   UNL     1      43.626   6.748  11.916  0.00  0.00    +0.000 HD
ENDROOT
BRANCH   7  10
ATOM     10  C   UNL     1      45.286   5.430  12.328  0.00  0.00    +0.000 C 
ATOM     11  C   UNL     1      45.498   4.654  13.618  0.00  0.00    +0.000 C 
ATOM     12  C   UNL     1      46.648   5.388  13.016  0.00  0.00    +0.000 C 
BRANCH  10  13
ATOM     13  C   UNL     1      45.204   4.670  11.008  0.00  0.00    +0.000 A 
ATOM     14  C   UNL     1      44.631   3.386  10.939  0.00  0.00    +0.000 A 
ATOM     15  C   UNL     1      44.437   2.740   9.715  0.00  0.00    +0.000 A 
ATOM     16  C   UNL     1      44.827   3.361   8.533  0.00  0.00    +0.000 A 
ATOM     17  C   UNL     1      45.446   4.606   8.577  0.00  0.00    +0.000 A 
ATOM     18  C   UNL     1      45.642   5.245   9.804  0.00  0.00    +0.000 A 
ENDBRANCH  10  13
ENDBRANCH   7  10
TORSDOF 2
ENDMDL
