MODEL 1
REMARK VINA RESULT:    -8.302      0.000      0.000
REMARK INTER + INTRA:         -11.205
REMARK INTER:                 -10.728
REMARK INTRA:                  -0.477
REMARK UNBOUND:                -0.477
REMARK  Name = 
REMARK  5 active torsions:
REMARK  status: ('A' for Active; 'I' for Inactive)
REMARK    1  A    between atoms: C_2  and  C_4
REMARK    2  A    between atoms: C_8  and  S_9
REMARK    3  A    between atoms: S_9  and  C_10
REMARK    4  A    between atoms: C_10  and  C_11
REMARK    5  A    between atoms: C_15  and  C_16
REMARK                            x       y       z     vdW  Elec       q    Type
REMARK                         _______ _______ _______ _____ _____    ______ ____
ROOT
ATOM      1  C   UNL     1      43.905   4.611  11.683  0.00  0.00    +0.000 C 
ENDROOT
BRANCH   1   2
ATOM      2  C   UNL     1      45.228   5.051  12.264  0.00  0.00    +0.000 A 
ATOM      3  C   UNL     1      46.018   6.013  11.634  0.00  0.00    +0.000 A 
ATOM      4  C   UNL     1      47.219   6.376  12.222  0.00  0.00    +0.000 A 
ATOM      5  N   UNL     1      47.680   5.857  13.381  0.00  0.00    +0.000 NA
ATOM      6  C   UNL     1      46.918   4.916  14.004  0.00  0.00    +0.000 A 
ATOM      7  C   UNL     1      45.690   4.509  13.471  0.00  0.00    +0.000 A 
BRANCH   6   8
ATOM      8  C   UNL     1      47.476   4.314  15.241  0.00  0.00    +0.000 A 
ATOM      9  C   UNL     1      47.747   5.073  16.386  0.00  0.00    +0.000 A 
ATOM     10  C   UNL     1      48.343   4.467  17.493  0.00  0.00    +0.000 A 
ATOM     11  C   UNL     1      48.648   3.120  17.434  0.00  0.00    +0.000 A 
ATOM     12  F   UNL     1      49.240   2.511  18.469  0.00  0.00    +0.000 F 
ATOM     13  C   UNL     1      48.337   2.419  16.285  0.00  0.00    +0.000 A 
ATOM     14  N   UNL     1      47.758   2.978  15.196  0.00  0.00    +0.000 NA
ENDBRANCH   6   8
ENDBRANCH   1   2
BRANCH   1  15
ATOM     15  S   UNL     1      43.946   2.887  11.083  0.00  0.00    +0.000 S 
BRANCH  15  20
ATOM     16  C   UNL     1      46.348   2.184   7.915  0.00  0.00    +0.000 A 
ATOM     17  C   UNL     1      46.387   3.434   7.302  0.00  0.00    +0.000 A 
ATOM     18  C   UNL     1      45.673   4.457   7.892  0.00  0.00    +0.000 A 
ATOM     19  N   UNL     1      44.951   4.312   9.023  0.00  0.00    +0.000 NA
ATOM     20  C   UNL     1      44.908   3.088   9.594  0.00  0.00    +0.000 A 
ATOM     21  C   UNL     1      45.584   1.998   9.069  0.00  0.00    +0.000 A 
BRANCH  16  23
ATOM     22  N   UNL     1      46.678  -0.221   7.735  0.00  0.00    +0.000 N 
ATOM     23  C   UNL     1      47.085   1.026   7.354  0.00  0.00    +0.000 C 
ATOM     24  O   UNL     1      47.998   1.178   6.553  0.00  0.00    +0.000 OA
ATOM     25  H   UNL     1      47.120  -0.998   7.259  0.00  0.00    +0.000 HD
ATOM     26  H   UNL     1      45.787  -0.396   8.178  0.00  0.00    +0.000 HD
ENDBRANCH  16  23
ENDBRANCH  15  20
ENDBRANCH   1  15
TORSDOF 5
ENDMDL
MODEL 2
REMARK VINA RESULT:    -8.273      3.690      7.515
REMARK INTER + INTRA:         -11.168
REMARK INTER:                 -10.471
REMARK INTRA:                  -0.697
REMARK UNBOUND:                -0.477
REMARK  Name = 
REMARK  5 active torsions:
REMARK  status: ('A' for Active; 'I' for Inactive)
REMARK    1  A    between atoms: C_2  and  C_4
REMARK    2  A    between atoms: C_8  and  S_9
REMARK    3  A    between atoms: S_9  and  C_10
REMARK    4  A    between atoms: C_10  and  C_11
REMARK    5  A    between atoms: C_15  and  C_16
REMARK                            x       y       z     vdW  Elec       q    Type
REMARK                         _______ _______ _______ _____ _____    ______ ____
ROOT
ATOM      1  C   UNL     1      44.295   6.625  11.864  0.00  0.00    +0.000 C 
ENDROOT
BRANCH   1   2
ATOM      2  C   UNL     1      44.171   5.215  11.335  0.00  0.00    +0.000 A 
ATOM      3  C   UNL     1      43.324   4.282  11.934  0.00  0.00    +0.000 A 
ATOM      4  C   UNL     1      43.253   3.008  11.396  0.00  0.00    +0.000 A 
ATOM      5  N   UNL     1      43.952   2.605  10.313  0.00  0.00    +0.000 NA
ATOM      6  C   UNL     1      44.783   3.506   9.721  0.00  0.00    +0.000 A 
ATOM      7  C   UNL     1      44.898   4.813  10.206  0.00  0.00    +0.000 A 
BRANCH   6   8
ATOM      8  C   UNL     1      45.590   3.021   8.573  0.00  0.00    +0.000 A 
ATOM      9  C   UNL     1      45.999   1.686   8.458  0.00  0.00    +0.000 A 
ATOM     10  C   UNL     1      46.822   1.303   7.398  0.00  0.00    +0.000 A 
ATOM     11  C   UNL     1      47.212   2.257   6.476  0.00  0.00    +0.000 A 
ATOM     12  F   UNL     1      48.018   1.931   5.460  0.00  0.00    +0.000 F 
ATOM     13  C   UNL     1      46.759   3.553   6.631  0.00  0.00    +0.000 A 
ATOM     14  N   UNL     1      45.960   3.954   7.647  0.00  0.00    +0.000 NA
ENDBRANCH   6   8
ENDBRANCH   1   2
BRANCH   1  15
ATOM     15  S   UNL     1      45.905   7.383  11.454  0.00  0.00    +0.000 S 
BRANCH  15  20
ATOM     16  C   UNL     1      47.447   5.352  14.584  0.00  0.00    +0.000 A 
ATOM     17  C   UNL     1      48.305   6.296  15.144  0.00  0.00    +0.000 A 
ATOM     18  C   UNL     1      48.374   7.534  14.538  0.00  0.00    +0.000 A 
ATOM     19  N   UNL     1      47.658   7.876  13.447  0.00  0.00    +0.000 NA
ATOM     20  C   UNL     1      46.846   6.941  12.904  0.00  0.00    +0.000 A 
ATOM     21  C   UNL     1      46.718   5.668  13.436  0.00  0.00    +0.000 A 
BRANCH  16  23
ATOM     22  N   UNL     1      46.969   3.912  16.488  0.00  0.00    +0.000 N 
ATOM     23  C   UNL     1      47.306   3.996  15.167  0.00  0.00    +0.000 C 
ATOM     24  O   UNL     1      47.450   2.989  14.485  0.00  0.00    +0.000 OA
ATOM     25  H   UNL     1      46.771   2.983  16.839  0.00  0.00    +0.000 HD
ATOM     26  H   UNL     1      46.596   4.694  17.009  0.00  0.00    +0.000 HD
ENDBRANCH  16  23
ENDBRANCH  15  20
ENDBRANCH   1  15
TORSDOF 5
ENDMDL
MODEL 3
REMARK VINA RESULT:    -7.824      4.897      8.047
REMARK INTER + INTRA:         -10.588
REMARK INTER:                  -9.886
REMARK INTRA:                  -0.702
REMARK UNBOUND:                -0.477
REMARK  Name = 
REMARK  5 active torsions:
REMARK  status: ('A' for Active; 'I' for Inactive)
REMARK    1  A    between atoms: C_2  and  C_4
REMARK    2  A    between atoms: C_8  and  S_9
REMARK    3  A    between atoms: S_9  and  C_10
REMARK    4  A    between atoms: C_10  and  C_11
REMARK    5  A    between atoms: C_15  and  C_16
REMARK                            x       y       z     vdW  Elec       q    Type
REMARK                         _______ _______ _______ _____ _____    ______ ____
ROOT
ATOM      1  C   UNL     1      44.583   5.955  12.797  0.00  0.00    +0.000 C 
ENDROOT
BRANCH   1   2
ATOM      2  C   UNL     1      44.328   4.702  11.993  0.00  0.00    +0.000 A 
ATOM      3  C   UNL     1      43.409   3.740  12.413  0.00  0.00    +0.000 A 
ATOM      4  C   UNL     1      43.218   2.616  11.627  0.00  0.00    +0.000 A 
ATOM      5  N   UNL     1      43.866   2.388  10.464  0.00  0.00    +0.000 NA
ATOM      6  C   UNL     1      44.766   3.319  10.045  0.00  0.00    +0.000 A 
ATOM      7  C   UNL     1      45.002   4.483  10.784  0.00  0.00    +0.000 A 
BRANCH   6   8
ATOM      8  C   UNL     1      45.513   3.016   8.798  0.00  0.00    +0.000 A 
ATOM      9  C   UNL     1      45.958   1.725   8.488  0.00  0.00    +0.000 A 
ATOM     10  C   UNL     1      46.724   1.512   7.341  0.00  0.00    +0.000 A 
ATOM     11  C   UNL     1      47.020   2.590   6.527  0.00  0.00    +0.000 A 
ATOM     12  F   UNL     1      47.770   2.428   5.430  0.00  0.00    +0.000 F 
ATOM     13  C   UNL     1      46.535   3.836   6.873  0.00  0.00    +0.000 A 
ATOM     14  N   UNL     1      45.790   4.073   7.979  0.00  0.00    +0.000 NA
ENDBRANCH   6   8
ENDBRANCH   1   2
BRANCH   1  15
ATOM     15  S   UNL     1      46.311   6.531  12.659  0.00  0.00    +0.000 S 
BRANCH  15  20
ATOM     16  C   UNL     1      44.600  10.010  11.535  0.00  0.00    +0.000 A 
ATOM     17  C   UNL     1      45.673  10.896  11.613  0.00  0.00    +0.000 A 
ATOM     18  C   UNL     1      46.893  10.386  12.006  0.00  0.00    +0.000 A 
ATOM     19  N   UNL     1      47.101   9.088  12.310  0.00  0.00    +0.000 NA
ATOM     20  C   UNL     1      46.045   8.247  12.248  0.00  0.00    +0.000 A 
ATOM     21  C   UNL     1      44.779   8.668  11.873  0.00  0.00    +0.000 A 
BRANCH  16  23
ATOM     22  N   UNL     1      42.501  11.132  12.048  0.00  0.00    +0.000 N 
ATOM     23  C   UNL     1      43.252  10.467  11.120  0.00  0.00    +0.000 C 
ATOM     24  O   UNL     1      42.838  10.288   9.982  0.00  0.00    +0.000 OA
ATOM     25  H   UNL     1      41.632  11.530  11.716  0.00  0.00    +0.000 HD
ATOM     26  H   UNL     1      42.894  11.520  12.895  0.00  0.00    +0.000 HD
ENDBRANCH  16  23
ENDBRANCH  15  20
ENDBRANCH   1  15
TORSDOF 5
ENDMDL
MODEL 4
REMARK VINA RESULT:    -7.697      1.517      1.870
REMARK INTER + INTRA:         -10.424
REMARK INTER:                  -9.755
REMARK INTRA:                  -0.669
REMARK UNBOUND:                -0.477
REMARK  Name = 
REMARK  5 active torsions:
REMARK  status: ('A' for Active; 'I' for Inactive)
REMARK    1  A    between atoms: C_2  and  C_4
REMARK    2  A    between atoms: C_8  and  S_9
REMARK    3  A    between atoms: S_9  and  C_10
REMARK    4  A    between atoms: C_10  and  C_11
REMARK    5  A    between atoms: C_15  and  C_16
REMARK                            x       y       z     vdW  Elec       q    Type
REMARK                         _______ _______ _______ _____ _____    ______ ____
ROOT
ATOM      1  C   UNL     1      44.649   4.941  11.661  0.00  0.00    +0.000 C 
ENDROOT
BRANCH   1   2
ATOM      2  C   UNL     1      45.896   5.384  12.389  0.00  0.00    +0.000 A 
ATOM      3  C   UNL     1      46.790   6.292  11.819  0.00  0.00    +0.000 A 
ATOM      4  C   UNL     1      47.912   6.661  12.541  0.00  0.00    +0.000 A 
ATOM      5  N   UNL     1      48.201   6.201  13.778  0.00  0.00    +0.000 NA
ATOM      6  C   UNL     1      47.338   5.314  14.343  0.00  0.00    +0.000 A 
ATOM      7  C   UNL     1      46.179   4.903  13.674  0.00  0.00    +0.000 A 
BRANCH   6   8
ATOM      8  C   UNL     1      47.709   4.771  15.674  0.00  0.00    +0.000 A 
ATOM      9  C   UNL     1      47.061   3.666  16.239  0.00  0.00    +0.000 A 
ATOM     10  C   UNL     1      47.399   3.247  17.526  0.00  0.00    +0.000 A 
ATOM     11  C   UNL     1      48.381   3.935  18.216  0.00  0.00    +0.000 A 
ATOM     12  F   UNL     1      48.716   3.576  19.461  0.00  0.00    +0.000 F 
ATOM     13  C   UNL     1      49.000   5.005  17.599  0.00  0.00    +0.000 A 
ATOM     14  N   UNL     1      48.693   5.433  16.351  0.00  0.00    +0.000 NA
ENDBRANCH   6   8
ENDBRANCH   1   2
BRANCH   1  15
ATOM     15  S   UNL     1      44.684   5.381   9.889  0.00  0.00    +0.000 S 
BRANCH  15  20
ATOM     16  C   UNL     1      46.439   2.535   7.626  0.00  0.00    +0.000 A 
ATOM     17  C   UNL     1      45.827   1.375   8.099  0.00  0.00    +0.000 A 
ATOM     18  C   UNL     1      44.887   1.513   9.099  0.00  0.00    +0.000 A 
ATOM     19  N   UNL     1      44.529   2.698   9.635  0.00  0.00    +0.000 NA
ATOM     20  C   UNL     1      45.145   3.811   9.179  0.00  0.00    +0.000 A 
ATOM     21  C   UNL     1      46.109   3.772   8.184  0.00  0.00    +0.000 A 
BRANCH  16  23
ATOM     22  N   UNL     1      47.266   3.288   5.464  0.00  0.00    +0.000 N 
ATOM     23  C   UNL     1      47.460   2.486   6.553  0.00  0.00    +0.000 C 
ATOM     24  O   UNL     1      48.456   1.782   6.651  0.00  0.00    +0.000 OA
ATOM     25  H   UNL     1      48.025   3.322   4.795  0.00  0.00    +0.000 HD
ATOM     26  H   UNL     1      46.610   4.057   5.460  0.00  0.00    +0.000 HD
ENDBRANCH  16  23
ENDBRANCH  15  20
ENDBRANCH   1  15
TORSDOF 5
ENDMDL
MODEL 5
REMARK VINA RESULT:    -7.593      4.600      7.469
REMARK INTER + INTRA:         -10.289
REMARK INTER:                  -9.475
REMARK INTRA:                  -0.814
REMARK UNBOUND:                -0.477
REMARK  Name = 
REMARK  5 active torsions:
REMARK  status: ('A' for Active; 'I' for Inactive)
REMARK    1  A    between atoms: C_2  and  C_4
REMARK    2  A    between atoms: C_8  and  S_9
REMARK    3  A    between atoms: S_9  and  C_10
REMARK    4  A    between atoms: C_10  and  C_11
REMARK    5  A    between atoms: C_15  and  C_16
REMARK                            x       y       z     vdW  Elec       q    Type
REMARK                         _______ _______ _______ _____ _____    ______ ____
ROOT
ATOM      1  C   UNL     1      44.476   6.220  12.691  0.00  0.00    +0.000 C 
ENDROOT
BRANCH   1   2
ATOM      2  C   UNL     1      44.268   4.913  11.964  0.00  0.00    +0.000 A 
ATOM      3  C   UNL     1      43.348   3.966  12.415  0.00  0.00    +0.000 A 
ATOM      4  C   UNL     1      43.201   2.789  11.700  0.00  0.00    +0.000 A 
ATOM      5  N   UNL     1      43.895   2.495  10.578  0.00  0.00    +0.000 NA
ATOM      6  C   UNL     1      44.796   3.410  10.130  0.00  0.00    +0.000 A 
ATOM      7  C   UNL     1      44.990   4.625  10.798  0.00  0.00    +0.000 A 
BRANCH   6   8
ATOM      8  C   UNL     1      45.593   3.037   8.934  0.00  0.00    +0.000 A 
ATOM      9  C   UNL     1      45.961   3.972   7.959  0.00  0.00    +0.000 A 
ATOM     10  C   UNL     1      46.643   3.550   6.817  0.00  0.00    +0.000 A 
ATOM     11  C   UNL     1      46.948   2.208   6.679  0.00  0.00    +0.000 A 
ATOM     12  F   UNL     1      47.582   1.764   5.587  0.00  0.00    +0.000 F 
ATOM     13  C   UNL     1      46.579   1.337   7.684  0.00  0.00    +0.000 A 
ATOM     14  N   UNL     1      45.917   1.716   8.803  0.00  0.00    +0.000 NA
ENDBRANCH   6   8
ENDBRANCH   1   2
BRANCH   1  15
ATOM     15  S   UNL     1      44.432   7.657  11.565  0.00  0.00    +0.000 S 
BRANCH  15  20
ATOM     16  C   UNL     1      48.311   8.182  12.555  0.00  0.00    +0.000 A 
ATOM     17  C   UNL     1      48.440   9.568  12.483  0.00  0.00    +0.000 A 
ATOM     18  C   UNL     1      47.320  10.295  12.136  0.00  0.00    +0.000 A 
ATOM     19  N   UNL     1      46.119   9.742  11.871  0.00  0.00    +0.000 NA
ATOM     20  C   UNL     1      46.016   8.396  11.925  0.00  0.00    +0.000 A 
ATOM     21  C   UNL     1      47.087   7.581  12.255  0.00  0.00    +0.000 A 
BRANCH  16  23
ATOM     22  N   UNL     1      50.506   7.262  12.045  0.00  0.00    +0.000 N 
ATOM     23  C   UNL     1      49.459   7.318  12.920  0.00  0.00    +0.000 C 
ATOM     24  O   UNL     1      49.486   6.706  13.980  0.00  0.00    +0.000 OA
ATOM     25  H   UNL     1      51.324   6.755  12.361  0.00  0.00    +0.000 HD
ATOM     26  H   UNL     1      50.637   7.935  11.302  0.00  0.00    +0.000 HD
ENDBRANCH  16  23
ENDBRANCH  15  20
ENDBRANCH   1  15
TORSDOF 5
ENDMDL
MODEL 6
REMARK VINA RESULT:    -7.445      2.725      4.009
REMARK INTER + INTRA:         -10.098
REMARK INTER:                  -9.287
REMARK INTRA:                  -0.811
REMARK UNBOUND:                -0.477
REMARK  Name = 
REMARK  5 active torsions:
REMARK  status: ('A' for Active; 'I' for Inactive)
REMARK    1  A    between atoms: C_2  and  C_4
REMARK    2  A    between atoms: C_8  and  S_9
REMARK    3  A    between atoms: S_9  and  C_10
REMARK    4  A    between atoms: C_10  and  C_11
REMARK    5  A    between atoms: C_15  and  C_16
REMARK                            x       y       z     vdW  Elec       q    Type
REMARK                         _______ _______ _______ _____ _____    ______ ____
ROOT
ATOM      1  C   UNL     1      44.041   5.058  11.652  0.00  0.00    +0.000 C 
ENDROOT
BRANCH   1   2
ATOM      2  C   UNL     1      45.341   5.142  12.416  0.00  0.00    +0.000 A 
ATOM      3  C   UNL     1      45.710   4.160  13.337  0.00  0.00    +0.000 A 
ATOM      4  C   UNL     1      46.918   4.294  14.001  0.00  0.00    +0.000 A 
ATOM      5  N   UNL     1      47.775   5.321  13.812  0.00  0.00    +0.000 NA
ATOM      6  C   UNL     1      47.425   6.285  12.917  0.00  0.00    +0.000 A 
ATOM      7  C   UNL     1      46.223   6.209  12.204  0.00  0.00    +0.000 A 
BRANCH   6   8
ATOM      8  C   UNL     1      48.351   7.436  12.774  0.00  0.00    +0.000 A 
ATOM      9  C   UNL     1      48.036   8.557  11.996  0.00  0.00    +0.000 A 
ATOM     10  C   UNL     1      48.978   9.575  11.835  0.00  0.00    +0.000 A 
ATOM     11  C   UNL     1      50.206   9.453  12.458  0.00  0.00    +0.000 A 
ATOM     12  F   UNL     1      51.141  10.399  12.308  0.00  0.00    +0.000 F 
ATOM     13  C   UNL     1      50.451   8.334  13.230  0.00  0.00    +0.000 A 
ATOM     14  N   UNL     1      49.558   7.332  13.406  0.00  0.00    +0.000 NA
ENDBRANCH   6   8
ENDBRANCH   1   2
BRANCH   1  15
ATOM     15  S   UNL     1      43.735   3.387  10.980  0.00  0.00    +0.000 S 
BRANCH  15  20
ATOM     16  C   UNL     1      46.266   2.269   8.040  0.00  0.00    +0.000 A 
ATOM     17  C   UNL     1      46.492   3.476   7.382  0.00  0.00    +0.000 A 
ATOM     18  C   UNL     1      45.858   4.598   7.873  0.00  0.00    +0.000 A 
ATOM     19  N   UNL     1      45.044   4.590   8.949  0.00  0.00    +0.000 NA
ATOM     20  C   UNL     1      44.819   3.408   9.564  0.00  0.00    +0.000 A 
ATOM     21  C   UNL     1      45.403   2.225   9.137  0.00  0.00    +0.000 A 
BRANCH  16  23
ATOM     22  N   UNL     1      48.007   1.120   6.786  0.00  0.00    +0.000 N 
ATOM     23  C   UNL     1      46.904   1.011   7.585  0.00  0.00    +0.000 C 
ATOM     24  O   UNL     1      46.484  -0.083   7.939  0.00  0.00    +0.000 OA
ATOM     25  H   UNL     1      48.492   0.256   6.575  0.00  0.00    +0.000 HD
ATOM     26  H   UNL     1      48.528   1.980   6.684  0.00  0.00    +0.000 HD
ENDBRANCH  16  23
ENDBRANCH  15  20
ENDBRANCH   1  15
TORSDOF 5
ENDMDL
MODEL 7
REMARK VINA RESULT:    -6.984      4.017      7.758
REMARK INTER + INTRA:          -9.502
REMARK INTER:                  -8.719
REMARK INTRA:                  -0.783
REMARK UNBOUND:                -0.477
REMARK  Name = 
REMARK  5 active torsions:
REMARK  status: ('A' for Active; 'I' for Inactive)
REMARK    1  A    between atoms: C_2  and  C_4
REMARK    2  A    between atoms: C_8  and  S_9
REMARK    3  A    between atoms: S_9  and  C_10
REMARK    4  A    between atoms: C_10  and  C_11
REMARK    5  A    between atoms: C_15  and  C_16
REMARK                            x       y       z     vdW  Elec       q    Type
REMARK                         _______ _______ _______ _____ _____    ______ ____
ROOT
ATOM      1  C   UNL     1      48.795   7.906  13.422  0.00  0.00    +0.000 C 
ENDROOT
BRANCH   1   2
ATOM      2  C   UNL     1      47.440   7.759  12.770  0.00  0.00    +0.000 A 
ATOM      3  C   UNL     1      46.463   8.749  12.888  0.00  0.00    +0.000 A 
ATOM      4  C   UNL     1      45.243   8.555  12.261  0.00  0.00    +0.000 A 
ATOM      5  N   UNL     1      44.934   7.462  11.530  0.00  0.00    +0.000 NA
ATOM      6  C   UNL     1      45.878   6.490  11.409  0.00  0.00    +0.000 A 
ATOM      7  C   UNL     1      47.136   6.623  12.009  0.00  0.00    +0.000 A 
BRANCH   6   8
ATOM      8  C   UNL     1      45.493   5.270  10.657  0.00  0.00    +0.000 A 
ATOM      9  C   UNL     1      45.663   5.160   9.271  0.00  0.00    +0.000 A 
ATOM     10  C   UNL     1      45.211   4.020   8.606  0.00  0.00    +0.000 A 
ATOM     11  C   UNL     1      44.607   3.015   9.338  0.00  0.00    +0.000 A 
ATOM     12  F   UNL     1      44.142   1.917   8.730  0.00  0.00    +0.000 F 
ATOM     13  C   UNL     1      44.486   3.170  10.705  0.00  0.00    +0.000 A 
ATOM     14  N   UNL     1      44.916   4.263  11.379  0.00  0.00    +0.000 NA
ENDBRANCH   6   8
ENDBRANCH   1   2
BRANCH   1  15
ATOM     15  S   UNL     1      48.678   8.511  15.141  0.00  0.00    +0.000 S 
BRANCH  15  20
ATOM     16  C   UNL     1      48.549   4.736  16.568  0.00  0.00    +0.000 A 
ATOM     17  C   UNL     1      49.641   4.720  17.434  0.00  0.00    +0.000 A 
ATOM     18  C   UNL     1      50.378   5.880  17.553  0.00  0.00    +0.000 A 
ATOM     19  N   UNL     1      50.097   7.019  16.886  0.00  0.00    +0.000 NA
ATOM     20  C   UNL     1      49.048   7.012  16.035  0.00  0.00    +0.000 A 
ATOM     21  C   UNL     1      48.255   5.892  15.841  0.00  0.00    +0.000 A 
BRANCH  16  23
ATOM     22  N   UNL     1      46.850   3.200  17.392  0.00  0.00    +0.000 N 
ATOM     23  C   UNL     1      47.699   3.537  16.376  0.00  0.00    +0.000 C 
ATOM     24  O   UNL     1      47.727   2.894  15.335  0.00  0.00    +0.000 OA
ATOM     25  H   UNL     1      46.202   2.446  17.200  0.00  0.00    +0.000 HD
ATOM     26  H   UNL     1      46.613   3.835  18.142  0.00  0.00    +0.000 HD
ENDBRANCH  16  23
ENDBRANCH  15  20
ENDBRANCH   1  15
TORSDOF 5
ENDMDL
MODEL 8
REMARK VINA RESULT:    -6.916      4.053      7.942
REMARK INTER + INTRA:          -9.415
REMARK INTER:                  -8.644
REMARK INTRA:                  -0.770
REMARK UNBOUND:                -0.477
REMARK  Name = 
REMARK  5 active torsions:
REMARK  status: ('A' for Active; 'I' for Inactive)
REMARK    1  A    between atoms: C_2  and  C_4
REMARK    2  A    between atoms: C_8  and  S_9
REMARK    3  A    between atoms: S_9  and  C_10
REMARK    4  A    between atoms: C_10  and  C_11
REMARK    5  A    between atoms: C_15  and  C_16
REMARK                            x       y       z     vdW  Elec       q    Type
REMARK                         _______ _______ _______ _____ _____    ______ ____
ROOT
ATOM      1  C   UNL     1      49.093   7.237  14.025  0.00  0.00    +0.000 C 
ENDROOT
BRANCH   1   2
ATOM      2  C   UNL     1      47.743   7.347  13.356  0.00  0.00    +0.000 A 
ATOM      3  C   UNL     1      46.938   8.476  13.518  0.00  0.00    +0.000 A 
ATOM      4  C   UNL     1      45.713   8.517  12.873  0.00  0.00    +0.000 A 
ATOM      5  N   UNL     1      45.241   7.527  12.084  0.00  0.00    +0.000 NA
ATOM      6  C   UNL     1      46.016   6.420  11.921  0.00  0.00    +0.000 A 
ATOM      7  C   UNL     1      47.269   6.316  12.535  0.00  0.00    +0.000 A 
BRANCH   6   8
ATOM      8  C   UNL     1      45.448   5.319  11.104  0.00  0.00    +0.000 A 
ATOM      9  C   UNL     1      44.794   4.222  11.678  0.00  0.00    +0.000 A 
ATOM     10  C   UNL     1      44.349   3.178  10.866  0.00  0.00    +0.000 A 
ATOM     11  C   UNL     1      44.560   3.255   9.502  0.00  0.00    +0.000 A 
ATOM     12  F   UNL     1      44.166   2.263   8.696  0.00  0.00    +0.000 F 
ATOM     13  C   UNL     1      45.192   4.372   8.991  0.00  0.00    +0.000 A 
ATOM     14  N   UNL     1      45.634   5.401   9.753  0.00  0.00    +0.000 NA
ENDBRANCH   6   8
ENDBRANCH   1   2
BRANCH   1  15
ATOM     15  S   UNL     1      49.197   8.235  15.551  0.00  0.00    +0.000 S 
BRANCH  15  20
ATOM     16  C   UNL     1      48.023   4.800  17.316  0.00  0.00    +0.000 A 
ATOM     17  C   UNL     1      47.922   5.184  18.652  0.00  0.00    +0.000 A 
ATOM     18  C   UNL     1      48.216   6.495  18.962  0.00  0.00    +0.000 A 
ATOM     19  N   UNL     1      48.586   7.417  18.049  0.00  0.00    +0.000 NA
ATOM     20  C   UNL     1      48.698   7.024  16.761  0.00  0.00    +0.000 A 
ATOM     21  C   UNL     1      48.434   5.726  16.355  0.00  0.00    +0.000 A 
BRANCH  16  23
ATOM     22  N   UNL     1      46.906   2.669  17.689  0.00  0.00    +0.000 N 
ATOM     23  C   UNL     1      47.726   3.412  16.888  0.00  0.00    +0.000 C 
ATOM     24  O   UNL     1      48.168   2.958  15.840  0.00  0.00    +0.000 OA
ATOM     25  H   UNL     1      46.628   1.765  17.327  0.00  0.00    +0.000 HD
ATOM     26  H   UNL     1      46.325   3.078  18.408  0.00  0.00    +0.000 HD
ENDBRANCH  16  23
ENDBRANCH  15  20
ENDBRANCH   1  15
TORSDOF 5
ENDMDL
MODEL 9
REMARK VINA RESULT:    -6.887      2.336      3.378
REMARK INTER + INTRA:          -9.377
REMARK INTER:                  -8.661
REMARK INTRA:                  -0.715
REMARK UNBOUND:                -0.477
REMARK  Name = 
REMARK  5 active torsions:
REMARK  status: ('A' for Active; 'I' for Inactive)
REMARK    1  A    between atoms: C_2  and  C_4
REMARK    2  A    between atoms: C_8  and  S_9
REMARK    3  A    between atoms: S_9  and  C_10
REMARK    4  A    between atoms: C_10  and  C_11
REMARK    5  A    between atoms: C_15  and  C_16
REMARK                            x       y       z     vdW  Elec       q    Type
REMARK                         _______ _______ _______ _____ _____    ______ ____
ROOT
ATOM      1  C   UNL     1      46.965   6.890  11.669  0.00  0.00    +0.000 C 
ENDROOT
BRANCH   1   2
ATOM      2  C   UNL     1      47.957   6.941  12.807  0.00  0.00    +0.000 A 
ATOM      3  C   UNL     1      49.088   7.757  12.754  0.00  0.00    +0.000 A 
ATOM      4  C   UNL     1      49.956   7.762  13.833  0.00  0.00    +0.000 A 
ATOM      5  N   UNL     1      49.776   7.024  14.951  0.00  0.00    +0.000 NA
ATOM      6  C   UNL     1      48.677   6.223  15.013  0.00  0.00    +0.000 A 
ATOM      7  C   UNL     1      47.754   6.176  13.963  0.00  0.00    +0.000 A 
BRANCH   6   8
ATOM      8  C   UNL     1      48.536   5.372  16.222  0.00  0.00    +0.000 A 
ATOM      9  C   UNL     1      49.450   5.420  17.281  0.00  0.00    +0.000 A 
ATOM     10  C   UNL     1      49.311   4.542  18.357  0.00  0.00    +0.000 A 
ATOM     11  C   UNL     1      48.259   3.643  18.354  0.00  0.00    +0.000 A 
ATOM     12  F   UNL     1      48.107   2.772  19.358  0.00  0.00    +0.000 F 
ATOM     13  C   UNL     1      47.377   3.658  17.291  0.00  0.00    +0.000 A 
ATOM     14  N   UNL     1      47.486   4.498  16.234  0.00  0.00    +0.000 NA
ENDBRANCH   6   8
ENDBRANCH   1   2
BRANCH   1  15
ATOM     15  S   UNL     1      45.244   7.117  12.236  0.00  0.00    +0.000 S 
BRANCH  15  20
ATOM     16  C   UNL     1      44.273   3.583  10.542  0.00  0.00    +0.000 A 
ATOM     17  C   UNL     1      43.583   2.950  11.574  0.00  0.00    +0.000 A 
ATOM     18  C   UNL     1      43.437   3.640  12.760  0.00  0.00    +0.000 A 
ATOM     19  N   UNL     1      43.916   4.884  12.968  0.00  0.00    +0.000 NA
ATOM     20  C   UNL     1      44.599   5.476  11.964  0.00  0.00    +0.000 A 
ATOM     21  C   UNL     1      44.806   4.858  10.741  0.00  0.00    +0.000 A 
BRANCH  16  23
ATOM     22  N   UNL     1      44.364   3.694   8.112  0.00  0.00    +0.000 N 
ATOM     23  C   UNL     1      44.479   2.920   9.232  0.00  0.00    +0.000 C 
ATOM     24  O   UNL     1      44.776   1.735   9.156  0.00  0.00    +0.000 OA
ATOM     25  H   UNL     1      44.614   3.250   7.237  0.00  0.00    +0.000 HD
ATOM     26  H   UNL     1      44.377   4.704   8.139  0.00  0.00    +0.000 HD
ENDBRANCH  16  23
ENDBRANCH  15  20
ENDBRANCH   1  15
TORSDOF 5
ENDMDL
