MODEL 1
REMARK VINA RESULT:    -7.737      0.000      0.000
REMARK INTER + INTRA:         -12.220
REMARK INTER:                 -11.129
REMARK INTRA:                  -1.091
REMARK UNBOUND:                -1.091
REMARK  Name = 
REMARK  8 active torsions:
REMARK  status: ('A' for Active; 'I' for Inactive)
REMARK    1  A    between atoms: C_2  and  C_20
REMARK    2  A    between atoms: N_3  and  C_4
REMARK    3  A    between atoms: C_4  and  C_5
REMARK    4  A    between atoms: C_8  and  C_9
REMARK    5  A    between atoms: C_9  and  N_10
REMARK    6  A    between atoms: N_10  and  C_11
REMARK    7  A    between atoms: C_11  and  C_12
REMARK    8  A    between atoms: C_15  and  O_16
REMARK                            x       y       z     vdW  Elec       q    Type
REMARK                         _______ _______ _______ _____ _____    ______ ____
ROOT
ATOM      1  C   UNL     1      46.546   6.559  12.517  0.00  0.00    +0.000 A 
ATOM      2  C   UNL     1      46.543   6.683  11.127  0.00  0.00    +0.000 A 
ATOM      3  C   UNL     1      45.744   5.843  10.361  0.00  0.00    +0.000 A 
ATOM      4  C   UNL     1      44.954   4.895  11.003  0.00  0.00    +0.000 A 
ATOM      5  N   UNL     1      44.901   4.783  12.358  0.00  0.00    +0.000 NA
ATOM      6  C   UNL     1      45.692   5.616  13.076  0.00  0.00    +0.000 A 
ENDROOT
BRANCH   1   7
ATOM      7  C   UNL     1      47.419   7.435  13.367  0.00  0.00    +0.000 C 
BRANCH   7  10
ATOM      8  O   UNL     1      49.984   7.049  14.470  0.00  0.00    +0.000 OA
ATOM      9  C   UNL     1      48.997   6.718  15.121  0.00  0.00    +0.000 C 
ATOM     10  N   UNL     1      47.720   6.815  14.630  0.00  0.00    +0.000 N 
ATOM     11  H   UNL     1      46.943   6.717  15.273  0.00  0.00    +0.000 HD
BRANCH   9  12
ATOM     12  C   UNL     1      49.120   6.136  16.461  0.00  0.00    +0.000 A 
ATOM     13  C   UNL     1      49.797   6.820  17.460  0.00  0.00    +0.000 A 
ATOM     14  S   UNL     1      49.849   5.977  18.943  0.00  0.00    +0.000 S 
ATOM     15  C   UNL     1      48.931   4.691  18.310  0.00  0.00    +0.000 A 
ATOM     16  N   UNL     1      48.586   3.626  19.083  0.00  0.00    +0.000 NA
ATOM     17  C   UNL     1      47.849   2.750  18.486  0.00  0.00    +0.000 A 
ATOM     18  N   UNL     1      47.437   2.835  17.181  0.00  0.00    +0.000 N 
ATOM     19  C   UNL     1      47.826   3.849  16.342  0.00  0.00    +0.000 A 
ATOM     20  O   UNL     1      47.568   3.816  15.142  0.00  0.00    +0.000 OA
ATOM     21  C   UNL     1      48.612   4.888  16.979  0.00  0.00    +0.000 A 
ATOM     22  H   UNL     1      46.874   2.101  16.768  0.00  0.00    +0.000 HD
ENDBRANCH   9  12
ENDBRANCH   7  10
ENDBRANCH   1   7
BRANCH   4  23
ATOM     23  C   UNL     1      44.075   3.967  10.183  0.00  0.00    +0.000 C 
BRANCH  23  24
ATOM     24  N   UNL     1      44.008   4.309   8.752  0.00  0.00    +0.000 NA
ATOM     25  H   UNL     1      44.594   5.138   8.642  0.00  0.00    +0.000 HD
BRANCH  24  26
ATOM     26  C   UNL     1      44.532   3.228   7.912  0.00  0.00    +0.000 C 
BRANCH  26  27
ATOM     27  C   UNL     1      46.001   2.924   8.252  0.00  0.00    +0.000 C 
ATOM     28  C   UNL     1      46.383   1.443   8.058  0.00  0.00    +0.000 C 
ATOM     29  C   UNL     1      47.541   1.412   7.063  0.00  0.00    +0.000 C 
ATOM     30  C   UNL     1      47.413   2.710   6.284  0.00  0.00    +0.000 C 
ATOM     31  C   UNL     1      46.962   3.708   7.342  0.00  0.00    +0.000 C 
BRANCH  30  32
ATOM     32  O   UNL     1      46.462   2.587   5.233  0.00  0.00    +0.000 OA
ATOM     33  H   UNL     1      45.569   2.508   5.616  0.00  0.00    +0.000 HD
ENDBRANCH  30  32
ENDBRANCH  26  27
ENDBRANCH  24  26
ENDBRANCH  23  24
ENDBRANCH   4  23
TORSDOF 8
ENDMDL
MODEL 2
REMARK VINA RESULT:    -7.428      1.723      2.242
REMARK INTER + INTRA:         -11.776
REMARK INTER:                 -10.922
REMARK INTRA:                  -0.854
REMARK UNBOUND:                -1.091
REMARK  Name = 
REMARK  8 active torsions:
REMARK  status: ('A' for Active; 'I' for Inactive)
REMARK    1  A    between atoms: C_2  and  C_20
REMARK    2  A    between atoms: N_3  and  C_4
REMARK    3  A    between atoms: C_4  and  C_5
REMARK    4  A    between atoms: C_8  and  C_9
REMARK    5  A    between atoms: C_9  and  N_10
REMARK    6  A    between atoms: N_10  and  C_11
REMARK    7  A    between atoms: C_11  and  C_12
REMARK    8  A    between atoms: C_15  and  O_16
REMARK                            x       y       z     vdW  Elec       q    Type
REMARK                         _______ _______ _______ _____ _____    ______ ____
ROOT
ATOM      1  C   UNL     1      46.870   6.002  12.742  0.00  0.00    +0.000 A 
ATOM      2  C   UNL     1      46.465   6.605  11.550  0.00  0.00    +0.000 A 
ATOM      3  C   UNL     1      45.545   5.963  10.730  0.00  0.00    +0.000 A 
ATOM      4  C   UNL     1      45.039   4.727  11.122  0.00  0.00    +0.000 A 
ATOM      5  N   UNL     1      45.380   4.139  12.300  0.00  0.00    +0.000 NA
ATOM      6  C   UNL     1      46.279   4.789  13.077  0.00  0.00    +0.000 A 
ENDROOT
BRANCH   1   7
ATOM      7  C   UNL     1      47.881   6.661  13.633  0.00  0.00    +0.000 C 
BRANCH   7  10
ATOM      8  O   UNL     1      49.992   6.678  15.501  0.00  0.00    +0.000 OA
ATOM      9  C   UNL     1      48.904   6.217  15.832  0.00  0.00    +0.000 C 
ATOM     10  N   UNL     1      47.847   6.115  14.964  0.00  0.00    +0.000 N 
ATOM     11  H   UNL     1      46.927   5.915  15.340  0.00  0.00    +0.000 HD
BRANCH   9  12
ATOM     12  C   UNL     1      48.674   5.685  17.179  0.00  0.00    +0.000 A 
ATOM     13  C   UNL     1      48.869   4.337  17.440  0.00  0.00    +0.000 A 
ATOM     14  S   UNL     1      48.536   3.904  19.057  0.00  0.00    +0.000 S 
ATOM     15  C   UNL     1      48.162   5.512  19.471  0.00  0.00    +0.000 A 
ATOM     16  N   UNL     1      47.813   5.848  20.742  0.00  0.00    +0.000 NA
ATOM     17  C   UNL     1      47.604   7.110  20.922  0.00  0.00    +0.000 A 
ATOM     18  N   UNL     1      47.698   8.064  19.942  0.00  0.00    +0.000 N 
ATOM     19  C   UNL     1      47.968   7.761  18.631  0.00  0.00    +0.000 A 
ATOM     20  O   UNL     1      47.893   8.616  17.753  0.00  0.00    +0.000 OA
ATOM     21  C   UNL     1      48.264   6.363  18.386  0.00  0.00    +0.000 A 
ATOM     22  H   UNL     1      47.503   9.037  20.148  0.00  0.00    +0.000 HD
ENDBRANCH   9  12
ENDBRANCH   7  10
ENDBRANCH   1   7
BRANCH   4  23
ATOM     23  C   UNL     1      44.034   4.009  10.238  0.00  0.00    +0.000 C 
BRANCH  23  24
ATOM     24  N   UNL     1      44.111   4.380   8.815  0.00  0.00    +0.000 NA
ATOM     25  H   UNL     1      44.787   5.144   8.768  0.00  0.00    +0.000 HD
BRANCH  24  26
ATOM     26  C   UNL     1      44.581   3.263   7.990  0.00  0.00    +0.000 C 
BRANCH  26  27
ATOM     27  C   UNL     1      46.053   2.932   8.293  0.00  0.00    +0.000 C 
ATOM     28  C   UNL     1      46.412   1.453   8.046  0.00  0.00    +0.000 C 
ATOM     29  C   UNL     1      47.552   1.439   7.030  0.00  0.00    +0.000 C 
ATOM     30  C   UNL     1      47.426   2.763   6.293  0.00  0.00    +0.000 C 
ATOM     31  C   UNL     1      47.007   3.732   7.390  0.00  0.00    +0.000 C 
BRANCH  30  32
ATOM     32  O   UNL     1      46.454   2.684   5.257  0.00  0.00    +0.000 OA
ATOM     33  H   UNL     1      46.725   2.005   4.614  0.00  0.00    +0.000 HD
ENDBRANCH  30  32
ENDBRANCH  26  27
ENDBRANCH  24  26
ENDBRANCH  23  24
ENDBRANCH   4  23
TORSDOF 8
ENDMDL
MODEL 3
REMARK VINA RESULT:    -7.096      3.516      8.088
REMARK INTER + INTRA:         -11.298
REMARK INTER:                  -9.900
REMARK INTRA:                  -1.398
REMARK UNBOUND:                -1.091
REMARK  Name = 
REMARK  8 active torsions:
REMARK  status: ('A' for Active; 'I' for Inactive)
REMARK    1  A    between atoms: C_2  and  C_20
REMARK    2  A    between atoms: N_3  and  C_4
REMARK    3  A    between atoms: C_4  and  C_5
REMARK    4  A    between atoms: C_8  and  C_9
REMARK    5  A    between atoms: C_9  and  N_10
REMARK    6  A    between atoms: N_10  and  C_11
REMARK    7  A    between atoms: C_11  and  C_12
REMARK    8  A    between atoms: C_15  and  O_16
REMARK                            x       y       z     vdW  Elec       q    Type
REMARK                         _______ _______ _______ _____ _____    ______ ____
ROOT
ATOM      1  C   UNL     1      48.906   7.665  13.326  0.00  0.00    +0.000 A 
ATOM      2  C   UNL     1      50.159   8.217  13.597  0.00  0.00    +0.000 A 
ATOM      3  C   UNL     1      50.818   7.889  14.776  0.00  0.00    +0.000 A 
ATOM      4  C   UNL     1      50.212   7.003  15.662  0.00  0.00    +0.000 A 
ATOM      5  N   UNL     1      49.014   6.414  15.402  0.00  0.00    +0.000 NA
ATOM      6  C   UNL     1      48.397   6.756  14.245  0.00  0.00    +0.000 A 
ENDROOT
BRANCH   1   7
ATOM      7  C   UNL     1      48.162   8.023  12.074  0.00  0.00    +0.000 C 
BRANCH   7  10
ATOM      8  O   UNL     1      45.371   7.839  11.722  0.00  0.00    +0.000 OA
ATOM      9  C   UNL     1      46.083   6.909  11.354  0.00  0.00    +0.000 C 
ATOM     10  N   UNL     1      47.441   6.894  11.547  0.00  0.00    +0.000 N 
ATOM     11  H   UNL     1      47.995   6.204  11.053  0.00  0.00    +0.000 HD
BRANCH   9  12
ATOM     12  C   UNL     1      45.517   5.710  10.728  0.00  0.00    +0.000 A 
ATOM     13  C   UNL     1      45.725   5.461   9.380  0.00  0.00    +0.000 A 
ATOM     14  S   UNL     1      44.977   4.029   8.831  0.00  0.00    +0.000 S 
ATOM     15  C   UNL     1      44.387   3.672  10.387  0.00  0.00    +0.000 A 
ATOM     16  N   UNL     1      43.668   2.542  10.625  0.00  0.00    +0.000 NA
ATOM     17  C   UNL     1      43.327   2.376  11.859  0.00  0.00    +0.000 A 
ATOM     18  N   UNL     1      43.629   3.246  12.876  0.00  0.00    +0.000 N 
ATOM     19  C   UNL     1      44.282   4.435  12.669  0.00  0.00    +0.000 A 
ATOM     20  O   UNL     1      44.399   5.261  13.571  0.00  0.00    +0.000 OA
ATOM     21  C   UNL     1      44.733   4.644  11.307  0.00  0.00    +0.000 A 
ATOM     22  H   UNL     1      43.314   3.064  13.821  0.00  0.00    +0.000 HD
ENDBRANCH   9  12
ENDBRANCH   7  10
ENDBRANCH   1   7
BRANCH   4  23
ATOM     23  C   UNL     1      50.915   6.633  16.956  0.00  0.00    +0.000 C 
BRANCH  23  24
ATOM     24  N   UNL     1      50.234   5.583  17.733  0.00  0.00    +0.000 NA
ATOM     25  H   UNL     1      49.300   5.506  17.327  0.00  0.00    +0.000 HD
BRANCH  24  26
ATOM     26  C   UNL     1      50.923   4.294  17.621  0.00  0.00    +0.000 C 
BRANCH  26  27
ATOM     27  C   UNL     1      50.026   3.143  18.107  0.00  0.00    +0.000 C 
ATOM     28  C   UNL     1      48.683   3.618  18.696  0.00  0.00    +0.000 C 
ATOM     29  C   UNL     1      47.579   2.942  17.885  0.00  0.00    +0.000 C 
ATOM     30  C   UNL     1      48.232   2.609  16.554  0.00  0.00    +0.000 C 
ATOM     31  C   UNL     1      49.645   2.201  16.952  0.00  0.00    +0.000 C 
BRANCH  30  32
ATOM     32  O   UNL     1      48.231   3.734  15.684  0.00  0.00    +0.000 OA
ATOM     33  H   UNL     1      48.467   4.531  16.191  0.00  0.00    +0.000 HD
ENDBRANCH  30  32
ENDBRANCH  26  27
ENDBRANCH  24  26
ENDBRANCH  23  24
ENDBRANCH   4  23
TORSDOF 8
ENDMDL
MODEL 4
REMARK VINA RESULT:    -7.019      2.952      8.637
REMARK INTER + INTRA:         -11.187
REMARK INTER:                  -9.703
REMARK INTRA:                  -1.484
REMARK UNBOUND:                -1.091
REMARK  Name = 
REMARK  8 active torsions:
REMARK  status: ('A' for Active; 'I' for Inactive)
REMARK    1  A    between atoms: C_2  and  C_20
REMARK    2  A    between atoms: N_3  and  C_4
REMARK    3  A    between atoms: C_4  and  C_5
REMARK    4  A    between atoms: C_8  and  C_9
REMARK    5  A    between atoms: C_9  and  N_10
REMARK    6  A    between atoms: N_10  and  C_11
REMARK    7  A    between atoms: C_11  and  C_12
REMARK    8  A    between atoms: C_15  and  O_16
REMARK                            x       y       z     vdW  Elec       q    Type
REMARK                         _______ _______ _______ _____ _____    ______ ____
ROOT
ATOM      1  C   UNL     1      48.426   7.585  13.078  0.00  0.00    +0.000 A 
ATOM      2  C   UNL     1      49.618   8.307  13.012  0.00  0.00    +0.000 A 
ATOM      3  C   UNL     1      50.566   8.169  14.020  0.00  0.00    +0.000 A 
ATOM      4  C   UNL     1      50.304   7.302  15.076  0.00  0.00    +0.000 A 
ATOM      5  N   UNL     1      49.172   6.550  15.142  0.00  0.00    +0.000 NA
ATOM      6  C   UNL     1      48.269   6.708  14.146  0.00  0.00    +0.000 A 
ENDROOT
BRANCH   1   7
ATOM      7  C   UNL     1      47.375   7.735  12.019  0.00  0.00    +0.000 C 
BRANCH   7  10
ATOM      8  O   UNL     1      44.581   7.429  11.806  0.00  0.00    +0.000 OA
ATOM      9  C   UNL     1      45.303   6.449  11.650  0.00  0.00    +0.000 C 
ATOM     10  N   UNL     1      46.666   6.502  11.799  0.00  0.00    +0.000 N 
ATOM     11  H   UNL     1      47.222   5.722  11.468  0.00  0.00    +0.000 HD
BRANCH   9  12
ATOM     12  C   UNL     1      44.749   5.126  11.347  0.00  0.00    +0.000 A 
ATOM     13  C   UNL     1      43.951   4.473  12.275  0.00  0.00    +0.000 A 
ATOM     14  S   UNL     1      43.414   2.941  11.748  0.00  0.00    +0.000 S 
ATOM     15  C   UNL     1      44.194   3.119  10.246  0.00  0.00    +0.000 A 
ATOM     16  N   UNL     1      44.111   2.154   9.291  0.00  0.00    +0.000 NA
ATOM     17  C   UNL     1      44.710   2.445   8.185  0.00  0.00    +0.000 A 
ATOM     18  N   UNL     1      45.398   3.608   7.953  0.00  0.00    +0.000 N 
ATOM     19  C   UNL     1      45.576   4.573   8.912  0.00  0.00    +0.000 A 
ATOM     20  O   UNL     1      46.325   5.527   8.723  0.00  0.00    +0.000 OA
ATOM     21  C   UNL     1      44.877   4.318  10.157  0.00  0.00    +0.000 A 
ATOM     22  H   UNL     1      45.863   3.764   7.066  0.00  0.00    +0.000 HD
ENDBRANCH   9  12
ENDBRANCH   7  10
ENDBRANCH   1   7
BRANCH   4  23
ATOM     23  C   UNL     1      51.327   7.138  16.187  0.00  0.00    +0.000 C 
BRANCH  23  24
ATOM     24  N   UNL     1      50.905   6.227  17.264  0.00  0.00    +0.000 NA
ATOM     25  H   UNL     1      49.937   5.981  17.051  0.00  0.00    +0.000 HD
BRANCH  24  26
ATOM     26  C   UNL     1      51.722   5.010  17.295  0.00  0.00    +0.000 C 
BRANCH  26  27
ATOM     27  C   UNL     1      51.090   3.942  18.203  0.00  0.00    +0.000 C 
ATOM     28  C   UNL     1      49.900   4.467  19.032  0.00  0.00    +0.000 C 
ATOM     29  C   UNL     1      48.697   3.594  18.681  0.00  0.00    +0.000 C 
ATOM     30  C   UNL     1      49.020   3.030  17.308  0.00  0.00    +0.000 C 
ATOM     31  C   UNL     1      50.520   2.772  17.382  0.00  0.00    +0.000 C 
BRANCH  30  32
ATOM     32  O   UNL     1      48.693   3.957  16.280  0.00  0.00    +0.000 OA
ATOM     33  H   UNL     1      49.513   4.265  15.853  0.00  0.00    +0.000 HD
ENDBRANCH  30  32
ENDBRANCH  26  27
ENDBRANCH  24  26
ENDBRANCH  23  24
ENDBRANCH   4  23
TORSDOF 8
ENDMDL
MODEL 5
REMARK VINA RESULT:    -6.997      4.577      9.622
REMARK INTER + INTRA:         -11.156
REMARK INTER:                 -10.134
REMARK INTRA:                  -1.022
REMARK UNBOUND:                -1.091
REMARK  Name = 
REMARK  8 active torsions:
REMARK  status: ('A' for Active; 'I' for Inactive)
REMARK    1  A    between atoms: C_2  and  C_20
REMARK    2  A    between atoms: N_3  and  C_4
REMARK    3  A    between atoms: C_4  and  C_5
REMARK    4  A    between atoms: C_8  and  C_9
REMARK    5  A    between atoms: C_9  and  N_10
REMARK    6  A    between atoms: N_10  and  C_11
REMARK    7  A    between atoms: C_11  and  C_12
REMARK    8  A    between atoms: C_15  and  O_16
REMARK                            x       y       z     vdW  Elec       q    Type
REMARK                         _______ _______ _______ _____ _____    ______ ____
ROOT
ATOM      1  C   UNL     1      48.633   3.255  17.259  0.00  0.00    +0.000 A 
ATOM      2  C   UNL     1      49.351   2.123  16.872  0.00  0.00    +0.000 A 
ATOM      3  C   UNL     1      50.711   2.040  17.148  0.00  0.00    +0.000 A 
ATOM      4  C   UNL     1      51.328   3.094  17.815  0.00  0.00    +0.000 A 
ATOM      5  N   UNL     1      50.644   4.188  18.245  0.00  0.00    +0.000 NA
ATOM      6  C   UNL     1      49.321   4.239  17.960  0.00  0.00    +0.000 A 
ENDROOT
BRANCH   1   7
ATOM      7  C   UNL     1      47.171   3.382  16.950  0.00  0.00    +0.000 C 
BRANCH   7  10
ATOM      8  O   UNL     1      47.293   3.031  14.156  0.00  0.00    +0.000 OA
ATOM      9  C   UNL     1      46.951   4.120  14.608  0.00  0.00    +0.000 C 
ATOM     10  N   UNL     1      46.927   4.390  15.953  0.00  0.00    +0.000 N 
ATOM     11  H   UNL     1      46.453   5.226  16.272  0.00  0.00    +0.000 HD
BRANCH   9  12
ATOM     12  C   UNL     1      46.596   5.239  13.729  0.00  0.00    +0.000 A 
ATOM     13  C   UNL     1      47.497   6.271  13.512  0.00  0.00    +0.000 A 
ATOM     14  S   UNL     1      46.899   7.487  12.475  0.00  0.00    +0.000 S 
ATOM     15  C   UNL     1      45.433   6.653  12.248  0.00  0.00    +0.000 A 
ATOM     16  N   UNL     1      44.463   7.145  11.432  0.00  0.00    +0.000 NA
ATOM     17  C   UNL     1      43.426   6.384  11.316  0.00  0.00    +0.000 A 
ATOM     18  N   UNL     1      43.265   5.182  11.955  0.00  0.00    +0.000 N 
ATOM     19  C   UNL     1      44.180   4.685  12.848  0.00  0.00    +0.000 A 
ATOM     20  O   UNL     1      43.937   3.685  13.518  0.00  0.00    +0.000 OA
ATOM     21  C   UNL     1      45.389   5.476  12.973  0.00  0.00    +0.000 A 
ATOM     22  H   UNL     1      42.416   4.642  11.834  0.00  0.00    +0.000 HD
ENDBRANCH   9  12
ENDBRANCH   7  10
ENDBRANCH   1   7
BRANCH   4  23
ATOM     23  C   UNL     1      52.814   3.023  18.124  0.00  0.00    +0.000 C 
BRANCH  23  24
ATOM     24  N   UNL     1      53.310   1.661  18.386  0.00  0.00    +0.000 NA
ATOM     25  H   UNL     1      52.480   1.066  18.400  0.00  0.00    +0.000 HD
BRANCH  24  26
ATOM     26  C   UNL     1      54.218   1.204  17.330  0.00  0.00    +0.000 C 
BRANCH  26  27
ATOM     27  C   UNL     1      55.243   0.197  17.879  0.00  0.00    +0.000 C 
ATOM     28  C   UNL     1      55.377   0.233  19.415  0.00  0.00    +0.000 C 
ATOM     29  C   UNL     1      55.064  -1.174  19.920  0.00  0.00    +0.000 C 
ATOM     30  C   UNL     1      54.213  -1.794  18.824  0.00  0.00    +0.000 C 
ATOM     31  C   UNL     1      54.841  -1.251  17.547  0.00  0.00    +0.000 C 
BRANCH  30  32
ATOM     32  O   UNL     1      52.850  -1.407  18.949  0.00  0.00    +0.000 OA
ATOM     33  H   UNL     1      52.481  -1.240  18.062  0.00  0.00    +0.000 HD
ENDBRANCH  30  32
ENDBRANCH  26  27
ENDBRANCH  24  26
ENDBRANCH  23  24
ENDBRANCH   4  23
TORSDOF 8
ENDMDL
MODEL 6
REMARK VINA RESULT:    -6.894      4.103      9.135
REMARK INTER + INTRA:         -11.008
REMARK INTER:                  -9.546
REMARK INTRA:                  -1.462
REMARK UNBOUND:                -1.091
REMARK  Name = 
REMARK  8 active torsions:
REMARK  status: ('A' for Active; 'I' for Inactive)
REMARK    1  A    between atoms: C_2  and  C_20
REMARK    2  A    between atoms: N_3  and  C_4
REMARK    3  A    between atoms: C_4  and  C_5
REMARK    4  A    between atoms: C_8  and  C_9
REMARK    5  A    between atoms: C_9  and  N_10
REMARK    6  A    between atoms: N_10  and  C_11
REMARK    7  A    between atoms: C_11  and  C_12
REMARK    8  A    between atoms: C_15  and  O_16
REMARK                            x       y       z     vdW  Elec       q    Type
REMARK                         _______ _______ _______ _____ _____    ______ ____
ROOT
ATOM      1  C   UNL     1      49.589   4.893  17.094  0.00  0.00    +0.000 A 
ATOM      2  C   UNL     1      48.765   3.766  17.081  0.00  0.00    +0.000 A 
ATOM      3  C   UNL     1      49.315   2.505  17.277  0.00  0.00    +0.000 A 
ATOM      4  C   UNL     1      50.686   2.395  17.492  0.00  0.00    +0.000 A 
ATOM      5  N   UNL     1      51.505   3.479  17.557  0.00  0.00    +0.000 NA
ATOM      6  C   UNL     1      50.938   4.693  17.360  0.00  0.00    +0.000 A 
ENDROOT
BRANCH   1   7
ATOM      7  C   UNL     1      49.025   6.262  16.858  0.00  0.00    +0.000 C 
BRANCH   7  10
ATOM      8  O   UNL     1      49.420   6.763  14.112  0.00  0.00    +0.000 OA
ATOM      9  C   UNL     1      48.302   6.446  14.508  0.00  0.00    +0.000 C 
ATOM     10  N   UNL     1      48.014   6.247  15.834  0.00  0.00    +0.000 N 
ATOM     11  H   UNL     1      47.138   5.800  16.080  0.00  0.00    +0.000 HD
BRANCH   9  12
ATOM     12  C   UNL     1      47.170   6.314  13.585  0.00  0.00    +0.000 A 
ATOM     13  C   UNL     1      46.634   7.435  12.970  0.00  0.00    +0.000 A 
ATOM     14  S   UNL     1      45.316   7.082  11.946  0.00  0.00    +0.000 S 
ATOM     15  C   UNL     1      45.444   5.415  12.258  0.00  0.00    +0.000 A 
ATOM     16  N   UNL     1      44.611   4.520  11.662  0.00  0.00    +0.000 NA
ATOM     17  C   UNL     1      44.855   3.286  11.954  0.00  0.00    +0.000 A 
ATOM     18  N   UNL     1      45.848   2.866  12.800  0.00  0.00    +0.000 N 
ATOM     19  C   UNL     1      46.660   3.735  13.485  0.00  0.00    +0.000 A 
ATOM     20  O   UNL     1      47.434   3.334  14.350  0.00  0.00    +0.000 OA
ATOM     21  C   UNL     1      46.462   5.132  13.151  0.00  0.00    +0.000 A 
ATOM     22  H   UNL     1      45.973   1.881  13.000  0.00  0.00    +0.000 HD
ENDBRANCH   9  12
ENDBRANCH   7  10
ENDBRANCH   1   7
BRANCH   4  23
ATOM     23  C   UNL     1      51.307   1.025  17.708  0.00  0.00    +0.000 C 
BRANCH  23  24
ATOM     24  N   UNL     1      52.617   0.849  17.058  0.00  0.00    +0.000 NA
ATOM     25  H   UNL     1      52.991   1.792  16.938  0.00  0.00    +0.000 HD
BRANCH  24  26
ATOM     26  C   UNL     1      53.533   0.065  17.892  0.00  0.00    +0.000 C 
BRANCH  26  27
ATOM     27  C   UNL     1      54.860   0.811  18.109  0.00  0.00    +0.000 C 
ATOM     28  C   UNL     1      54.938   2.156  17.359  0.00  0.00    +0.000 C 
ATOM     29  C   UNL     1      55.195   3.235  18.410  0.00  0.00    +0.000 C 
ATOM     30  C   UNL     1      54.680   2.635  19.708  0.00  0.00    +0.000 C 
ATOM     31  C   UNL     1      55.069   1.167  19.591  0.00  0.00    +0.000 C 
BRANCH  30  32
ATOM     32  O   UNL     1      53.273   2.801  19.830  0.00  0.00    +0.000 OA
ATOM     33  H   UNL     1      52.826   2.245  19.167  0.00  0.00    +0.000 HD
ENDBRANCH  30  32
ENDBRANCH  26  27
ENDBRANCH  24  26
ENDBRANCH  23  24
ENDBRANCH   4  23
TORSDOF 8
ENDMDL
MODEL 7
REMARK VINA RESULT:    -6.842      4.592      9.269
REMARK INTER + INTRA:         -10.933
REMARK INTER:                  -9.760
REMARK INTRA:                  -1.173
REMARK UNBOUND:                -1.091
REMARK  Name = 
REMARK  8 active torsions:
REMARK  status: ('A' for Active; 'I' for Inactive)
REMARK    1  A    between atoms: C_2  and  C_20
REMARK    2  A    between atoms: N_3  and  C_4
REMARK    3  A    between atoms: C_4  and  C_5
REMARK    4  A    between atoms: C_8  and  C_9
REMARK    5  A    between atoms: C_9  and  N_10
REMARK    6  A    between atoms: N_10  and  C_11
REMARK    7  A    between atoms: C_11  and  C_12
REMARK    8  A    between atoms: C_15  and  O_16
REMARK                            x       y       z     vdW  Elec       q    Type
REMARK                         _______ _______ _______ _____ _____    ______ ____
ROOT
ATOM      1  C   UNL     1      49.613   4.786  17.346  0.00  0.00    +0.000 A 
ATOM      2  C   UNL     1      51.005   4.751  17.434  0.00  0.00    +0.000 A 
ATOM      3  C   UNL     1      51.661   3.528  17.517  0.00  0.00    +0.000 A 
ATOM      4  C   UNL     1      50.909   2.358  17.504  0.00  0.00    +0.000 A 
ATOM      5  N   UNL     1      49.555   2.361  17.371  0.00  0.00    +0.000 NA
ATOM      6  C   UNL     1      48.946   3.568  17.293  0.00  0.00    +0.000 A 
ENDROOT
BRANCH   1   7
ATOM      7  C   UNL     1      48.878   6.092  17.281  0.00  0.00    +0.000 C 
BRANCH   7  10
ATOM      8  O   UNL     1      49.556   6.667  14.606  0.00  0.00    +0.000 OA
ATOM      9  C   UNL     1      48.397   6.367  14.879  0.00  0.00    +0.000 C 
ATOM     10  N   UNL     1      47.974   6.135  16.163  0.00  0.00    +0.000 N 
ATOM     11  H   UNL     1      47.069   5.703  16.306  0.00  0.00    +0.000 HD
BRANCH   9  12
ATOM     12  C   UNL     1      47.360   6.292  13.845  0.00  0.00    +0.000 A 
ATOM     13  C   UNL     1      46.944   7.440  13.187  0.00  0.00    +0.000 A 
ATOM     14  S   UNL     1      45.721   7.154  12.032  0.00  0.00    +0.000 S 
ATOM     15  C   UNL     1      45.737   5.481  12.343  0.00  0.00    +0.000 A 
ATOM     16  N   UNL     1      44.927   4.630  11.658  0.00  0.00    +0.000 NA
ATOM     17  C   UNL     1      45.080   3.385  11.964  0.00  0.00    +0.000 A 
ATOM     18  N   UNL     1      45.961   2.915  12.903  0.00  0.00    +0.000 N 
ATOM     19  C   UNL     1      46.740   3.741  13.674  0.00  0.00    +0.000 A 
ATOM     20  O   UNL     1      47.402   3.301  14.609  0.00  0.00    +0.000 OA
ATOM     21  C   UNL     1      46.644   5.148  13.333  0.00  0.00    +0.000 A 
ATOM     22  H   UNL     1      46.018   1.924  13.108  0.00  0.00    +0.000 HD
ENDBRANCH   9  12
ENDBRANCH   7  10
ENDBRANCH   1   7
BRANCH   4  23
ATOM     23  C   UNL     1      51.607   1.012  17.595  0.00  0.00    +0.000 C 
BRANCH  23  24
ATOM     24  N   UNL     1      52.965   1.076  18.161  0.00  0.00    +0.000 NA
ATOM     25  H   UNL     1      52.963   0.427  18.950  0.00  0.00    +0.000 HD
BRANCH  24  26
ATOM     26  C   UNL     1      53.977   0.655  17.188  0.00  0.00    +0.000 C 
BRANCH  26  27
ATOM     27  C   UNL     1      55.091  -0.161  17.866  0.00  0.00    +0.000 C 
ATOM     28  C   UNL     1      55.197   0.087  19.384  0.00  0.00    +0.000 C 
ATOM     29  C   UNL     1      55.022  -1.268  20.066  0.00  0.00    +0.000 C 
ATOM     30  C   UNL     1      54.257  -2.110  19.058  0.00  0.00    +0.000 C 
ATOM     31  C   UNL     1      54.846  -1.673  17.723  0.00  0.00    +0.000 C 
BRANCH  30  32
ATOM     32  O   UNL     1      52.860  -1.854  19.129  0.00  0.00    +0.000 OA
ATOM     33  H   UNL     1      52.394  -2.444  18.509  0.00  0.00    +0.000 HD
ENDBRANCH  30  32
ENDBRANCH  26  27
ENDBRANCH  24  26
ENDBRANCH  23  24
ENDBRANCH   4  23
TORSDOF 8
ENDMDL
MODEL 8
REMARK VINA RESULT:    -6.285      4.069      9.603
REMARK INTER + INTRA:         -10.132
REMARK INTER:                  -8.759
REMARK INTRA:                  -1.373
REMARK UNBOUND:                -1.091
REMARK  Name = 
REMARK  8 active torsions:
REMARK  status: ('A' for Active; 'I' for Inactive)
REMARK    1  A    between atoms: C_2  and  C_20
REMARK    2  A    between atoms: N_3  and  C_4
REMARK    3  A    between atoms: C_4  and  C_5
REMARK    4  A    between atoms: C_8  and  C_9
REMARK    5  A    between atoms: C_9  and  N_10
REMARK    6  A    between atoms: N_10  and  C_11
REMARK    7  A    between atoms: C_11  and  C_12
REMARK    8  A    between atoms: C_15  and  O_16
REMARK                            x       y       z     vdW  Elec       q    Type
REMARK                         _______ _______ _______ _____ _____    ______ ____
ROOT
ATOM      1  C   UNL     1      47.817   4.266  17.750  0.00  0.00    +0.000 A 
ATOM      2  C   UNL     1      49.085   3.940  18.233  0.00  0.00    +0.000 A 
ATOM      3  C   UNL     1      49.599   4.616  19.333  0.00  0.00    +0.000 A 
ATOM      4  C   UNL     1      48.829   5.605  19.936  0.00  0.00    +0.000 A 
ATOM      5  N   UNL     1      47.572   5.911  19.516  0.00  0.00    +0.000 NA
ATOM      6  C   UNL     1      47.100   5.235  18.441  0.00  0.00    +0.000 A 
ENDROOT
BRANCH   1   7
ATOM      7  C   UNL     1      47.249   3.571  16.548  0.00  0.00    +0.000 C 
BRANCH   7  10
ATOM      8  O   UNL     1      47.395   3.327  13.744  0.00  0.00    +0.000 OA
ATOM      9  C   UNL     1      46.806   4.288  14.231  0.00  0.00    +0.000 C 
ATOM     10  N   UNL     1      46.744   4.512  15.583  0.00  0.00    +0.000 N 
ATOM     11  H   UNL     1      46.087   5.198  15.933  0.00  0.00    +0.000 HD
BRANCH   9  12
ATOM     12  C   UNL     1      46.169   5.306  13.389  0.00  0.00    +0.000 A 
ATOM     13  C   UNL     1      46.850   6.470  13.065  0.00  0.00    +0.000 A 
ATOM     14  S   UNL     1      45.941   7.538  12.093  0.00  0.00    +0.000 S 
ATOM     15  C   UNL     1      44.625   6.461  12.038  0.00  0.00    +0.000 A 
ATOM     16  N   UNL     1      43.500   6.759  11.333  0.00  0.00    +0.000 NA
ATOM     17  C   UNL     1      42.604   5.830  11.340  0.00  0.00    +0.000 A 
ATOM     18  N   UNL     1      42.724   4.635  12.002  0.00  0.00    +0.000 N 
ATOM     19  C   UNL     1      43.803   4.325  12.790  0.00  0.00    +0.000 A 
ATOM     20  O   UNL     1      43.811   3.317  13.491  0.00  0.00    +0.000 OA
ATOM     21  C   UNL     1      44.864   5.314  12.773  0.00  0.00    +0.000 A 
ATOM     22  H   UNL     1      41.972   3.956  11.982  0.00  0.00    +0.000 HD
ENDBRANCH   9  12
ENDBRANCH   7  10
ENDBRANCH   1   7
BRANCH   4  23
ATOM     23  C   UNL     1      49.375   6.356  21.139  0.00  0.00    +0.000 C 
BRANCH  23  24
ATOM     24  N   UNL     1      49.468   7.813  20.947  0.00  0.00    +0.000 NA
ATOM     25  H   UNL     1      49.896   8.174  21.801  0.00  0.00    +0.000 HD
BRANCH  24  26
ATOM     26  C   UNL     1      50.313   8.154  19.798  0.00  0.00    +0.000 C 
BRANCH  26  27
ATOM     27  C   UNL     1      50.010   9.575  19.291  0.00  0.00    +0.000 C 
ATOM     28  C   UNL     1      49.663   9.629  17.790  0.00  0.00    +0.000 C 
ATOM     29  C   UNL     1      48.277  10.261  17.679  0.00  0.00    +0.000 C 
ATOM     30  C   UNL     1      47.631  10.009  19.031  0.00  0.00    +0.000 C 
ATOM     31  C   UNL     1      48.789  10.179  20.006  0.00  0.00    +0.000 C 
BRANCH  30  32
ATOM     32  O   UNL     1      47.070   8.704  19.099  0.00  0.00    +0.000 OA
ATOM     33  H   UNL     1      47.111   8.384  20.018  0.00  0.00    +0.000 HD
ENDBRANCH  30  32
ENDBRANCH  26  27
ENDBRANCH  24  26
ENDBRANCH  23  24
ENDBRANCH   4  23
TORSDOF 8
ENDMDL
MODEL 9
REMARK VINA RESULT:    -6.265      3.959      8.943
REMARK INTER + INTRA:         -10.104
REMARK INTER:                  -9.069
REMARK INTRA:                  -1.035
REMARK UNBOUND:                -1.091
REMARK  Name = 
REMARK  8 active torsions:
REMARK  status: ('A' for Active; 'I' for Inactive)
REMARK    1  A    between atoms: C_2  and  C_20
REMARK    2  A    between atoms: N_3  and  C_4
REMARK    3  A    between atoms: C_4  and  C_5
REMARK    4  A    between atoms: C_8  and  C_9
REMARK    5  A    between atoms: C_9  and  N_10
REMARK    6  A    between atoms: N_10  and  C_11
REMARK    7  A    between atoms: C_11  and  C_12
REMARK    8  A    between atoms: C_15  and  O_16
REMARK                            x       y       z     vdW  Elec       q    Type
REMARK                         _______ _______ _______ _____ _____    ______ ____
ROOT
ATOM      1  C   UNL     1      48.546   3.635  17.301  0.00  0.00    +0.000 A 
ATOM      2  C   UNL     1      49.516   2.659  17.068  0.00  0.00    +0.000 A 
ATOM      3  C   UNL     1      50.820   2.864  17.502  0.00  0.00    +0.000 A 
ATOM      4  C   UNL     1      51.130   4.044  18.171  0.00  0.00    +0.000 A 
ATOM      5  N   UNL     1      50.195   4.992  18.452  0.00  0.00    +0.000 NA
ATOM      6  C   UNL     1      48.934   4.763  18.015  0.00  0.00    +0.000 A 
ENDROOT
BRANCH   1   7
ATOM      7  C   UNL     1      47.138   3.452  16.820  0.00  0.00    +0.000 C 
BRANCH   7  10
ATOM      8  O   UNL     1      47.247   3.117  14.023  0.00  0.00    +0.000 OA
ATOM      9  C   UNL     1      46.813   4.169  14.483  0.00  0.00    +0.000 C 
ATOM     10  N   UNL     1      46.786   4.434  15.828  0.00  0.00    +0.000 N 
ATOM     11  H   UNL     1      46.242   5.223  16.158  0.00  0.00    +0.000 HD
BRANCH   9  12
ATOM     12  C   UNL     1      46.342   5.251  13.613  0.00  0.00    +0.000 A 
ATOM     13  C   UNL     1      47.155   6.347  13.357  0.00  0.00    +0.000 A 
ATOM     14  S   UNL     1      46.428   7.506  12.338  0.00  0.00    +0.000 S 
ATOM     15  C   UNL     1      45.022   6.563  12.170  0.00  0.00    +0.000 A 
ATOM     16  N   UNL     1      43.987   6.975  11.388  0.00  0.00    +0.000 NA
ATOM     17  C   UNL     1      43.007   6.137  11.315  0.00  0.00    +0.000 A 
ATOM     18  N   UNL     1      42.962   4.930  11.965  0.00  0.00    +0.000 N 
ATOM     19  C   UNL     1      43.944   4.510  12.826  0.00  0.00    +0.000 A 
ATOM     20  O   UNL     1      43.802   3.500  13.509  0.00  0.00    +0.000 OA
ATOM     21  C   UNL     1      45.094   5.392  12.902  0.00  0.00    +0.000 A 
ATOM     22  H   UNL     1      42.151   4.328  11.879  0.00  0.00    +0.000 HD
ENDBRANCH   9  12
ENDBRANCH   7  10
ENDBRANCH   1   7
BRANCH   4  23
ATOM     23  C   UNL     1      52.550   4.287  18.652  0.00  0.00    +0.000 C 
BRANCH  23  24
ATOM     24  N   UNL     1      53.287   5.294  17.869  0.00  0.00    +0.000 NA
ATOM     25  H   UNL     1      53.651   5.959  18.554  0.00  0.00    +0.000 HD
BRANCH  24  26
ATOM     26  C   UNL     1      54.402   4.695  17.131  0.00  0.00    +0.000 C 
BRANCH  26  27
ATOM     27  C   UNL     1      55.296   5.778  16.502  0.00  0.00    +0.000 C 
ATOM     28  C   UNL     1      55.449   5.637  14.974  0.00  0.00    +0.000 C 
ATOM     29  C   UNL     1      54.963   6.947  14.359  0.00  0.00    +0.000 C 
ATOM     30  C   UNL     1      54.030   7.539  15.402  0.00  0.00    +0.000 C 
ATOM     31  C   UNL     1      54.710   7.184  16.718  0.00  0.00    +0.000 C 
BRANCH  30  32
ATOM     32  O   UNL     1      52.729   6.973  15.309  0.00  0.00    +0.000 OA
ATOM     33  H   UNL     1      52.434   6.997  14.381  0.00  0.00    +0.000 HD
ENDBRANCH  30  32
ENDBRANCH  26  27
ENDBRANCH  24  26
ENDBRANCH  23  24
ENDBRANCH   4  23
TORSDOF 8
ENDMDL
