MODEL 1
REMARK VINA RESULT:    -7.932      0.000      0.000
REMARK INTER + INTRA:         -13.292
REMARK INTER:                 -11.641
REMARK INTRA:                  -1.651
REMARK UNBOUND:                -1.651
REMARK  Name = 
REMARK  10 active torsions:
REMARK  status: ('A' for Active; 'I' for Inactive)
REMARK    1  A    between atoms: C_1  and  O_2
REMARK    2  A    between atoms: O_2  and  C_3
REMARK    3  A    between atoms: C_10  and  C_11
REMARK    4  A    between atoms: N_13  and  C_14
REMARK    5  A    between atoms: C_14  and  C_15
REMARK    6  A    between atoms: C_18  and  C_19
REMARK    7  A    between atoms: C_19  and  N_20
REMARK    8  A    between atoms: N_20  and  C_21
REMARK    9  A    between atoms: N_20  and  C_22
REMARK   10  A    between atoms: C_22  and  C_23
REMARK                            x       y       z     vdW  Elec       q    Type
REMARK                         _______ _______ _______ _____ _____    ______ ____
ROOT
ATOM      1  C   UNL     1      46.649   7.661  12.767  0.00  0.00    +0.000 A 
ATOM      2  C   UNL     1      45.274   7.913  12.658  0.00  0.00    +0.000 A 
ATOM      3  C   UNL     1      44.478   7.159  11.791  0.00  0.00    +0.000 A 
ATOM      4  C   UNL     1      45.043   6.157  10.992  0.00  0.00    +0.000 A 
ATOM      5  C   UNL     1      46.420   5.910  11.094  0.00  0.00    +0.000 A 
ATOM      6  C   UNL     1      47.212   6.648  11.979  0.00  0.00    +0.000 A 
ENDROOT
BRANCH   1   7
ATOM      7  C   UNL     1      47.481   8.423  13.767  0.00  0.00    +0.000 C 
BRANCH   7  10
ATOM      8  C   UNL     1      49.098   7.107  15.062  0.00  0.00    +0.000 C 
ATOM      9  O   UNL     1      49.985   7.356  14.246  0.00  0.00    +0.000 OA
ATOM     10  N   UNL     1      47.828   7.592  14.891  0.00  0.00    +0.000 N 
ATOM     11  H   UNL     1      47.105   7.376  15.565  0.00  0.00    +0.000 HD
BRANCH   8  19
ATOM     12  C   UNL     1      47.577   4.321  16.441  0.00  0.00    +0.000 A 
ATOM     13  N   UNL     1      47.195   3.272  17.198  0.00  0.00    +0.000 NA
ATOM     14  C   UNL     1      47.907   2.975  18.288  0.00  0.00    +0.000 A 
ATOM     15  N   UNL     1      48.979   3.619  18.731  0.00  0.00    +0.000 NA
ATOM     16  C   UNL     1      49.325   4.667  17.962  0.00  0.00    +0.000 A 
ATOM     17  S   UNL     1      50.668   5.603  18.393  0.00  0.00    +0.000 S 
ATOM     18  C   UNL     1      50.448   6.623  17.055  0.00  0.00    +0.000 A 
ATOM     19  C   UNL     1      49.367   6.277  16.250  0.00  0.00    +0.000 A 
ATOM     20  C   UNL     1      48.691   5.103  16.798  0.00  0.00    +0.000 A 
BRANCH  12  22
ATOM     21  C   UNL     1      47.171   3.717  14.217  0.00  0.00    +0.000 C 
ATOM     22  O   UNL     1      46.850   4.593  15.298  0.00  0.00    +0.000 OA
ENDBRANCH  12  22
ENDBRANCH   8  19
ENDBRANCH   7  10
ENDBRANCH   1   7
BRANCH   4  23
ATOM     23  C   UNL     1      44.180   5.336  10.051  0.00  0.00    +0.000 C 
BRANCH  23  24
ATOM     24  N   UNL     1      44.591   3.921   9.937  0.00  0.00    +0.000 NA
ATOM     25  C   UNL     1      43.822   3.071  10.858  0.00  0.00    +0.000 C 
BRANCH  24  26
ATOM     26  C   UNL     1      44.376   3.430   8.559  0.00  0.00    +0.000 C 
BRANCH  26  27
ATOM     27  C   UNL     1      45.606   2.850   7.900  0.00  0.00    +0.000 A 
ATOM     28  C   UNL     1      46.478   3.659   7.157  0.00  0.00    +0.000 A 
ATOM     29  C   UNL     1      47.658   3.128   6.629  0.00  0.00    +0.000 A 
ATOM     30  C   UNL     1      47.974   1.783   6.828  0.00  0.00    +0.000 A 
ATOM     31  C   UNL     1      47.096   0.962   7.534  0.00  0.00    +0.000 A 
ATOM     32  C   UNL     1      45.925   1.498   8.062  0.00  0.00    +0.000 A 
ATOM     33  F   UNL     1      45.097   0.689   8.738  0.00  0.00    +0.000 F 
ENDBRANCH  26  27
ENDBRANCH  24  26
ENDBRANCH  23  24
ENDBRANCH   4  23
TORSDOF 8
ENDMDL
MODEL 2
REMARK VINA RESULT:    -7.810      1.642      2.122
REMARK INTER + INTRA:         -13.113
REMARK INTER:                 -11.534
REMARK INTRA:                  -1.579
REMARK UNBOUND:                -1.651
REMARK  Name = 
REMARK  10 active torsions:
REMARK  status: ('A' for Active; 'I' for Inactive)
REMARK    1  A    between atoms: C_1  and  O_2
REMARK    2  A    between atoms: O_2  and  C_3
REMARK    3  A    between atoms: C_10  and  C_11
REMARK    4  A    between atoms: N_13  and  C_14
REMARK    5  A    between atoms: C_14  and  C_15
REMARK    6  A    between atoms: C_18  and  C_19
REMARK    7  A    between atoms: C_19  and  N_20
REMARK    8  A    between atoms: N_20  and  C_21
REMARK    9  A    between atoms: N_20  and  C_22
REMARK   10  A    between atoms: C_22  and  C_23
REMARK                            x       y       z     vdW  Elec       q    Type
REMARK                         _______ _______ _______ _____ _____    ______ ____
ROOT
ATOM      1  C   UNL     1      47.922   6.495  12.995  0.00  0.00    +0.000 A 
ATOM      2  C   UNL     1      47.486   6.916  11.732  0.00  0.00    +0.000 A 
ATOM      3  C   UNL     1      46.329   6.380  11.162  0.00  0.00    +0.000 A 
ATOM      4  C   UNL     1      45.597   5.388  11.829  0.00  0.00    +0.000 A 
ATOM      5  C   UNL     1      46.038   4.960  13.090  0.00  0.00    +0.000 A 
ATOM      6  C   UNL     1      47.183   5.514  13.671  0.00  0.00    +0.000 A 
ENDROOT
BRANCH   1   7
ATOM      7  C   UNL     1      49.124   7.143  13.636  0.00  0.00    +0.000 C 
BRANCH   7  10
ATOM      8  C   UNL     1      50.182   7.227  15.850  0.00  0.00    +0.000 C 
ATOM      9  O   UNL     1      51.266   7.513  15.342  0.00  0.00    +0.000 OA
ATOM     10  N   UNL     1      49.074   7.019  15.070  0.00  0.00    +0.000 N 
ATOM     11  H   UNL     1      48.188   6.779  15.498  0.00  0.00    +0.000 HD
BRANCH   8  19
ATOM     12  C   UNL     1      49.014   4.719  17.929  0.00  0.00    +0.000 A 
ATOM     13  N   UNL     1      48.611   3.948  18.960  0.00  0.00    +0.000 NA
ATOM     14  C   UNL     1      48.729   4.426  20.202  0.00  0.00    +0.000 A 
ATOM     15  N   UNL     1      49.207   5.614  20.549  0.00  0.00    +0.000 NA
ATOM     16  C   UNL     1      49.586   6.362  19.498  0.00  0.00    +0.000 A 
ATOM     17  S   UNL     1      50.211   7.913  19.767  0.00  0.00    +0.000 S 
ATOM     18  C   UNL     1      50.420   8.170  18.103  0.00  0.00    +0.000 A 
ATOM     19  C   UNL     1      50.035   7.094  17.309  0.00  0.00    +0.000 A 
ATOM     20  C   UNL     1      49.531   6.009  18.149  0.00  0.00    +0.000 A 
BRANCH  12  22
ATOM     21  C   UNL     1      47.822   3.293  16.507  0.00  0.00    +0.000 C 
ATOM     22  O   UNL     1      48.918   4.196  16.654  0.00  0.00    +0.000 OA
ENDBRANCH  12  22
ENDBRANCH   8  19
ENDBRANCH   7  10
ENDBRANCH   1   7
BRANCH   4  23
ATOM     23  C   UNL     1      44.339   4.805  11.212  0.00  0.00    +0.000 C 
BRANCH  23  24
ATOM     24  N   UNL     1      44.413   3.352  10.955  0.00  0.00    +0.000 NA
ATOM     25  C   UNL     1      43.451   2.617  11.790  0.00  0.00    +0.000 C 
BRANCH  24  26
ATOM     26  C   UNL     1      44.116   3.063   9.535  0.00  0.00    +0.000 C 
BRANCH  26  27
ATOM     27  C   UNL     1      45.322   2.694   8.704  0.00  0.00    +0.000 A 
ATOM     28  C   UNL     1      45.696   1.354   8.527  0.00  0.00    +0.000 A 
ATOM     29  C   UNL     1      46.760   1.023   7.683  0.00  0.00    +0.000 A 
ATOM     30  C   UNL     1      47.466   2.025   7.016  0.00  0.00    +0.000 A 
ATOM     31  C   UNL     1      47.126   3.361   7.213  0.00  0.00    +0.000 A 
ATOM     32  C   UNL     1      46.062   3.685   8.051  0.00  0.00    +0.000 A 
ATOM     33  F   UNL     1      45.752   4.978   8.224  0.00  0.00    +0.000 F 
ENDBRANCH  26  27
ENDBRANCH  24  26
ENDBRANCH  23  24
ENDBRANCH   4  23
TORSDOF 8
ENDMDL
MODEL 3
REMARK VINA RESULT:    -7.532      2.573      3.388
REMARK INTER + INTRA:         -12.705
REMARK INTER:                 -11.476
REMARK INTRA:                  -1.229
REMARK UNBOUND:                -1.651
REMARK  Name = 
REMARK  10 active torsions:
REMARK  status: ('A' for Active; 'I' for Inactive)
REMARK    1  A    between atoms: C_1  and  O_2
REMARK    2  A    between atoms: O_2  and  C_3
REMARK    3  A    between atoms: C_10  and  C_11
REMARK    4  A    between atoms: N_13  and  C_14
REMARK    5  A    between atoms: C_14  and  C_15
REMARK    6  A    between atoms: C_18  and  C_19
REMARK    7  A    between atoms: C_19  and  N_20
REMARK    8  A    between atoms: N_20  and  C_21
REMARK    9  A    between atoms: N_20  and  C_22
REMARK   10  A    between atoms: C_22  and  C_23
REMARK                            x       y       z     vdW  Elec       q    Type
REMARK                         _______ _______ _______ _____ _____    ______ ____
ROOT
ATOM      1  C   UNL     1      47.463   6.595  13.180  0.00  0.00    +0.000 A 
ATOM      2  C   UNL     1      46.901   5.365  13.548  0.00  0.00    +0.000 A 
ATOM      3  C   UNL     1      45.922   4.762  12.754  0.00  0.00    +0.000 A 
ATOM      4  C   UNL     1      45.462   5.390  11.589  0.00  0.00    +0.000 A 
ATOM      5  C   UNL     1      46.017   6.624  11.224  0.00  0.00    +0.000 A 
ATOM      6  C   UNL     1      47.014   7.216  12.006  0.00  0.00    +0.000 A 
ENDROOT
BRANCH   1   7
ATOM      7  C   UNL     1      48.579   7.193  13.999  0.00  0.00    +0.000 C 
BRANCH   7  10
ATOM      8  C   UNL     1      48.985   6.548  16.333  0.00  0.00    +0.000 C 
ATOM      9  O   UNL     1      49.971   5.891  16.001  0.00  0.00    +0.000 OA
ATOM     10  N   UNL     1      48.237   7.215  15.399  0.00  0.00    +0.000 N 
ATOM     11  H   UNL     1      47.425   7.749  15.682  0.00  0.00    +0.000 HD
BRANCH   8  19
ATOM     12  C   UNL     1      47.893   9.137  18.353  0.00  0.00    +0.000 A 
ATOM     13  N   UNL     1      47.468   9.930  19.358  0.00  0.00    +0.000 NA
ATOM     14  C   UNL     1      47.244   9.382  20.556  0.00  0.00    +0.000 A 
ATOM     15  N   UNL     1      47.404   8.106  20.884  0.00  0.00    +0.000 NA
ATOM     16  C   UNL     1      47.840   7.346  19.864  0.00  0.00    +0.000 A 
ATOM     17  S   UNL     1      48.105   5.693  20.116  0.00  0.00    +0.000 S 
ATOM     18  C   UNL     1      48.601   5.477  18.508  0.00  0.00    +0.000 A 
ATOM     19  C   UNL     1      48.571   6.639  17.744  0.00  0.00    +0.000 A 
ATOM     20  C   UNL     1      48.116   7.763  18.560  0.00  0.00    +0.000 A 
BRANCH  12  22
ATOM     21  C   UNL     1      48.438  11.094  17.191  0.00  0.00    +0.000 C 
ATOM     22  O   UNL     1      48.085   9.712  17.112  0.00  0.00    +0.000 OA
ENDBRANCH  12  22
ENDBRANCH   8  19
ENDBRANCH   7  10
ENDBRANCH   1   7
BRANCH   4  23
ATOM     23  C   UNL     1      44.399   4.736  10.724  0.00  0.00    +0.000 C 
BRANCH  23  24
ATOM     24  N   UNL     1      44.537   3.269  10.608  0.00  0.00    +0.000 NA
ATOM     25  C   UNL     1      43.607   2.577  11.512  0.00  0.00    +0.000 C 
BRANCH  24  26
ATOM     26  C   UNL     1      44.255   2.832   9.223  0.00  0.00    +0.000 C 
BRANCH  26  27
ATOM     27  C   UNL     1      45.480   2.457   8.422  0.00  0.00    +0.000 A 
ATOM     28  C   UNL     1      45.849   1.114   8.253  0.00  0.00    +0.000 A 
ATOM     29  C   UNL     1      46.932   0.777   7.436  0.00  0.00    +0.000 A 
ATOM     30  C   UNL     1      47.662   1.775   6.788  0.00  0.00    +0.000 A 
ATOM     31  C   UNL     1      47.325   3.113   6.979  0.00  0.00    +0.000 A 
ATOM     32  C   UNL     1      46.242   3.443   7.790  0.00  0.00    +0.000 A 
ATOM     33  F   UNL     1      45.937   4.738   7.957  0.00  0.00    +0.000 F 
ENDBRANCH  26  27
ENDBRANCH  24  26
ENDBRANCH  23  24
ENDBRANCH   4  23
TORSDOF 8
ENDMDL
MODEL 4
REMARK VINA RESULT:    -7.229      1.683      2.159
REMARK INTER + INTRA:         -12.260
REMARK INTER:                 -11.055
REMARK INTRA:                  -1.205
REMARK UNBOUND:                -1.651
REMARK  Name = 
REMARK  10 active torsions:
REMARK  status: ('A' for Active; 'I' for Inactive)
REMARK    1  A    between atoms: C_1  and  O_2
REMARK    2  A    between atoms: O_2  and  C_3
REMARK    3  A    between atoms: C_10  and  C_11
REMARK    4  A    between atoms: N_13  and  C_14
REMARK    5  A    between atoms: C_14  and  C_15
REMARK    6  A    between atoms: C_18  and  C_19
REMARK    7  A    between atoms: C_19  and  N_20
REMARK    8  A    between atoms: N_20  and  C_21
REMARK    9  A    between atoms: N_20  and  C_22
REMARK   10  A    between atoms: C_22  and  C_23
REMARK                            x       y       z     vdW  Elec       q    Type
REMARK                         _______ _______ _______ _____ _____    ______ ____
ROOT
ATOM      1  C   UNL     1      47.808   7.777  14.025  0.00  0.00    +0.000 A 
ATOM      2  C   UNL     1      47.970   6.496  13.478  0.00  0.00    +0.000 A 
ATOM      3  C   UNL     1      47.102   6.029  12.488  0.00  0.00    +0.000 A 
ATOM      4  C   UNL     1      46.034   6.819  12.044  0.00  0.00    +0.000 A 
ATOM      5  C   UNL     1      45.866   8.097  12.596  0.00  0.00    +0.000 A 
ATOM      6  C   UNL     1      46.749   8.574  13.570  0.00  0.00    +0.000 A 
ENDROOT
BRANCH   1   7
ATOM      7  C   UNL     1      48.801   8.302  15.031  0.00  0.00    +0.000 C 
BRANCH   7  10
ATOM      8  C   UNL     1      49.754   6.948  16.844  0.00  0.00    +0.000 C 
ATOM      9  O   UNL     1      49.117   7.586  17.681  0.00  0.00    +0.000 OA
ATOM     10  N   UNL     1      49.658   7.247  15.510  0.00  0.00    +0.000 N 
ATOM     11  H   UNL     1      50.190   6.720  14.830  0.00  0.00    +0.000 HD
BRANCH   8  19
ATOM     12  C   UNL     1      49.498   3.498  16.730  0.00  0.00    +0.000 A 
ATOM     13  N   UNL     1      49.671   2.164  16.826  0.00  0.00    +0.000 NA
ATOM     14  C   UNL     1      50.814   1.701  17.339  0.00  0.00    +0.000 A 
ATOM     15  N   UNL     1      51.831   2.427  17.786  0.00  0.00    +0.000 NA
ATOM     16  C   UNL     1      51.621   3.752  17.689  0.00  0.00    +0.000 A 
ATOM     17  S   UNL     1      52.819   4.822  18.224  0.00  0.00    +0.000 S 
ATOM     18  C   UNL     1      51.874   6.167  17.803  0.00  0.00    +0.000 A 
ATOM     19  C   UNL     1      50.643   5.843  17.242  0.00  0.00    +0.000 A 
ATOM     20  C   UNL     1      50.490   4.390  17.176  0.00  0.00    +0.000 A 
BRANCH  12  22
ATOM     21  C   UNL     1      47.295   4.180  17.129  0.00  0.00    +0.000 C 
ATOM     22  O   UNL     1      48.325   3.960  16.164  0.00  0.00    +0.000 OA
ENDBRANCH  12  22
ENDBRANCH   8  19
ENDBRANCH   7  10
ENDBRANCH   1   7
BRANCH   4  23
ATOM     23  C   UNL     1      45.091   6.314  10.967  0.00  0.00    +0.000 C 
BRANCH  23  24
ATOM     24  N   UNL     1      44.869   4.853  10.999  0.00  0.00    +0.000 NA
ATOM     25  C   UNL     1      43.989   4.475  12.114  0.00  0.00    +0.000 C 
BRANCH  24  26
ATOM     26  C   UNL     1      44.247   4.397   9.737  0.00  0.00    +0.000 C 
BRANCH  26  27
ATOM     27  C   UNL     1      45.158   3.588   8.844  0.00  0.00    +0.000 A 
ATOM     28  C   UNL     1      46.034   4.215   7.946  0.00  0.00    +0.000 A 
ATOM     29  C   UNL     1      46.933   3.457   7.191  0.00  0.00    +0.000 A 
ATOM     30  C   UNL     1      46.962   2.067   7.317  0.00  0.00    +0.000 A 
ATOM     31  C   UNL     1      46.070   1.432   8.179  0.00  0.00    +0.000 A 
ATOM     32  C   UNL     1      45.180   2.192   8.933  0.00  0.00    +0.000 A 
ATOM     33  F   UNL     1      44.334   1.559   9.757  0.00  0.00    +0.000 F 
ENDBRANCH  26  27
ENDBRANCH  24  26
ENDBRANCH  23  24
ENDBRANCH   4  23
TORSDOF 8
ENDMDL
MODEL 5
REMARK VINA RESULT:    -6.917      3.070      5.507
REMARK INTER + INTRA:         -11.803
REMARK INTER:                 -10.061
REMARK INTRA:                  -1.742
REMARK UNBOUND:                -1.651
REMARK  Name = 
REMARK  10 active torsions:
REMARK  status: ('A' for Active; 'I' for Inactive)
REMARK    1  A    between atoms: C_1  and  O_2
REMARK    2  A    between atoms: O_2  and  C_3
REMARK    3  A    between atoms: C_10  and  C_11
REMARK    4  A    between atoms: N_13  and  C_14
REMARK    5  A    between atoms: C_14  and  C_15
REMARK    6  A    between atoms: C_18  and  C_19
REMARK    7  A    between atoms: C_19  and  N_20
REMARK    8  A    between atoms: N_20  and  C_21
REMARK    9  A    between atoms: N_20  and  C_22
REMARK   10  A    between atoms: C_22  and  C_23
REMARK                            x       y       z     vdW  Elec       q    Type
REMARK                         _______ _______ _______ _____ _____    ______ ____
ROOT
ATOM      1  C   UNL     1      47.842   4.315  16.203  0.00  0.00    +0.000 A 
ATOM      2  C   UNL     1      48.388   5.605  16.172  0.00  0.00    +0.000 A 
ATOM      3  C   UNL     1      48.214   6.427  15.056  0.00  0.00    +0.000 A 
ATOM      4  C   UNL     1      47.516   5.966  13.932  0.00  0.00    +0.000 A 
ATOM      5  C   UNL     1      46.976   4.672  13.957  0.00  0.00    +0.000 A 
ATOM      6  C   UNL     1      47.130   3.858  15.085  0.00  0.00    +0.000 A 
ENDROOT
BRANCH   1   7
ATOM      7  C   UNL     1      47.963   3.470  17.446  0.00  0.00    +0.000 C 
BRANCH   7  10
ATOM      8  C   UNL     1      50.106   2.322  17.100  0.00  0.00    +0.000 C 
ATOM      9  O   UNL     1      49.623   1.654  16.185  0.00  0.00    +0.000 OA
ATOM     10  N   UNL     1      49.345   3.237  17.779  0.00  0.00    +0.000 N 
ATOM     11  H   UNL     1      49.751   3.777  18.533  0.00  0.00    +0.000 HD
BRANCH   8  19
ATOM     12  C   UNL     1      52.677   4.535  17.783  0.00  0.00    +0.000 A 
ATOM     13  N   UNL     1      53.844   5.141  18.082  0.00  0.00    +0.000 NA
ATOM     14  C   UNL     1      54.899   4.382  18.392  0.00  0.00    +0.000 A 
ATOM     15  N   UNL     1      54.935   3.056  18.433  0.00  0.00    +0.000 NA
ATOM     16  C   UNL     1      53.760   2.484  18.116  0.00  0.00    +0.000 A 
ATOM     17  S   UNL     1      53.636   0.795  18.112  0.00  0.00    +0.000 S 
ATOM     18  C   UNL     1      52.005   0.867  17.651  0.00  0.00    +0.000 A 
ATOM     19  C   UNL     1      51.514   2.160  17.499  0.00  0.00    +0.000 A 
ATOM     20  C   UNL     1      52.571   3.132  17.776  0.00  0.00    +0.000 A 
BRANCH  12  22
ATOM     21  C   UNL     1      51.896   6.392  16.592  0.00  0.00    +0.000 C 
ATOM     22  O   UNL     1      51.586   5.334  17.500  0.00  0.00    +0.000 OA
ENDBRANCH  12  22
ENDBRANCH   8  19
ENDBRANCH   7  10
ENDBRANCH   1   7
BRANCH   4  23
ATOM     23  C   UNL     1      47.325   6.857  12.719  0.00  0.00    +0.000 C 
BRANCH  23  24
ATOM     24  N   UNL     1      46.101   7.684  12.766  0.00  0.00    +0.000 NA
ATOM     25  C   UNL     1      46.425   9.116  12.686  0.00  0.00    +0.000 C 
BRANCH  24  26
ATOM     26  C   UNL     1      45.204   7.345  11.639  0.00  0.00    +0.000 C 
BRANCH  26  27
ATOM     27  C   UNL     1      44.627   5.950  11.694  0.00  0.00    +0.000 A 
ATOM     28  C   UNL     1      43.777   5.559  12.740  0.00  0.00    +0.000 A 
ATOM     29  C   UNL     1      43.180   4.296  12.731  0.00  0.00    +0.000 A 
ATOM     30  C   UNL     1      43.432   3.406  11.685  0.00  0.00    +0.000 A 
ATOM     31  C   UNL     1      44.304   3.771  10.660  0.00  0.00    +0.000 A 
ATOM     32  C   UNL     1      44.892   5.033  10.672  0.00  0.00    +0.000 A 
ATOM     33  F   UNL     1      45.725   5.362   9.675  0.00  0.00    +0.000 F 
ENDBRANCH  26  27
ENDBRANCH  24  26
ENDBRANCH  23  24
ENDBRANCH   4  23
TORSDOF 8
ENDMDL
MODEL 6
REMARK VINA RESULT:    -6.866      1.974      2.521
REMARK INTER + INTRA:         -11.729
REMARK INTER:                  -9.883
REMARK INTRA:                  -1.846
REMARK UNBOUND:                -1.651
REMARK  Name = 
REMARK  10 active torsions:
REMARK  status: ('A' for Active; 'I' for Inactive)
REMARK    1  A    between atoms: C_1  and  O_2
REMARK    2  A    between atoms: O_2  and  C_3
REMARK    3  A    between atoms: C_10  and  C_11
REMARK    4  A    between atoms: N_13  and  C_14
REMARK    5  A    between atoms: C_14  and  C_15
REMARK    6  A    between atoms: C_18  and  C_19
REMARK    7  A    between atoms: C_19  and  N_20
REMARK    8  A    between atoms: N_20  and  C_21
REMARK    9  A    between atoms: N_20  and  C_22
REMARK   10  A    between atoms: C_22  and  C_23
REMARK                            x       y       z     vdW  Elec       q    Type
REMARK                         _______ _______ _______ _____ _____    ______ ____
ROOT
ATOM      1  C   UNL     1      47.748   8.448  12.181  0.00  0.00    +0.000 A 
ATOM      2  C   UNL     1      46.486   9.049  12.284  0.00  0.00    +0.000 A 
ATOM      3  C   UNL     1      45.323   8.305  12.070  0.00  0.00    +0.000 A 
ATOM      4  C   UNL     1      45.396   6.951  11.719  0.00  0.00    +0.000 A 
ATOM      5  C   UNL     1      46.658   6.350  11.607  0.00  0.00    +0.000 A 
ATOM      6  C   UNL     1      47.822   7.089  11.845  0.00  0.00    +0.000 A 
ENDROOT
BRANCH   1   7
ATOM      7  C   UNL     1      48.992   9.240  12.497  0.00  0.00    +0.000 C 
BRANCH   7  10
ATOM      8  C   UNL     1      49.540   9.301  14.890  0.00  0.00    +0.000 C 
ATOM      9  O   UNL     1      48.864  10.319  15.039  0.00  0.00    +0.000 OA
ATOM     10  N   UNL     1      49.660   8.711  13.659  0.00  0.00    +0.000 N 
ATOM     11  H   UNL     1      50.223   7.877  13.546  0.00  0.00    +0.000 HD
BRANCH   8  19
ATOM     12  C   UNL     1      49.592   6.114  16.238  0.00  0.00    +0.000 A 
ATOM     13  N   UNL     1      49.797   5.001  16.971  0.00  0.00    +0.000 NA
ATOM     14  C   UNL     1      50.639   5.061  18.006  0.00  0.00    +0.000 A 
ATOM     15  N   UNL     1      51.315   6.128  18.413  0.00  0.00    +0.000 NA
ATOM     16  C   UNL     1      51.078   7.223  17.670  0.00  0.00    +0.000 A 
ATOM     17  S   UNL     1      51.857   8.675  18.061  0.00  0.00    +0.000 S 
ATOM     18  C   UNL     1      51.094   9.486  16.781  0.00  0.00    +0.000 A 
ATOM     19  C   UNL     1      50.246   8.682  16.025  0.00  0.00    +0.000 A 
ATOM     20  C   UNL     1      50.235   7.323  16.562  0.00  0.00    +0.000 A 
BRANCH  12  22
ATOM     21  C   UNL     1      47.706   5.064  15.334  0.00  0.00    +0.000 C 
ATOM     22  O   UNL     1      48.745   6.026  15.150  0.00  0.00    +0.000 OA
ENDBRANCH  12  22
ENDBRANCH   8  19
ENDBRANCH   7  10
ENDBRANCH   1   7
BRANCH   4  23
ATOM     23  C   UNL     1      44.133   6.141  11.488  0.00  0.00    +0.000 C 
BRANCH  23  24
ATOM     24  N   UNL     1      44.361   4.683  11.396  0.00  0.00    +0.000 NA
ATOM     25  C   UNL     1      43.707   3.975  12.505  0.00  0.00    +0.000 C 
BRANCH  24  26
ATOM     26  C   UNL     1      43.826   4.155  10.123  0.00  0.00    +0.000 C 
BRANCH  26  27
ATOM     27  C   UNL     1      44.845   3.454   9.256  0.00  0.00    +0.000 A 
ATOM     28  C   UNL     1      44.894   2.053   9.187  0.00  0.00    +0.000 A 
ATOM     29  C   UNL     1      45.782   1.419   8.314  0.00  0.00    +0.000 A 
ATOM     30  C   UNL     1      46.635   2.175   7.508  0.00  0.00    +0.000 A 
ATOM     31  C   UNL     1      46.620   3.565   7.595  0.00  0.00    +0.000 A 
ATOM     32  C   UNL     1      45.730   4.191   8.464  0.00  0.00    +0.000 A 
ATOM     33  F   UNL     1      45.732   5.531   8.529  0.00  0.00    +0.000 F 
ENDBRANCH  26  27
ENDBRANCH  24  26
ENDBRANCH  23  24
ENDBRANCH   4  23
TORSDOF 8
ENDMDL
MODEL 7
REMARK VINA RESULT:    -6.689      3.044      4.457
REMARK INTER + INTRA:         -11.469
REMARK INTER:                 -10.360
REMARK INTRA:                  -1.109
REMARK UNBOUND:                -1.651
REMARK  Name = 
REMARK  10 active torsions:
REMARK  status: ('A' for Active; 'I' for Inactive)
REMARK    1  A    between atoms: C_1  and  O_2
REMARK    2  A    between atoms: O_2  and  C_3
REMARK    3  A    between atoms: C_10  and  C_11
REMARK    4  A    between atoms: N_13  and  C_14
REMARK    5  A    between atoms: C_14  and  C_15
REMARK    6  A    between atoms: C_18  and  C_19
REMARK    7  A    between atoms: C_19  and  N_20
REMARK    8  A    between atoms: N_20  and  C_21
REMARK    9  A    between atoms: N_20  and  C_22
REMARK   10  A    between atoms: C_22  and  C_23
REMARK                            x       y       z     vdW  Elec       q    Type
REMARK                         _______ _______ _______ _____ _____    ______ ____
ROOT
ATOM      1  C   UNL     1      48.038   5.530  15.737  0.00  0.00    +0.000 A 
ATOM      2  C   UNL     1      48.222   6.600  14.851  0.00  0.00    +0.000 A 
ATOM      3  C   UNL     1      47.610   6.600  13.595  0.00  0.00    +0.000 A 
ATOM      4  C   UNL     1      46.822   5.516  13.185  0.00  0.00    +0.000 A 
ATOM      5  C   UNL     1      46.644   4.441  14.067  0.00  0.00    +0.000 A 
ATOM      6  C   UNL     1      47.238   4.452  15.333  0.00  0.00    +0.000 A 
ENDROOT
BRANCH   1   7
ATOM      7  C   UNL     1      48.635   5.581  17.120  0.00  0.00    +0.000 C 
BRANCH   7  10
ATOM      8  C   UNL     1      49.920   3.579  17.727  0.00  0.00    +0.000 C 
ATOM      9  O   UNL     1      48.914   3.053  18.201  0.00  0.00    +0.000 OA
ATOM     10  N   UNL     1      49.865   4.835  17.181  0.00  0.00    +0.000 N 
ATOM     11  H   UNL     1      50.700   5.261  16.798  0.00  0.00    +0.000 HD
BRANCH   8  19
ATOM     12  C   UNL     1      53.159   4.541  18.478  0.00  0.00    +0.000 A 
ATOM     13  N   UNL     1      54.489   4.630  18.685  0.00  0.00    +0.000 NA
ATOM     14  C   UNL     1      55.240   3.541  18.498  0.00  0.00    +0.000 A 
ATOM     15  N   UNL     1      54.815   2.344  18.114  0.00  0.00    +0.000 NA
ATOM     16  C   UNL     1      53.488   2.293  17.904  0.00  0.00    +0.000 A 
ATOM     17  S   UNL     1      52.783   0.839  17.399  0.00  0.00    +0.000 S 
ATOM     18  C   UNL     1      51.240   1.543  17.358  0.00  0.00    +0.000 A 
ATOM     19  C   UNL     1      51.218   2.883  17.732  0.00  0.00    +0.000 A 
ATOM     20  C   UNL     1      52.570   3.334  18.057  0.00  0.00    +0.000 A 
BRANCH  12  22
ATOM     21  C   UNL     1      51.949   5.766  20.064  0.00  0.00    +0.000 C 
ATOM     22  O   UNL     1      52.391   5.666  18.710  0.00  0.00    +0.000 OA
ENDBRANCH  12  22
ENDBRANCH   8  19
ENDBRANCH   7  10
ENDBRANCH   1   7
BRANCH   4  23
ATOM     23  C   UNL     1      46.155   5.514  11.822  0.00  0.00    +0.000 C 
BRANCH  23  24
ATOM     24  N   UNL     1      44.774   4.986  11.828  0.00  0.00    +0.000 NA
ATOM     25  C   UNL     1      43.909   5.776  12.716  0.00  0.00    +0.000 C 
BRANCH  24  26
ATOM     26  C   UNL     1      44.202   5.019  10.465  0.00  0.00    +0.000 C 
BRANCH  26  27
ATOM     27  C   UNL     1      44.866   4.084   9.482  0.00  0.00    +0.000 A 
ATOM     28  C   UNL     1      45.674   4.578   8.447  0.00  0.00    +0.000 A 
ATOM     29  C   UNL     1      46.354   3.698   7.600  0.00  0.00    +0.000 A 
ATOM     30  C   UNL     1      46.226   2.319   7.771  0.00  0.00    +0.000 A 
ATOM     31  C   UNL     1      45.397   1.818   8.772  0.00  0.00    +0.000 A 
ATOM     32  C   UNL     1      44.727   2.700   9.616  0.00  0.00    +0.000 A 
ATOM     33  F   UNL     1      43.936   2.194  10.574  0.00  0.00    +0.000 F 
ENDBRANCH  26  27
ENDBRANCH  24  26
ENDBRANCH  23  24
ENDBRANCH   4  23
TORSDOF 8
ENDMDL
MODEL 8
REMARK VINA RESULT:    -6.548      3.964      8.364
REMARK INTER + INTRA:         -11.262
REMARK INTER:                  -8.931
REMARK INTRA:                  -2.331
REMARK UNBOUND:                -1.651
REMARK  Name = 
REMARK  10 active torsions:
REMARK  status: ('A' for Active; 'I' for Inactive)
REMARK    1  A    between atoms: C_1  and  O_2
REMARK    2  A    between atoms: O_2  and  C_3
REMARK    3  A    between atoms: C_10  and  C_11
REMARK    4  A    between atoms: N_13  and  C_14
REMARK    5  A    between atoms: C_14  and  C_15
REMARK    6  A    between atoms: C_18  and  C_19
REMARK    7  A    between atoms: C_19  and  N_20
REMARK    8  A    between atoms: N_20  and  C_21
REMARK    9  A    between atoms: N_20  and  C_22
REMARK   10  A    between atoms: C_22  and  C_23
REMARK                            x       y       z     vdW  Elec       q    Type
REMARK                         _______ _______ _______ _____ _____    ______ ____
ROOT
ATOM      1  C   UNL     1      48.800   8.297  15.722  0.00  0.00    +0.000 A 
ATOM      2  C   UNL     1      49.905   7.461  15.929  0.00  0.00    +0.000 A 
ATOM      3  C   UNL     1      50.317   7.130  17.222  0.00  0.00    +0.000 A 
ATOM      4  C   UNL     1      49.651   7.652  18.339  0.00  0.00    +0.000 A 
ATOM      5  C   UNL     1      48.550   8.495  18.134  0.00  0.00    +0.000 A 
ATOM      6  C   UNL     1      48.123   8.807  16.839  0.00  0.00    +0.000 A 
ENDROOT
BRANCH   1   7
ATOM      7  C   UNL     1      48.314   8.577  14.322  0.00  0.00    +0.000 C 
BRANCH   7  10
ATOM      8  C   UNL     1      47.647   6.476  13.241  0.00  0.00    +0.000 C 
ATOM      9  O   UNL     1      48.816   6.238  12.939  0.00  0.00    +0.000 OA
ATOM     10  N   UNL     1      47.316   7.620  13.920  0.00  0.00    +0.000 N 
ATOM     11  H   UNL     1      46.350   7.809  14.159  0.00  0.00    +0.000 HD
BRANCH   8  19
ATOM     12  C   UNL     1      44.509   6.871  11.836  0.00  0.00    +0.000 A 
ATOM     13  N   UNL     1      43.265   6.722  11.335  0.00  0.00    +0.000 NA
ATOM     14  C   UNL     1      42.748   5.493  11.260  0.00  0.00    +0.000 A 
ATOM     15  N   UNL     1      43.332   4.365  11.640  0.00  0.00    +0.000 NA
ATOM     16  C   UNL     1      44.564   4.549  12.148  0.00  0.00    +0.000 A 
ATOM     17  S   UNL     1      45.446   3.210  12.690  0.00  0.00    +0.000 S 
ATOM     18  C   UNL     1      46.755   4.192  13.140  0.00  0.00    +0.000 A 
ATOM     19  C   UNL     1      46.562   5.546  12.884  0.00  0.00    +0.000 A 
ATOM     20  C   UNL     1      45.244   5.760  12.290  0.00  0.00    +0.000 A 
BRANCH  12  22
ATOM     21  C   UNL     1      44.290   9.084  11.107  0.00  0.00    +0.000 C 
ATOM     22  O   UNL     1      45.043   8.144  11.874  0.00  0.00    +0.000 OA
ENDBRANCH  12  22
ENDBRANCH   8  19
ENDBRANCH   7  10
ENDBRANCH   1   7
BRANCH   4  23
ATOM     23  C   UNL     1      50.096   7.292  19.745  0.00  0.00    +0.000 C 
BRANCH  23  24
ATOM     24  N   UNL     1      50.426   5.863  19.925  0.00  0.00    +0.000 NA
ATOM     25  C   UNL     1      51.228   5.654  21.139  0.00  0.00    +0.000 C 
BRANCH  24  26
ATOM     26  C   UNL     1      49.191   5.057  20.035  0.00  0.00    +0.000 C 
BRANCH  26  27
ATOM     27  C   UNL     1      48.777   4.364  18.759  0.00  0.00    +0.000 A 
ATOM     28  C   UNL     1      49.570   3.354  18.194  0.00  0.00    +0.000 A 
ATOM     29  C   UNL     1      49.132   2.661  17.063  0.00  0.00    +0.000 A 
ATOM     30  C   UNL     1      47.903   2.973  16.479  0.00  0.00    +0.000 A 
ATOM     31  C   UNL     1      47.124   3.998  17.011  0.00  0.00    +0.000 A 
ATOM     32  C   UNL     1      47.564   4.683  18.140  0.00  0.00    +0.000 A 
ATOM     33  F   UNL     1      46.796   5.665  18.635  0.00  0.00    +0.000 F 
ENDBRANCH  26  27
ENDBRANCH  24  26
ENDBRANCH  23  24
ENDBRANCH   4  23
TORSDOF 8
ENDMDL
MODEL 9
REMARK VINA RESULT:    -6.096      4.148      8.346
REMARK INTER + INTRA:         -10.598
REMARK INTER:                  -8.466
REMARK INTRA:                  -2.133
REMARK UNBOUND:                -1.651
REMARK  Name = 
REMARK  10 active torsions:
REMARK  status: ('A' for Active; 'I' for Inactive)
REMARK    1  A    between atoms: C_1  and  O_2
REMARK    2  A    between atoms: O_2  and  C_3
REMARK    3  A    between atoms: C_10  and  C_11
REMARK    4  A    between atoms: N_13  and  C_14
REMARK    5  A    between atoms: C_14  and  C_15
REMARK    6  A    between atoms: C_18  and  C_19
REMARK    7  A    between atoms: C_19  and  N_20
REMARK    8  A    between atoms: N_20  and  C_21
REMARK    9  A    between atoms: N_20  and  C_22
REMARK   10  A    between atoms: C_22  and  C_23
REMARK                            x       y       z     vdW  Elec       q    Type
REMARK                         _______ _______ _______ _____ _____    ______ ____
ROOT
ATOM      1  C   UNL     1      48.904   8.036  14.683  0.00  0.00    +0.000 A 
ATOM      2  C   UNL     1      48.358   8.898  15.645  0.00  0.00    +0.000 A 
ATOM      3  C   UNL     1      48.691   8.761  16.995  0.00  0.00    +0.000 A 
ATOM      4  C   UNL     1      49.554   7.741  17.418  0.00  0.00    +0.000 A 
ATOM      5  C   UNL     1      50.093   6.873  16.458  0.00  0.00    +0.000 A 
ATOM      6  C   UNL     1      49.779   7.025  15.104  0.00  0.00    +0.000 A 
ENDROOT
BRANCH   1   7
ATOM      7  C   UNL     1      48.604   8.247  13.221  0.00  0.00    +0.000 C 
BRANCH   7  10
ATOM      8  C   UNL     1      46.234   7.745  12.818  0.00  0.00    +0.000 C 
ATOM      9  O   UNL     1      45.906   8.849  13.253  0.00  0.00    +0.000 OA
ATOM     10  N   UNL     1      47.551   7.369  12.777  0.00  0.00    +0.000 N 
ATOM     11  H   UNL     1      47.810   6.457  12.422  0.00  0.00    +0.000 HD
BRANCH   8  19
ATOM     12  C   UNL     1      45.967   4.295  12.879  0.00  0.00    +0.000 A 
ATOM     13  N   UNL     1      45.608   3.003  12.741  0.00  0.00    +0.000 NA
ATOM     14  C   UNL     1      44.454   2.720  12.131  0.00  0.00    +0.000 A 
ATOM     15  N   UNL     1      43.595   3.593  11.622  0.00  0.00    +0.000 NA
ATOM     16  C   UNL     1      43.989   4.871  11.763  0.00  0.00    +0.000 A 
ATOM     17  S   UNL     1      43.010   6.113  11.159  0.00  0.00    +0.000 S 
ATOM     18  C   UNL     1      44.105   7.298  11.680  0.00  0.00    +0.000 A 
ATOM     19  C   UNL     1      45.227   6.789  12.329  0.00  0.00    +0.000 A 
ATOM     20  C   UNL     1      45.157   5.329  12.375  0.00  0.00    +0.000 A 
BRANCH  12  22
ATOM     21  C   UNL     1      46.994   4.576  14.963  0.00  0.00    +0.000 C 
ATOM     22  O   UNL     1      47.147   4.572  13.543  0.00  0.00    +0.000 OA
ENDBRANCH  12  22
ENDBRANCH   8  19
ENDBRANCH   7  10
ENDBRANCH   1   7
BRANCH   4  23
ATOM     23  C   UNL     1      49.917   7.592  18.884  0.00  0.00    +0.000 C 
BRANCH  23  24
ATOM     24  N   UNL     1      51.053   6.680  19.133  0.00  0.00    +0.000 NA
ATOM     25  C   UNL     1      52.090   7.335  19.943  0.00  0.00    +0.000 C 
BRANCH  24  26
ATOM     26  C   UNL     1      50.596   5.469  19.849  0.00  0.00    +0.000 C 
BRANCH  26  27
ATOM     27  C   UNL     1      50.081   4.367  18.953  0.00  0.00    +0.000 A 
ATOM     28  C   UNL     1      48.713   4.065  18.892  0.00  0.00    +0.000 A 
ATOM     29  C   UNL     1      48.240   3.105  17.993  0.00  0.00    +0.000 A 
ATOM     30  C   UNL     1      49.128   2.430  17.154  0.00  0.00    +0.000 A 
ATOM     31  C   UNL     1      50.494   2.696  17.232  0.00  0.00    +0.000 A 
ATOM     32  C   UNL     1      50.958   3.658  18.126  0.00  0.00    +0.000 A 
ATOM     33  F   UNL     1      52.276   3.898  18.182  0.00  0.00    +0.000 F 
ENDBRANCH  26  27
ENDBRANCH  24  26
ENDBRANCH  23  24
ENDBRANCH   4  23
TORSDOF 8
ENDMDL
