MODEL 1
REMARK VINA RESULT:    -7.112      0.000      0.000
REMARK INTER + INTRA:          -9.299
REMARK INTER:                  -8.982
REMARK INTRA:                  -0.317
REMARK UNBOUND:                -0.317
REMARK  Name = 
REMARK  5 active torsions:
REMARK  status: ('A' for Active; 'I' for Inactive)
REMARK    1  A    between atoms: N_1  and  C_2
REMARK    2  A    between atoms: C_2  and  C_3
REMARK    3  A    between atoms: C_7  and  N_8
REMARK    4  A    between atoms: N_8  and  C_9
REMARK    5  A    between atoms: C_9  and  C_10
REMARK                            x       y       z     vdW  Elec       q    Type
REMARK                         _______ _______ _______ _____ _____    ______ ____
ROOT
ATOM      1  C   UNL     1      46.847   2.662   7.363  0.00  0.00    +0.000 A 
ATOM      2  C   UNL     1      46.489   1.383   7.800  0.00  0.00    +0.000 A 
ATOM      3  C   UNL     1      45.373   1.209   8.619  0.00  0.00    +0.000 A 
ATOM      4  C   UNL     1      44.627   2.318   9.031  0.00  0.00    +0.000 A 
ATOM      5  C   UNL     1      45.000   3.612   8.660  0.00  0.00    +0.000 A 
ATOM      6  C   UNL     1      46.076   3.761   7.778  0.00  0.00    +0.000 A 
ENDROOT
BRANCH   5   7
ATOM      7  N   UNL     1      44.223   4.688   9.124  0.00  0.00    +0.000 N 
ATOM      8  H   UNL     1      44.772   5.546   9.065  0.00  0.00    +0.000 HD
BRANCH   7   9
ATOM      9  C   UNL     1      43.665   4.537  10.473  0.00  0.00    +0.000 C 
BRANCH   9  10
ATOM     10  C   UNL     1      44.719   4.772  11.528  0.00  0.00    +0.000 A 
ATOM     11  C   UNL     1      44.890   3.856  12.564  0.00  0.00    +0.000 A 
ATOM     12  N   UNL     1      45.864   3.970  13.496  0.00  0.00    +0.000 NA
ATOM     13  C   UNL     1      46.667   5.046  13.358  0.00  0.00    +0.000 A 
ATOM     14  C   UNL     1      46.507   5.966  12.335  0.00  0.00    +0.000 A 
ATOM     15  N   UNL     1      45.536   5.856  11.401  0.00  0.00    +0.000 NA
ENDBRANCH   9  10
ENDBRANCH   7   9
ENDBRANCH   5   7
BRANCH   1  16
ATOM     16  C   UNL     1      48.036   2.880   6.464  0.00  0.00    +0.000 C 
BRANCH  16  17
ATOM     17  N   UNL     1      48.443   1.637   5.817  0.00  0.00    +0.000 NA
ATOM     18  H   UNL     1      49.435   1.481   5.985  0.00  0.00    +0.000 HD
ATOM     19  H   UNL     1      48.333   1.742   4.810  0.00  0.00    +0.000 HD
ENDBRANCH  16  17
ENDBRANCH   1  16
TORSDOF 5
ENDMDL
MODEL 2
REMARK VINA RESULT:    -7.003      1.308      2.006
REMARK INTER + INTRA:          -9.162
REMARK INTER:                  -9.142
REMARK INTRA:                  -0.020
REMARK UNBOUND:                -0.317
REMARK  Name = 
REMARK  5 active torsions:
REMARK  status: ('A' for Active; 'I' for Inactive)
REMARK    1  A    between atoms: N_1  and  C_2
REMARK    2  A    between atoms: C_2  and  C_3
REMARK    3  A    between atoms: C_7  and  N_8
REMARK    4  A    between atoms: N_8  and  C_9
REMARK    5  A    between atoms: C_9  and  C_10
REMARK                            x       y       z     vdW  Elec       q    Type
REMARK                         _______ _______ _______ _____ _____    ______ ____
ROOT
ATOM      1  C   UNL     1      46.504   2.187   7.646  0.00  0.00    +0.000 A 
ATOM      2  C   UNL     1      46.462   3.533   7.269  0.00  0.00    +0.000 A 
ATOM      3  C   UNL     1      45.701   4.442   8.003  0.00  0.00    +0.000 A 
ATOM      4  C   UNL     1      44.952   4.005   9.100  0.00  0.00    +0.000 A 
ATOM      5  C   UNL     1      44.927   2.655   9.459  0.00  0.00    +0.000 A 
ATOM      6  C   UNL     1      45.755   1.771   8.759  0.00  0.00    +0.000 A 
ENDROOT
BRANCH   5   7
ATOM      7  N   UNL     1      44.137   2.272  10.558  0.00  0.00    +0.000 N 
ATOM      8  H   UNL     1      43.343   1.727  10.224  0.00  0.00    +0.000 HD
BRANCH   7   9
ATOM      9  C   UNL     1      43.673   3.365  11.421  0.00  0.00    +0.000 C 
BRANCH   9  10
ATOM     10  C   UNL     1      44.794   3.890  12.285  0.00  0.00    +0.000 A 
ATOM     11  C   UNL     1      44.863   5.246  12.595  0.00  0.00    +0.000 A 
ATOM     12  N   UNL     1      45.798   5.767  13.423  0.00  0.00    +0.000 NA
ATOM     13  C   UNL     1      46.673   4.875  13.932  0.00  0.00    +0.000 A 
ATOM     14  C   UNL     1      46.619   3.525  13.630  0.00  0.00    +0.000 A 
ATOM     15  N   UNL     1      45.686   3.000  12.805  0.00  0.00    +0.000 NA
ENDBRANCH   9  10
ENDBRANCH   7   9
ENDBRANCH   5   7
BRANCH   1  16
ATOM     16  C   UNL     1      47.331   1.184   6.884  0.00  0.00    +0.000 C 
BRANCH  16  17
ATOM     17  N   UNL     1      48.433   1.834   6.181  0.00  0.00    +0.000 NA
ATOM     18  H   UNL     1      48.832   1.182   5.509  0.00  0.00    +0.000 HD
ATOM     19  H   UNL     1      49.169   2.045   6.853  0.00  0.00    +0.000 HD
ENDBRANCH  16  17
ENDBRANCH   1  16
TORSDOF 5
ENDMDL
MODEL 3
REMARK VINA RESULT:    -6.741      1.487      5.652
REMARK INTER + INTRA:          -8.831
REMARK INTER:                  -8.476
REMARK INTRA:                  -0.356
REMARK UNBOUND:                -0.317
REMARK  Name = 
REMARK  5 active torsions:
REMARK  status: ('A' for Active; 'I' for Inactive)
REMARK    1  A    between atoms: N_1  and  C_2
REMARK    2  A    between atoms: C_2  and  C_3
REMARK    3  A    between atoms: C_7  and  N_8
REMARK    4  A    between atoms: N_8  and  C_9
REMARK    5  A    between atoms: C_9  and  C_10
REMARK                            x       y       z     vdW  Elec       q    Type
REMARK                         _______ _______ _______ _____ _____    ______ ____
ROOT
ATOM      1  C   UNL     1      46.217   4.920  13.156  0.00  0.00    +0.000 A 
ATOM      2  C   UNL     1      46.689   6.154  12.699  0.00  0.00    +0.000 A 
ATOM      3  C   UNL     1      46.318   6.623  11.439  0.00  0.00    +0.000 A 
ATOM      4  C   UNL     1      45.498   5.845  10.615  0.00  0.00    +0.000 A 
ATOM      5  C   UNL     1      45.065   4.581  11.023  0.00  0.00    +0.000 A 
ATOM      6  C   UNL     1      45.384   4.161  12.318  0.00  0.00    +0.000 A 
ENDROOT
BRANCH   5   7
ATOM      7  N   UNL     1      44.260   3.837  10.142  0.00  0.00    +0.000 N 
ATOM      8  H   UNL     1      44.336   2.847  10.376  0.00  0.00    +0.000 HD
BRANCH   7   9
ATOM      9  C   UNL     1      44.524   4.039   8.712  0.00  0.00    +0.000 C 
BRANCH   9  10
ATOM     10  C   UNL     1      45.578   3.082   8.212  0.00  0.00    +0.000 A 
ATOM     11  C   UNL     1      45.540   1.740   8.585  0.00  0.00    +0.000 A 
ATOM     12  N   UNL     1      46.410   0.818   8.113  0.00  0.00    +0.000 NA
ATOM     13  C   UNL     1      47.332   1.289   7.248  0.00  0.00    +0.000 A 
ATOM     14  C   UNL     1      47.384   2.621   6.870  0.00  0.00    +0.000 A 
ATOM     15  N   UNL     1      46.517   3.546   7.339  0.00  0.00    +0.000 NA
ENDBRANCH   9  10
ENDBRANCH   7   9
ENDBRANCH   5   7
BRANCH   1  16
ATOM     16  C   UNL     1      46.585   4.395  14.519  0.00  0.00    +0.000 C 
BRANCH  16  17
ATOM     17  N   UNL     1      47.434   3.212  14.418  0.00  0.00    +0.000 NA
ATOM     18  H   UNL     1      47.796   2.980  15.340  0.00  0.00    +0.000 HD
ATOM     19  H   UNL     1      48.241   3.439  13.839  0.00  0.00    +0.000 HD
ENDBRANCH  16  17
ENDBRANCH   1  16
TORSDOF 5
ENDMDL
MODEL 4
REMARK VINA RESULT:    -6.136      1.722      5.874
REMARK INTER + INTRA:          -8.067
REMARK INTER:                  -7.781
REMARK INTRA:                  -0.286
REMARK UNBOUND:                -0.317
REMARK  Name = 
REMARK  5 active torsions:
REMARK  status: ('A' for Active; 'I' for Inactive)
REMARK    1  A    between atoms: N_1  and  C_2
REMARK    2  A    between atoms: C_2  and  C_3
REMARK    3  A    between atoms: C_7  and  N_8
REMARK    4  A    between atoms: N_8  and  C_9
REMARK    5  A    between atoms: C_9  and  C_10
REMARK                            x       y       z     vdW  Elec       q    Type
REMARK                         _______ _______ _______ _____ _____    ______ ____
ROOT
ATOM      1  C   UNL     1      43.634   5.702  11.731  0.00  0.00    +0.000 A 
ATOM      2  C   UNL     1      44.412   5.770  12.891  0.00  0.00    +0.000 A 
ATOM      3  C   UNL     1      45.337   4.766  13.174  0.00  0.00    +0.000 A 
ATOM      4  C   UNL     1      45.469   3.672  12.313  0.00  0.00    +0.000 A 
ATOM      5  C   UNL     1      44.660   3.549  11.181  0.00  0.00    +0.000 A 
ATOM      6  C   UNL     1      43.792   4.601  10.873  0.00  0.00    +0.000 A 
ENDROOT
BRANCH   5   7
ATOM      7  N   UNL     1      44.823   2.415  10.366  0.00  0.00    +0.000 N 
ATOM      8  H   UNL     1      45.770   2.055  10.480  0.00  0.00    +0.000 HD
BRANCH   7   9
ATOM      9  C   UNL     1      44.523   2.604   8.941  0.00  0.00    +0.000 C 
BRANCH   9  10
ATOM     10  C   UNL     1      45.767   2.459   8.099  0.00  0.00    +0.000 A 
ATOM     11  C   UNL     1      46.417   1.230   8.014  0.00  0.00    +0.000 A 
ATOM     12  N   UNL     1      47.491   1.017   7.219  0.00  0.00    +0.000 NA
ATOM     13  C   UNL     1      47.900   2.088   6.508  0.00  0.00    +0.000 A 
ATOM     14  C   UNL     1      47.266   3.317   6.585  0.00  0.00    +0.000 A 
ATOM     15  N   UNL     1      46.192   3.535   7.376  0.00  0.00    +0.000 NA
ENDBRANCH   9  10
ENDBRANCH   7   9
ENDBRANCH   5   7
BRANCH   1  16
ATOM     16  C   UNL     1      42.639   6.780  11.389  0.00  0.00    +0.000 C 
BRANCH  16  17
ATOM     17  N   UNL     1      43.312   8.020  11.014  0.00  0.00    +0.000 NA
ATOM     18  H   UNL     1      42.854   8.415  10.195  0.00  0.00    +0.000 HD
ATOM     19  H   UNL     1      44.267   7.801  10.734  0.00  0.00    +0.000 HD
ENDBRANCH  16  17
ENDBRANCH   1  16
TORSDOF 5
ENDMDL
MODEL 5
REMARK VINA RESULT:    -6.129      1.766      5.914
REMARK INTER + INTRA:          -8.058
REMARK INTER:                  -7.751
REMARK INTRA:                  -0.307
REMARK UNBOUND:                -0.317
REMARK  Name = 
REMARK  5 active torsions:
REMARK  status: ('A' for Active; 'I' for Inactive)
REMARK    1  A    between atoms: N_1  and  C_2
REMARK    2  A    between atoms: C_2  and  C_3
REMARK    3  A    between atoms: C_7  and  N_8
REMARK    4  A    between atoms: N_8  and  C_9
REMARK    5  A    between atoms: C_9  and  C_10
REMARK                            x       y       z     vdW  Elec       q    Type
REMARK                         _______ _______ _______ _____ _____    ______ ____
ROOT
ATOM      1  C   UNL     1      45.823   6.855  12.193  0.00  0.00    +0.000 A 
ATOM      2  C   UNL     1      46.060   5.981  13.259  0.00  0.00    +0.000 A 
ATOM      3  C   UNL     1      45.734   4.631  13.143  0.00  0.00    +0.000 A 
ATOM      4  C   UNL     1      45.141   4.151  11.971  0.00  0.00    +0.000 A 
ATOM      5  C   UNL     1      44.837   5.014  10.916  0.00  0.00    +0.000 A 
ATOM      6  C   UNL     1      45.239   6.350  11.020  0.00  0.00    +0.000 A 
ENDROOT
BRANCH   5   7
ATOM      7  N   UNL     1      44.220   4.477   9.772  0.00  0.00    +0.000 N 
ATOM      8  H   UNL     1      43.238   4.750   9.763  0.00  0.00    +0.000 HD
BRANCH   7   9
ATOM      9  C   UNL     1      44.342   3.023   9.605  0.00  0.00    +0.000 C 
BRANCH   9  10
ATOM     10  C   UNL     1      45.378   2.680   8.562  0.00  0.00    +0.000 A 
ATOM     11  C   UNL     1      45.805   3.647   7.654  0.00  0.00    +0.000 A 
ATOM     12  N   UNL     1      46.783   3.424   6.746  0.00  0.00    +0.000 NA
ATOM     13  C   UNL     1      47.322   2.187   6.774  0.00  0.00    +0.000 A 
ATOM     14  C   UNL     1      46.905   1.216   7.669  0.00  0.00    +0.000 A 
ATOM     15  N   UNL     1      45.930   1.434   8.579  0.00  0.00    +0.000 NA
ENDBRANCH   9  10
ENDBRANCH   7   9
ENDBRANCH   5   7
BRANCH   1  16
ATOM     16  C   UNL     1      46.181   8.316  12.281  0.00  0.00    +0.000 C 
BRANCH  16  17
ATOM     17  N   UNL     1      45.110   9.084  12.907  0.00  0.00    +0.000 NA
ATOM     18  H   UNL     1      44.234   8.574  12.817  0.00  0.00    +0.000 HD
ATOM     19  H   UNL     1      44.990   9.956  12.394  0.00  0.00    +0.000 HD
ENDBRANCH  16  17
ENDBRANCH   1  16
TORSDOF 5
ENDMDL
MODEL 6
REMARK VINA RESULT:    -5.509      3.367      5.581
REMARK INTER + INTRA:          -7.275
REMARK INTER:                  -7.052
REMARK INTRA:                  -0.223
REMARK UNBOUND:                -0.317
REMARK  Name = 
REMARK  5 active torsions:
REMARK  status: ('A' for Active; 'I' for Inactive)
REMARK    1  A    between atoms: N_1  and  C_2
REMARK    2  A    between atoms: C_2  and  C_3
REMARK    3  A    between atoms: C_7  and  N_8
REMARK    4  A    between atoms: N_8  and  C_9
REMARK    5  A    between atoms: C_9  and  C_10
REMARK                            x       y       z     vdW  Elec       q    Type
REMARK                         _______ _______ _______ _____ _____    ______ ____
ROOT
ATOM      1  C   UNL     1      44.844   3.935  11.185  0.00  0.00    +0.000 A 
ATOM      2  C   UNL     1      45.090   5.049  10.377  0.00  0.00    +0.000 A 
ATOM      3  C   UNL     1      45.823   6.127  10.874  0.00  0.00    +0.000 A 
ATOM      4  C   UNL     1      46.287   6.109  12.193  0.00  0.00    +0.000 A 
ATOM      5  C   UNL     1      46.002   5.035  13.039  0.00  0.00    +0.000 A 
ATOM      6  C   UNL     1      45.331   3.931  12.502  0.00  0.00    +0.000 A 
ENDROOT
BRANCH   5   7
ATOM      7  N   UNL     1      46.477   5.085  14.362  0.00  0.00    +0.000 N 
ATOM      8  H   UNL     1      47.114   5.875  14.458  0.00  0.00    +0.000 HD
BRANCH   7   9
ATOM      9  C   UNL     1      47.115   3.859  14.857  0.00  0.00    +0.000 C 
BRANCH   9  10
ATOM     10  C   UNL     1      47.815   4.102  16.172  0.00  0.00    +0.000 A 
ATOM     11  C   UNL     1      47.540   3.294  17.273  0.00  0.00    +0.000 A 
ATOM     12  N   UNL     1      48.186   3.412  18.455  0.00  0.00    +0.000 NA
ATOM     13  C   UNL     1      49.124   4.381  18.501  0.00  0.00    +0.000 A 
ATOM     14  C   UNL     1      49.406   5.194  17.417  0.00  0.00    +0.000 A 
ATOM     15  N   UNL     1      48.764   5.079  16.233  0.00  0.00    +0.000 NA
ENDBRANCH   9  10
ENDBRANCH   7   9
ENDBRANCH   5   7
BRANCH   1  16
ATOM     16  C   UNL     1      44.071   2.748  10.670  0.00  0.00    +0.000 C 
BRANCH  16  17
ATOM     17  N   UNL     1      43.060   2.320  11.632  0.00  0.00    +0.000 NA
ATOM     18  H   UNL     1      42.154   2.280  11.170  0.00  0.00    +0.000 HD
ATOM     19  H   UNL     1      42.982   3.027  12.360  0.00  0.00    +0.000 HD
ENDBRANCH  16  17
ENDBRANCH   1  16
TORSDOF 5
ENDMDL
MODEL 7
REMARK VINA RESULT:    -5.508      1.909      5.978
REMARK INTER + INTRA:          -7.274
REMARK INTER:                  -6.920
REMARK INTRA:                  -0.355
REMARK UNBOUND:                -0.317
REMARK  Name = 
REMARK  5 active torsions:
REMARK  status: ('A' for Active; 'I' for Inactive)
REMARK    1  A    between atoms: N_1  and  C_2
REMARK    2  A    between atoms: C_2  and  C_3
REMARK    3  A    between atoms: C_7  and  N_8
REMARK    4  A    between atoms: N_8  and  C_9
REMARK    5  A    between atoms: C_9  and  C_10
REMARK                            x       y       z     vdW  Elec       q    Type
REMARK                         _______ _______ _______ _____ _____    ______ ____
ROOT
ATOM      1  C   UNL     1      46.932   7.055  12.925  0.00  0.00    +0.000 A 
ATOM      2  C   UNL     1      46.154   8.092  12.400  0.00  0.00    +0.000 A 
ATOM      3  C   UNL     1      44.989   7.803  11.690  0.00  0.00    +0.000 A 
ATOM      4  C   UNL     1      44.611   6.474  11.474  0.00  0.00    +0.000 A 
ATOM      5  C   UNL     1      45.404   5.419  11.934  0.00  0.00    +0.000 A 
ATOM      6  C   UNL     1      46.528   5.728  12.708  0.00  0.00    +0.000 A 
ENDROOT
BRANCH   5   7
ATOM      7  N   UNL     1      44.984   4.104  11.667  0.00  0.00    +0.000 N 
ATOM      8  H   UNL     1      45.800   3.494  11.627  0.00  0.00    +0.000 HD
BRANCH   7   9
ATOM      9  C   UNL     1      44.163   3.929  10.463  0.00  0.00    +0.000 C 
BRANCH   9  10
ATOM     10  C   UNL     1      44.992   3.423   9.308  0.00  0.00    +0.000 A 
ATOM     11  C   UNL     1      45.502   4.316   8.367  0.00  0.00    +0.000 A 
ATOM     12  N   UNL     1      46.312   3.936   7.353  0.00  0.00    +0.000 NA
ATOM     13  C   UNL     1      46.595   2.617   7.308  0.00  0.00    +0.000 A 
ATOM     14  C   UNL     1      46.092   1.717   8.234  0.00  0.00    +0.000 A 
ATOM     15  N   UNL     1      45.283   2.093   9.250  0.00  0.00    +0.000 NA
ENDBRANCH   9  10
ENDBRANCH   7   9
ENDBRANCH   5   7
BRANCH   1  16
ATOM     16  C   UNL     1      48.186   7.336  13.711  0.00  0.00    +0.000 C 
BRANCH  16  17
ATOM     17  N   UNL     1      48.559   6.192  14.536  0.00  0.00    +0.000 NA
ATOM     18  H   UNL     1      49.373   6.434  15.098  0.00  0.00    +0.000 HD
ATOM     19  H   UNL     1      48.847   5.429  13.925  0.00  0.00    +0.000 HD
ENDBRANCH  16  17
ENDBRANCH   1  16
TORSDOF 5
ENDMDL
MODEL 8
REMARK VINA RESULT:    -5.437      2.807      4.988
REMARK INTER + INTRA:          -7.185
REMARK INTER:                  -6.930
REMARK INTRA:                  -0.254
REMARK UNBOUND:                -0.317
REMARK  Name = 
REMARK  5 active torsions:
REMARK  status: ('A' for Active; 'I' for Inactive)
REMARK    1  A    between atoms: N_1  and  C_2
REMARK    2  A    between atoms: C_2  and  C_3
REMARK    3  A    between atoms: C_7  and  N_8
REMARK    4  A    between atoms: N_8  and  C_9
REMARK    5  A    between atoms: C_9  and  C_10
REMARK                            x       y       z     vdW  Elec       q    Type
REMARK                         _______ _______ _______ _____ _____    ______ ____
ROOT
ATOM      1  C   UNL     1      44.393   3.726  10.395  0.00  0.00    +0.000 A 
ATOM      2  C   UNL     1      43.519   4.786  10.656  0.00  0.00    +0.000 A 
ATOM      3  C   UNL     1      43.561   5.441  11.886  0.00  0.00    +0.000 A 
ATOM      4  C   UNL     1      44.454   5.020  12.875  0.00  0.00    +0.000 A 
ATOM      5  C   UNL     1      45.294   3.923  12.663  0.00  0.00    +0.000 A 
ATOM      6  C   UNL     1      45.292   3.326  11.397  0.00  0.00    +0.000 A 
ENDROOT
BRANCH   5   7
ATOM      7  N   UNL     1      46.155   3.532  13.703  0.00  0.00    +0.000 N 
ATOM      8  H   UNL     1      45.690   2.828  14.275  0.00  0.00    +0.000 HD
BRANCH   7   9
ATOM      9  C   UNL     1      46.665   4.617  14.551  0.00  0.00    +0.000 C 
BRANCH   9  10
ATOM     10  C   UNL     1      47.452   4.072  15.718  0.00  0.00    +0.000 A 
ATOM     11  C   UNL     1      47.490   4.768  16.924  0.00  0.00    +0.000 A 
ATOM     12  N   UNL     1      48.115   4.298  18.028  0.00  0.00    +0.000 NA
ATOM     13  C   UNL     1      48.710   3.095  17.881  0.00  0.00    +0.000 A 
ATOM     14  C   UNL     1      48.683   2.393  16.688  0.00  0.00    +0.000 A 
ATOM     15  N   UNL     1      48.059   2.859  15.583  0.00  0.00    +0.000 NA
ENDBRANCH   9  10
ENDBRANCH   7   9
ENDBRANCH   5   7
BRANCH   1  16
ATOM     16  C   UNL     1      44.385   3.010   9.070  0.00  0.00    +0.000 C 
BRANCH  16  17
ATOM     17  N   UNL     1      45.166   1.779   9.130  0.00  0.00    +0.000 NA
ATOM     18  H   UNL     1      44.664   1.090   9.686  0.00  0.00    +0.000 HD
ATOM     19  H   UNL     1      46.037   1.969   9.623  0.00  0.00    +0.000 HD
ENDBRANCH  16  17
ENDBRANCH   1  16
TORSDOF 5
ENDMDL
MODEL 9
REMARK VINA RESULT:    -5.296      2.449      4.065
REMARK INTER + INTRA:          -7.006
REMARK INTER:                  -6.730
REMARK INTRA:                  -0.275
REMARK UNBOUND:                -0.317
REMARK  Name = 
REMARK  5 active torsions:
REMARK  status: ('A' for Active; 'I' for Inactive)
REMARK    1  A    between atoms: N_1  and  C_2
REMARK    2  A    between atoms: C_2  and  C_3
REMARK    3  A    between atoms: C_7  and  N_8
REMARK    4  A    between atoms: N_8  and  C_9
REMARK    5  A    between atoms: C_9  and  C_10
REMARK                            x       y       z     vdW  Elec       q    Type
REMARK                         _______ _______ _______ _____ _____    ______ ____
ROOT
ATOM      1  C   UNL     1      44.561   4.031  10.171  0.00  0.00    +0.000 A 
ATOM      2  C   UNL     1      43.835   2.951  10.683  0.00  0.00    +0.000 A 
ATOM      3  C   UNL     1      43.484   2.921  12.032  0.00  0.00    +0.000 A 
ATOM      4  C   UNL     1      43.884   3.955  12.884  0.00  0.00    +0.000 A 
ATOM      5  C   UNL     1      44.663   5.013  12.410  0.00  0.00    +0.000 A 
ATOM      6  C   UNL     1      44.941   5.066  11.040  0.00  0.00    +0.000 A 
ENDROOT
BRANCH   5   7
ATOM      7  N   UNL     1      45.053   6.013  13.320  0.00  0.00    +0.000 N 
ATOM      8  H   UNL     1      44.306   6.156  13.999  0.00  0.00    +0.000 HD
BRANCH   7   9
ATOM      9  C   UNL     1      45.451   7.295  12.727  0.00  0.00    +0.000 C 
BRANCH   9  10
ATOM     10  C   UNL     1      46.947   7.481  12.783  0.00  0.00    +0.000 A 
ATOM     11  C   UNL     1      47.744   6.551  13.448  0.00  0.00    +0.000 A 
ATOM     12  N   UNL     1      49.095   6.620  13.471  0.00  0.00    +0.000 NA
ATOM     13  C   UNL     1      49.628   7.665  12.803  0.00  0.00    +0.000 A 
ATOM     14  C   UNL     1      48.848   8.598  12.140  0.00  0.00    +0.000 A 
ATOM     15  N   UNL     1      47.498   8.533  12.113  0.00  0.00    +0.000 NA
ENDBRANCH   9  10
ENDBRANCH   7   9
ENDBRANCH   5   7
BRANCH   1  16
ATOM     16  C   UNL     1      44.939   4.102   8.714  0.00  0.00    +0.000 C 
BRANCH  16  17
ATOM     17  N   UNL     1      45.887   5.183   8.467  0.00  0.00    +0.000 NA
ATOM     18  H   UNL     1      45.737   5.923   9.149  0.00  0.00    +0.000 HD
ATOM     19  H   UNL     1      45.689   5.588   7.553  0.00  0.00    +0.000 HD
ENDBRANCH  16  17
ENDBRANCH   1  16
TORSDOF 5
ENDMDL
