MODEL 1
REMARK VINA RESULT:    -9.285      0.000      0.000
REMARK INTER + INTRA:         -12.128
REMARK INTER:                 -11.456
REMARK INTRA:                  -0.672
REMARK UNBOUND:                -0.672
REMARK  Name = 
REMARK  4 active torsions:
REMARK  status: ('A' for Active; 'I' for Inactive)
REMARK    1  A    between atoms: C_2  and  C_4
REMARK    2  A    between atoms: N_8  and  C_9
REMARK    3  A    between atoms: C_9  and  C_10
REMARK    4  A    between atoms: C_14  and  C_15
REMARK                            x       y       z     vdW  Elec       q    Type
REMARK                         _______ _______ _______ _____ _____    ______ ____
ROOT
ATOM      1  C   UNL     1      43.492   4.864  11.034  0.00  0.00    +0.000 C 
ENDROOT
BRANCH   1   6
ATOM      2  C   UNL     1      46.372   2.261   7.677  0.00  0.00    +0.000 A 
ATOM      3  C   UNL     1      45.640   1.779   8.756  0.00  0.00    +0.000 A 
ATOM      4  C   UNL     1      44.790   2.647   9.443  0.00  0.00    +0.000 A 
ATOM      5  C   UNL     1      44.691   3.977   9.051  0.00  0.00    +0.000 A 
ATOM      6  N   UNL     1      43.805   4.866   9.616  0.00  0.00    +0.000 N 
ATOM      7  N   UNL     1      45.410   4.460   8.017  0.00  0.00    +0.000 NA
ATOM      8  C   UNL     1      46.239   3.604   7.360  0.00  0.00    +0.000 A 
ATOM      9  H   UNL     1      43.954   5.776   9.194  0.00  0.00    +0.000 HD
BRANCH   2  11
ATOM     10  N   UNL     1      48.312   2.022   6.238  0.00  0.00    +0.000 N 
ATOM     11  C   UNL     1      47.269   1.405   6.874  0.00  0.00    +0.000 C 
ATOM     12  O   UNL     1      47.109   0.196   6.807  0.00  0.00    +0.000 OA
ATOM     13  H   UNL     1      48.974   1.418   5.764  0.00  0.00    +0.000 HD
ATOM     14  H   UNL     1      48.617   2.960   6.464  0.00  0.00    +0.000 HD
ENDBRANCH   2  11
ENDBRANCH   1   6
BRANCH   1  15
ATOM     15  C   UNL     1      44.690   5.032  11.934  0.00  0.00    +0.000 A 
ATOM     16  C   UNL     1      44.796   4.276  13.095  0.00  0.00    +0.000 A 
ATOM     17  N   UNL     1      45.778   4.422  14.010  0.00  0.00    +0.000 NA
ATOM     18  C   UNL     1      46.709   5.374  13.755  0.00  0.00    +0.000 A 
ATOM     19  C   UNL     1      46.721   6.210  12.638  0.00  0.00    +0.000 A 
ATOM     20  C   UNL     1      45.667   6.016  11.729  0.00  0.00    +0.000 A 
BRANCH  19  21
ATOM     21  C   UNL     1      47.762   7.239  12.420  0.00  0.00    +0.000 A 
ATOM     22  C   UNL     1      49.132   6.939  12.574  0.00  0.00    +0.000 A 
ATOM     23  C   UNL     1      50.126   7.901  12.359  0.00  0.00    +0.000 A 
ATOM     24  C   UNL     1      49.771   9.195  11.996  0.00  0.00    +0.000 A 
ATOM     25  C   UNL     1      48.428   9.511  11.848  0.00  0.00    +0.000 A 
ATOM     26  F   UNL     1      48.080  10.756  11.502  0.00  0.00    +0.000 F 
ATOM     27  C   UNL     1      47.433   8.555  12.048  0.00  0.00    +0.000 A 
ENDBRANCH  19  21
ENDBRANCH   1  15
TORSDOF 4
ENDMDL
MODEL 2
REMARK VINA RESULT:    -8.593      4.031      7.039
REMARK INTER + INTRA:         -11.275
REMARK INTER:                 -10.790
REMARK INTRA:                  -0.485
REMARK UNBOUND:                -0.672
REMARK  Name = 
REMARK  4 active torsions:
REMARK  status: ('A' for Active; 'I' for Inactive)
REMARK    1  A    between atoms: C_2  and  C_4
REMARK    2  A    between atoms: N_8  and  C_9
REMARK    3  A    between atoms: C_9  and  C_10
REMARK    4  A    between atoms: C_14  and  C_15
REMARK                            x       y       z     vdW  Elec       q    Type
REMARK                         _______ _______ _______ _____ _____    ______ ____
ROOT
ATOM      1  C   UNL     1      43.683   6.536  11.349  0.00  0.00    +0.000 C 
ENDROOT
BRANCH   1   6
ATOM      2  C   UNL     1      48.277   7.029  13.582  0.00  0.00    +0.000 A 
ATOM      3  C   UNL     1      47.502   5.886  13.424  0.00  0.00    +0.000 A 
ATOM      4  C   UNL     1      46.353   5.947  12.635  0.00  0.00    +0.000 A 
ATOM      5  C   UNL     1      45.991   7.143  12.028  0.00  0.00    +0.000 A 
ATOM      6  N   UNL     1      44.928   7.258  11.161  0.00  0.00    +0.000 N 
ATOM      7  N   UNL     1      46.725   8.264  12.190  0.00  0.00    +0.000 NA
ATOM      8  C   UNL     1      47.840   8.191  12.966  0.00  0.00    +0.000 A 
ATOM      9  H   UNL     1      44.843   8.231  10.888  0.00  0.00    +0.000 HD
BRANCH   2  11
ATOM     10  N   UNL     1      50.575   7.762  13.862  0.00  0.00    +0.000 N 
ATOM     11  C   UNL     1      49.526   7.045  14.372  0.00  0.00    +0.000 C 
ATOM     12  O   UNL     1      49.610   6.474  15.449  0.00  0.00    +0.000 OA
ATOM     13  H   UNL     1      51.396   7.842  14.452  0.00  0.00    +0.000 HD
ATOM     14  H   UNL     1      50.469   8.437  13.117  0.00  0.00    +0.000 HD
ENDBRANCH   2  11
ENDBRANCH   1   6
BRANCH   1  15
ATOM     15  C   UNL     1      43.740   5.086  10.940  0.00  0.00    +0.000 A 
ATOM     16  C   UNL     1      43.049   4.130  11.675  0.00  0.00    +0.000 A 
ATOM     17  N   UNL     1      43.114   2.801  11.446  0.00  0.00    +0.000 NA
ATOM     18  C   UNL     1      43.912   2.399  10.427  0.00  0.00    +0.000 A 
ATOM     19  C   UNL     1      44.669   3.245   9.615  0.00  0.00    +0.000 A 
ATOM     20  C   UNL     1      44.566   4.615   9.910  0.00  0.00    +0.000 A 
BRANCH  19  21
ATOM     21  C   UNL     1      45.530   2.743   8.522  0.00  0.00    +0.000 A 
ATOM     22  C   UNL     1      45.985   3.598   7.496  0.00  0.00    +0.000 A 
ATOM     23  C   UNL     1      46.810   3.137   6.463  0.00  0.00    +0.000 A 
ATOM     24  C   UNL     1      47.191   1.801   6.425  0.00  0.00    +0.000 A 
ATOM     25  C   UNL     1      46.749   0.943   7.421  0.00  0.00    +0.000 A 
ATOM     26  F   UNL     1      47.110  -0.345   7.388  0.00  0.00    +0.000 F 
ATOM     27  C   UNL     1      45.937   1.397   8.460  0.00  0.00    +0.000 A 
ENDBRANCH  19  21
ENDBRANCH   1  15
TORSDOF 4
ENDMDL
MODEL 3
REMARK VINA RESULT:    -8.560      2.649      3.556
REMARK INTER + INTRA:         -11.233
REMARK INTER:                 -10.523
REMARK INTRA:                  -0.710
REMARK UNBOUND:                -0.672
REMARK  Name = 
REMARK  4 active torsions:
REMARK  status: ('A' for Active; 'I' for Inactive)
REMARK    1  A    between atoms: C_2  and  C_4
REMARK    2  A    between atoms: N_8  and  C_9
REMARK    3  A    between atoms: C_9  and  C_10
REMARK    4  A    between atoms: C_14  and  C_15
REMARK                            x       y       z     vdW  Elec       q    Type
REMARK                         _______ _______ _______ _____ _____    ______ ____
ROOT
ATOM      1  C   UNL     1      43.658   4.764  11.161  0.00  0.00    +0.000 C 
ENDROOT
BRANCH   1   6
ATOM      2  C   UNL     1      46.405   2.273   7.613  0.00  0.00    +0.000 A 
ATOM      3  C   UNL     1      45.806   1.771   8.763  0.00  0.00    +0.000 A 
ATOM      4  C   UNL     1      44.962   2.597   9.506  0.00  0.00    +0.000 A 
ATOM      5  C   UNL     1      44.737   3.907   9.097  0.00  0.00    +0.000 A 
ATOM      6  N   UNL     1      43.845   4.750   9.721  0.00  0.00    +0.000 N 
ATOM      7  N   UNL     1      45.327   4.410   7.993  0.00  0.00    +0.000 NA
ATOM      8  C   UNL     1      46.152   3.594   7.282  0.00  0.00    +0.000 A 
ATOM      9  H   UNL     1      43.893   5.655   9.269  0.00  0.00    +0.000 HD
BRANCH   2  11
ATOM     10  N   UNL     1      48.285   2.115   6.085  0.00  0.00    +0.000 N 
ATOM     11  C   UNL     1      47.285   1.458   6.750  0.00  0.00    +0.000 C 
ATOM     12  O   UNL     1      47.150   0.247   6.660  0.00  0.00    +0.000 OA
ATOM     13  H   UNL     1      48.939   1.539   5.567  0.00  0.00    +0.000 HD
ATOM     14  H   UNL     1      48.578   3.054   6.321  0.00  0.00    +0.000 HD
ENDBRANCH   2  11
ENDBRANCH   1   6
BRANCH   1  15
ATOM     15  C   UNL     1      44.656   5.613  11.907  0.00  0.00    +0.000 A 
ATOM     16  C   UNL     1      44.960   6.890  11.448  0.00  0.00    +0.000 A 
ATOM     17  N   UNL     1      45.905   7.687  11.990  0.00  0.00    +0.000 NA
ATOM     18  C   UNL     1      46.588   7.186  13.049  0.00  0.00    +0.000 A 
ATOM     19  C   UNL     1      46.396   5.921  13.605  0.00  0.00    +0.000 A 
ATOM     20  C   UNL     1      45.405   5.136  12.991  0.00  0.00    +0.000 A 
BRANCH  19  21
ATOM     21  C   UNL     1      47.182   5.427  14.757  0.00  0.00    +0.000 A 
ATOM     22  C   UNL     1      48.279   6.156  15.262  0.00  0.00    +0.000 A 
ATOM     23  C   UNL     1      49.023   5.705  16.359  0.00  0.00    +0.000 A 
ATOM     24  C   UNL     1      48.692   4.502  16.972  0.00  0.00    +0.000 A 
ATOM     25  C   UNL     1      47.620   3.768  16.486  0.00  0.00    +0.000 A 
ATOM     26  F   UNL     1      47.300   2.607  17.070  0.00  0.00    +0.000 F 
ATOM     27  C   UNL     1      46.868   4.216  15.402  0.00  0.00    +0.000 A 
ENDBRANCH  19  21
ENDBRANCH   1  15
TORSDOF 4
ENDMDL
MODEL 4
REMARK VINA RESULT:    -8.391      4.189      7.404
REMARK INTER + INTRA:         -11.026
REMARK INTER:                 -10.511
REMARK INTRA:                  -0.515
REMARK UNBOUND:                -0.672
REMARK  Name = 
REMARK  4 active torsions:
REMARK  status: ('A' for Active; 'I' for Inactive)
REMARK    1  A    between atoms: C_2  and  C_4
REMARK    2  A    between atoms: N_8  and  C_9
REMARK    3  A    between atoms: C_9  and  C_10
REMARK    4  A    between atoms: C_14  and  C_15
REMARK                            x       y       z     vdW  Elec       q    Type
REMARK                         _______ _______ _______ _____ _____    ______ ____
ROOT
ATOM      1  C   UNL     1      44.885   6.796  11.445  0.00  0.00    +0.000 C 
ENDROOT
BRANCH   1   6
ATOM      2  C   UNL     1      47.929   5.509  15.371  0.00  0.00    +0.000 A 
ATOM      3  C   UNL     1      46.905   4.774  14.784  0.00  0.00    +0.000 A 
ATOM      4  C   UNL     1      46.312   5.249  13.614  0.00  0.00    +0.000 A 
ATOM      5  C   UNL     1      46.739   6.449  13.057  0.00  0.00    +0.000 A 
ATOM      6  N   UNL     1      46.270   6.934  11.856  0.00  0.00    +0.000 N 
ATOM      7  N   UNL     1      47.719   7.180  13.629  0.00  0.00    +0.000 NA
ATOM      8  C   UNL     1      48.284   6.707  14.772  0.00  0.00    +0.000 A 
ATOM      9  H   UNL     1      46.698   7.837  11.689  0.00  0.00    +0.000 HD
BRANCH   2  11
ATOM     10  N   UNL     1      47.868   4.530  17.592  0.00  0.00    +0.000 N 
ATOM     11  C   UNL     1      48.634   5.063  16.591  0.00  0.00    +0.000 C 
ATOM     12  O   UNL     1      49.849   5.135  16.690  0.00  0.00    +0.000 OA
ATOM     13  H   UNL     1      48.367   4.145  18.387  0.00  0.00    +0.000 HD
ATOM     14  H   UNL     1      46.912   4.231  17.453  0.00  0.00    +0.000 HD
ENDBRANCH   2  11
ENDBRANCH   1   6
BRANCH   1  15
ATOM     15  C   UNL     1      44.536   5.439  10.888  0.00  0.00    +0.000 A 
ATOM     16  C   UNL     1      43.497   4.705  11.448  0.00  0.00    +0.000 A 
ATOM     17  N   UNL     1      43.172   3.447  11.084  0.00  0.00    +0.000 NA
ATOM     18  C   UNL     1      43.923   2.885  10.105  0.00  0.00    +0.000 A 
ATOM     19  C   UNL     1      44.999   3.500   9.463  0.00  0.00    +0.000 A 
ATOM     20  C   UNL     1      45.293   4.804   9.894  0.00  0.00    +0.000 A 
BRANCH  19  21
ATOM     21  C   UNL     1      45.787   2.829   8.405  0.00  0.00    +0.000 A 
ATOM     22  C   UNL     1      46.361   3.560   7.344  0.00  0.00    +0.000 A 
ATOM     23  C   UNL     1      47.119   2.937   6.345  0.00  0.00    +0.000 A 
ATOM     24  C   UNL     1      47.311   1.561   6.377  0.00  0.00    +0.000 A 
ATOM     25  C   UNL     1      46.749   0.824   7.409  0.00  0.00    +0.000 A 
ATOM     26  F   UNL     1      46.928  -0.502   7.444  0.00  0.00    +0.000 F 
ATOM     27  C   UNL     1      46.003   1.438   8.414  0.00  0.00    +0.000 A 
ENDBRANCH  19  21
ENDBRANCH   1  15
TORSDOF 4
ENDMDL
MODEL 5
REMARK VINA RESULT:    -8.365      3.846      6.999
REMARK INTER + INTRA:         -10.994
REMARK INTER:                 -10.257
REMARK INTRA:                  -0.737
REMARK UNBOUND:                -0.672
REMARK  Name = 
REMARK  4 active torsions:
REMARK  status: ('A' for Active; 'I' for Inactive)
REMARK    1  A    between atoms: C_2  and  C_4
REMARK    2  A    between atoms: N_8  and  C_9
REMARK    3  A    between atoms: C_9  and  C_10
REMARK    4  A    between atoms: C_14  and  C_15
REMARK                            x       y       z     vdW  Elec       q    Type
REMARK                         _______ _______ _______ _____ _____    ______ ____
ROOT
ATOM      1  C   UNL     1      44.450   6.091  12.513  0.00  0.00    +0.000 C 
ENDROOT
BRANCH   1   6
ATOM      2  C   UNL     1      49.262   7.853  12.244  0.00  0.00    +0.000 A 
ATOM      3  C   UNL     1      48.085   8.466  11.831  0.00  0.00    +0.000 A 
ATOM      4  C   UNL     1      46.862   7.875  12.151  0.00  0.00    +0.000 A 
ATOM      5  C   UNL     1      46.833   6.683  12.866  0.00  0.00    +0.000 A 
ATOM      6  N   UNL     1      45.669   6.092  13.301  0.00  0.00    +0.000 N 
ATOM      7  N   UNL     1      47.970   6.071  13.257  0.00  0.00    +0.000 NA
ATOM      8  C   UNL     1      49.155   6.655  12.932  0.00  0.00    +0.000 A 
ATOM      9  H   UNL     1      45.906   5.218  13.757  0.00  0.00    +0.000 HD
BRANCH   2  11
ATOM     10  N   UNL     1      51.596   8.116  12.861  0.00  0.00    +0.000 N 
ATOM     11  C   UNL     1      50.598   8.427  11.977  0.00  0.00    +0.000 C 
ATOM     12  O   UNL     1      50.812   9.119  10.994  0.00  0.00    +0.000 OA
ATOM     13  H   UNL     1      52.527   8.438  12.623  0.00  0.00    +0.000 HD
ATOM     14  H   UNL     1      51.521   7.363  13.532  0.00  0.00    +0.000 HD
ENDBRANCH   2  11
ENDBRANCH   1   6
BRANCH   1  15
ATOM     15  C   UNL     1      44.222   4.825  11.726  0.00  0.00    +0.000 A 
ATOM     16  C   UNL     1      43.330   3.868  12.194  0.00  0.00    +0.000 A 
ATOM     17  N   UNL     1      43.130   2.666  11.613  0.00  0.00    +0.000 NA
ATOM     18  C   UNL     1      43.859   2.400  10.502  0.00  0.00    +0.000 A 
ATOM     19  C   UNL     1      44.796   3.260   9.929  0.00  0.00    +0.000 A 
ATOM     20  C   UNL     1      44.966   4.491  10.586  0.00  0.00    +0.000 A 
BRANCH  19  21
ATOM     21  C   UNL     1      45.570   2.907   8.718  0.00  0.00    +0.000 A 
ATOM     22  C   UNL     1      45.926   3.885   7.765  0.00  0.00    +0.000 A 
ATOM     23  C   UNL     1      46.668   3.565   6.622  0.00  0.00    +0.000 A 
ATOM     24  C   UNL     1      47.062   2.251   6.397  0.00  0.00    +0.000 A 
ATOM     25  C   UNL     1      46.714   1.274   7.319  0.00  0.00    +0.000 A 
ATOM     26  F   UNL     1      47.087   0.006   7.106  0.00  0.00    +0.000 F 
ATOM     27  C   UNL     1      45.986   1.587   8.466  0.00  0.00    +0.000 A 
ENDBRANCH  19  21
ENDBRANCH   1  15
TORSDOF 4
ENDMDL
MODEL 6
REMARK VINA RESULT:    -7.942      1.776      2.301
REMARK INTER + INTRA:         -10.472
REMARK INTER:                 -10.140
REMARK INTRA:                  -0.332
REMARK UNBOUND:                -0.672
REMARK  Name = 
REMARK  4 active torsions:
REMARK  status: ('A' for Active; 'I' for Inactive)
REMARK    1  A    between atoms: C_2  and  C_4
REMARK    2  A    between atoms: N_8  and  C_9
REMARK    3  A    between atoms: C_9  and  C_10
REMARK    4  A    between atoms: C_14  and  C_15
REMARK                            x       y       z     vdW  Elec       q    Type
REMARK                         _______ _______ _______ _____ _____    ______ ____
ROOT
ATOM      1  C   UNL     1      43.460   3.571  11.010  0.00  0.00    +0.000 C 
ENDROOT
BRANCH   1   6
ATOM      2  C   UNL     1      46.666   2.507   7.146  0.00  0.00    +0.000 A 
ATOM      3  C   UNL     1      46.226   3.746   7.598  0.00  0.00    +0.000 A 
ATOM      4  C   UNL     1      45.481   3.814   8.776  0.00  0.00    +0.000 A 
ATOM      5  C   UNL     1      45.180   2.651   9.476  0.00  0.00    +0.000 A 
ATOM      6  N   UNL     1      44.534   2.647  10.692  0.00  0.00    +0.000 N 
ATOM      7  N   UNL     1      45.586   1.442   9.036  0.00  0.00    +0.000 NA
ATOM      8  C   UNL     1      46.306   1.390   7.883  0.00  0.00    +0.000 A 
ATOM      9  H   UNL     1      44.393   1.684  10.974  0.00  0.00    +0.000 HD
BRANCH   2  11
ATOM     10  N   UNL     1      47.291   3.254   4.923  0.00  0.00    +0.000 N 
ATOM     11  C   UNL     1      47.487   2.347   5.928  0.00  0.00    +0.000 C 
ATOM     12  O   UNL     1      48.327   1.464   5.834  0.00  0.00    +0.000 OA
ATOM     13  H   UNL     1      47.919   3.192   4.129  0.00  0.00    +0.000 HD
ATOM     14  H   UNL     1      46.796   4.126   5.057  0.00  0.00    +0.000 HD
ENDBRANCH   2  11
ENDBRANCH   1   6
BRANCH   1  15
ATOM     15  C   UNL     1      43.922   4.965  11.350  0.00  0.00    +0.000 A 
ATOM     16  C   UNL     1      43.083   6.049  11.121  0.00  0.00    +0.000 A 
ATOM     17  N   UNL     1      43.440   7.338  11.302  0.00  0.00    +0.000 NA
ATOM     18  C   UNL     1      44.704   7.563  11.736  0.00  0.00    +0.000 A 
ATOM     19  C   UNL     1      45.654   6.575  11.996  0.00  0.00    +0.000 A 
ATOM     20  C   UNL     1      45.225   5.254  11.778  0.00  0.00    +0.000 A 
BRANCH  19  21
ATOM     21  C   UNL     1      47.025   6.886  12.459  0.00  0.00    +0.000 A 
ATOM     22  C   UNL     1      47.388   6.745  13.815  0.00  0.00    +0.000 A 
ATOM     23  C   UNL     1      48.685   7.025  14.264  0.00  0.00    +0.000 A 
ATOM     24  C   UNL     1      49.649   7.465  13.364  0.00  0.00    +0.000 A 
ATOM     25  C   UNL     1      49.308   7.616  12.028  0.00  0.00    +0.000 A 
ATOM     26  F   UNL     1      50.231   8.042  11.158  0.00  0.00    +0.000 F 
ATOM     27  C   UNL     1      48.023   7.328  11.572  0.00  0.00    +0.000 A 
ENDBRANCH  19  21
ENDBRANCH   1  15
TORSDOF 4
ENDMDL
MODEL 7
REMARK VINA RESULT:    -7.790      4.756      8.145
REMARK INTER + INTRA:         -10.284
REMARK INTER:                  -9.811
REMARK INTRA:                  -0.473
REMARK UNBOUND:                -0.672
REMARK  Name = 
REMARK  4 active torsions:
REMARK  status: ('A' for Active; 'I' for Inactive)
REMARK    1  A    between atoms: C_2  and  C_4
REMARK    2  A    between atoms: N_8  and  C_9
REMARK    3  A    between atoms: C_9  and  C_10
REMARK    4  A    between atoms: C_14  and  C_15
REMARK                            x       y       z     vdW  Elec       q    Type
REMARK                         _______ _______ _______ _____ _____    ______ ____
ROOT
ATOM      1  C   UNL     1      45.372   4.505  13.571  0.00  0.00    +0.000 C 
ENDROOT
BRANCH   1   6
ATOM      2  C   UNL     1      48.847   5.119  17.298  0.00  0.00    +0.000 A 
ATOM      3  C   UNL     1      47.876   4.133  17.164  0.00  0.00    +0.000 A 
ATOM      4  C   UNL     1      47.140   4.059  15.982  0.00  0.00    +0.000 A 
ATOM      5  C   UNL     1      47.375   4.972  14.960  0.00  0.00    +0.000 A 
ATOM      6  N   UNL     1      46.759   4.904  13.730  0.00  0.00    +0.000 N 
ATOM      7  N   UNL     1      48.303   5.944  15.085  0.00  0.00    +0.000 NA
ATOM      8  C   UNL     1      49.008   6.007  16.246  0.00  0.00    +0.000 A 
ATOM      9  H   UNL     1      47.061   5.698  13.179  0.00  0.00    +0.000 HD
BRANCH   2  11
ATOM     10  N   UNL     1      49.958   4.104  19.203  0.00  0.00    +0.000 N 
ATOM     11  C   UNL     1      49.694   5.249  18.501  0.00  0.00    +0.000 C 
ATOM     12  O   UNL     1      50.167   6.324  18.838  0.00  0.00    +0.000 OA
ATOM     13  H   UNL     1      50.611   4.186  19.974  0.00  0.00    +0.000 HD
ATOM     14  H   UNL     1      49.796   3.179  18.827  0.00  0.00    +0.000 HD
ENDBRANCH   2  11
ENDBRANCH   1   6
BRANCH   1  15
ATOM     15  C   UNL     1      44.879   4.535  12.147  0.00  0.00    +0.000 A 
ATOM     16  C   UNL     1      43.668   5.148  11.845  0.00  0.00    +0.000 A 
ATOM     17  N   UNL     1      43.098   5.144  10.622  0.00  0.00    +0.000 NA
ATOM     18  C   UNL     1      43.770   4.493   9.641  0.00  0.00    +0.000 A 
ATOM     19  C   UNL     1      44.985   3.827   9.803  0.00  0.00    +0.000 A 
ATOM     20  C   UNL     1      45.522   3.859  11.102  0.00  0.00    +0.000 A 
BRANCH  19  21
ATOM     21  C   UNL     1      45.666   3.124   8.693  0.00  0.00    +0.000 A 
ATOM     22  C   UNL     1      46.150   3.827   7.569  0.00  0.00    +0.000 A 
ATOM     23  C   UNL     1      46.807   3.175   6.518  0.00  0.00    +0.000 A 
ATOM     24  C   UNL     1      46.984   1.797   6.561  0.00  0.00    +0.000 A 
ATOM     25  C   UNL     1      46.509   1.088   7.655  0.00  0.00    +0.000 A 
ATOM     26  F   UNL     1      46.674  -0.240   7.700  0.00  0.00    +0.000 F 
ATOM     27  C   UNL     1      45.865   1.732   8.711  0.00  0.00    +0.000 A 
ENDBRANCH  19  21
ENDBRANCH   1  15
TORSDOF 4
ENDMDL
MODEL 8
REMARK VINA RESULT:    -7.240      3.726      7.249
REMARK INTER + INTRA:          -9.605
REMARK INTER:                  -8.995
REMARK INTRA:                  -0.610
REMARK UNBOUND:                -0.672
REMARK  Name = 
REMARK  4 active torsions:
REMARK  status: ('A' for Active; 'I' for Inactive)
REMARK    1  A    between atoms: C_2  and  C_4
REMARK    2  A    between atoms: N_8  and  C_9
REMARK    3  A    between atoms: C_9  and  C_10
REMARK    4  A    between atoms: C_14  and  C_15
REMARK                            x       y       z     vdW  Elec       q    Type
REMARK                         _______ _______ _______ _____ _____    ______ ____
ROOT
ATOM      1  C   UNL     1      45.047   7.458  11.802  0.00  0.00    +0.000 C 
ENDROOT
BRANCH   1   6
ATOM      2  C   UNL     1      49.907   8.181  13.283  0.00  0.00    +0.000 A 
ATOM      3  C   UNL     1      49.157   8.909  12.367  0.00  0.00    +0.000 A 
ATOM      4  C   UNL     1      47.794   8.639  12.236  0.00  0.00    +0.000 A 
ATOM      5  C   UNL     1      47.206   7.645  13.009  0.00  0.00    +0.000 A 
ATOM      6  N   UNL     1      45.854   7.387  13.006  0.00  0.00    +0.000 N 
ATOM      7  N   UNL     1      47.928   6.919  13.888  0.00  0.00    +0.000 NA
ATOM      8  C   UNL     1      49.257   7.189  14.001  0.00  0.00    +0.000 A 
ATOM      9  H   UNL     1      45.680   6.595  13.614  0.00  0.00    +0.000 HD
BRANCH   2  11
ATOM     10  N   UNL     1      51.747   8.624  14.803  0.00  0.00    +0.000 N 
ATOM     11  C   UNL     1      51.347   8.423  13.510  0.00  0.00    +0.000 C 
ATOM     12  O   UNL     1      52.150   8.411  12.590  0.00  0.00    +0.000 OA
ATOM     13  H   UNL     1      52.747   8.699  14.960  0.00  0.00    +0.000 HD
ATOM     14  H   UNL     1      51.167   8.398  15.600  0.00  0.00    +0.000 HD
ENDBRANCH   2  11
ENDBRANCH   1   6
BRANCH   1  15
ATOM     15  C   UNL     1      44.553   6.122  11.307  0.00  0.00    +0.000 A 
ATOM     16  C   UNL     1      43.481   5.502  11.937  0.00  0.00    +0.000 A 
ATOM     17  N   UNL     1      43.029   4.268  11.630  0.00  0.00    +0.000 NA
ATOM     18  C   UNL     1      43.680   3.612  10.639  0.00  0.00    +0.000 A 
ATOM     19  C   UNL     1      44.775   4.107   9.930  0.00  0.00    +0.000 A 
ATOM     20  C   UNL     1      45.204   5.392  10.303  0.00  0.00    +0.000 A 
BRANCH  19  21
ATOM     21  C   UNL     1      45.451   3.336   8.863  0.00  0.00    +0.000 A 
ATOM     22  C   UNL     1      45.654   1.945   8.980  0.00  0.00    +0.000 A 
ATOM     23  C   UNL     1      46.281   1.203   7.972  0.00  0.00    +0.000 A 
ATOM     24  C   UNL     1      46.733   1.841   6.823  0.00  0.00    +0.000 A 
ATOM     25  C   UNL     1      46.550   3.210   6.692  0.00  0.00    +0.000 A 
ATOM     26  F   UNL     1      46.986   3.830   5.589  0.00  0.00    +0.000 F 
ATOM     27  C   UNL     1      45.915   3.953   7.687  0.00  0.00    +0.000 A 
ENDBRANCH  19  21
ENDBRANCH   1  15
TORSDOF 4
ENDMDL
MODEL 9
REMARK VINA RESULT:    -6.881      2.308      2.881
REMARK INTER + INTRA:          -9.163
REMARK INTER:                  -8.543
REMARK INTRA:                  -0.620
REMARK UNBOUND:                -0.672
REMARK  Name = 
REMARK  4 active torsions:
REMARK  status: ('A' for Active; 'I' for Inactive)
REMARK    1  A    between atoms: C_2  and  C_4
REMARK    2  A    between atoms: N_8  and  C_9
REMARK    3  A    between atoms: C_9  and  C_10
REMARK    4  A    between atoms: C_14  and  C_15
REMARK                            x       y       z     vdW  Elec       q    Type
REMARK                         _______ _______ _______ _____ _____    ______ ____
ROOT
ATOM      1  C   UNL     1      43.418   5.374  11.220  0.00  0.00    +0.000 C 
ENDROOT
BRANCH   1   6
ATOM      2  C   UNL     1      46.269   2.969   7.694  0.00  0.00    +0.000 A 
ATOM      3  C   UNL     1      46.167   4.331   7.953  0.00  0.00    +0.000 A 
ATOM      4  C   UNL     1      45.455   4.760   9.074  0.00  0.00    +0.000 A 
ATOM      5  C   UNL     1      44.849   3.828   9.908  0.00  0.00    +0.000 A 
ATOM      6  N   UNL     1      44.212   4.167  11.081  0.00  0.00    +0.000 N 
ATOM      7  N   UNL     1      44.925   2.505   9.656  0.00  0.00    +0.000 NA
ATOM      8  C   UNL     1      45.618   2.102   8.557  0.00  0.00    +0.000 A 
ATOM      9  H   UNL     1      43.818   3.324  11.484  0.00  0.00    +0.000 HD
BRANCH   2  11
ATOM     10  N   UNL     1      48.082   1.601   6.839  0.00  0.00    +0.000 N 
ATOM     11  C   UNL     1      47.031   2.428   6.550  0.00  0.00    +0.000 C 
ATOM     12  O   UNL     1      46.718   2.679   5.396  0.00  0.00    +0.000 OA
ATOM     13  H   UNL     1      48.543   1.162   6.049  0.00  0.00    +0.000 HD
ATOM     14  H   UNL     1      48.216   1.179   7.748  0.00  0.00    +0.000 HD
ENDBRANCH   2  11
ENDBRANCH   1   6
BRANCH   1  15
ATOM     15  C   UNL     1      44.210   6.595  11.611  0.00  0.00    +0.000 A 
ATOM     16  C   UNL     1      43.819   7.850  11.160  0.00  0.00    +0.000 A 
ATOM     17  N   UNL     1      44.514   8.987  11.376  0.00  0.00    +0.000 NA
ATOM     18  C   UNL     1      45.665   8.870  12.082  0.00  0.00    +0.000 A 
ATOM     19  C   UNL     1      46.183   7.676  12.585  0.00  0.00    +0.000 A 
ATOM     20  C   UNL     1      45.419   6.527  12.318  0.00  0.00    +0.000 A 
BRANCH  19  21
ATOM     21  C   UNL     1      47.453   7.612  13.342  0.00  0.00    +0.000 A 
ATOM     22  C   UNL     1      48.492   8.537  13.109  0.00  0.00    +0.000 A 
ATOM     23  C   UNL     1      49.693   8.494  13.827  0.00  0.00    +0.000 A 
ATOM     24  C   UNL     1      49.889   7.512  14.791  0.00  0.00    +0.000 A 
ATOM     25  C   UNL     1      48.881   6.588  15.029  0.00  0.00    +0.000 A 
ATOM     26  F   UNL     1      49.065   5.638  15.953  0.00  0.00    +0.000 F 
ATOM     27  C   UNL     1      47.678   6.632  14.326  0.00  0.00    +0.000 A 
ENDBRANCH  19  21
ENDBRANCH   1  15
TORSDOF 4
ENDMDL
