MODEL 1
REMARK VINA RESULT:    -8.185      0.000      0.000
REMARK INTER + INTRA:         -13.031
REMARK INTER:                 -11.773
REMARK INTRA:                  -1.258
REMARK UNBOUND:                -1.258
REMARK  Name = 
REMARK  8 active torsions:
REMARK  status: ('A' for Active; 'I' for Inactive)
REMARK    1  A    between atoms: N_1  and  C_2
REMARK    2  A    between atoms: C_2  and  C_3
REMARK    3  A    between atoms: C_3  and  N_4
REMARK    4  A    between atoms: C_3  and  C_27
REMARK    5  A    between atoms: C_5  and  C_7
REMARK    6  A    between atoms: C_10  and  C_11
REMARK    7  A    between atoms: C_11  and  N_12
REMARK    8  A    between atoms: C_13  and  C_15
REMARK                            x       y       z     vdW  Elec       q    Type
REMARK                         _______ _______ _______ _____ _____    ______ ____
ROOT
ATOM      1  C   UNL     1      46.452   6.524  12.765  0.00  0.00    +0.000 A 
ATOM      2  C   UNL     1      46.687   7.839  13.100  0.00  0.00    +0.000 A 
ATOM      3  N   UNL     1      47.669   8.239  13.937  0.00  0.00    +0.000 NA
ATOM      4  C   UNL     1      48.445   7.271  14.466  0.00  0.00    +0.000 A 
ATOM      5  N   UNL     1      48.260   5.950  14.252  0.00  0.00    +0.000 NA
ATOM      6  C   UNL     1      47.257   5.607  13.402  0.00  0.00    +0.000 A 
ENDROOT
BRANCH   1   8
ATOM      7  N   UNL     1      45.397   4.778  11.474  0.00  0.00    +0.000 N 
ATOM      8  C   UNL     1      45.400   6.105  11.818  0.00  0.00    +0.000 C 
ATOM      9  O   UNL     1      44.600   6.931  11.385  0.00  0.00    +0.000 OA
ATOM     10  H   UNL     1      45.980   4.093  11.945  0.00  0.00    +0.000 HD
BRANCH   7  11
ATOM     11  C   UNL     1      44.424   4.190  10.557  0.00  0.00    +0.000 C 
BRANCH  11  12
ATOM     12  C   UNL     1      45.166   3.523   9.400  0.00  0.00    +0.000 A 
ATOM     13  C   UNL     1      45.695   4.301   8.373  0.00  0.00    +0.000 A 
ATOM     14  C   UNL     1      46.344   3.668   7.317  0.00  0.00    +0.000 A 
ATOM     15  C   UNL     1      46.450   2.282   7.313  0.00  0.00    +0.000 A 
ATOM     16  C   UNL     1      45.896   1.580   8.370  0.00  0.00    +0.000 A 
ATOM     17  N   UNL     1      45.255   2.162   9.408  0.00  0.00    +0.000 NA
ENDBRANCH  11  12
BRANCH  11  18
ATOM     18  C   UNL     1      43.517   3.140  11.252  0.00  0.00    +0.000 C 
BRANCH  18  19
ATOM     19  N   UNL     1      44.090   2.532  12.459  0.00  0.00    +0.000 NA
ATOM     20  H   UNL     1      44.821   1.869  12.204  0.00  0.00    +0.000 HD
ATOM     21  H   UNL     1      43.370   2.012  12.966  0.00  0.00    +0.000 HD
ENDBRANCH  18  19
ENDBRANCH  11  18
ENDBRANCH   7  11
ENDBRANCH   1   8
BRANCH   4  22
ATOM     22  C   UNL     1      49.607   7.717  15.330  0.00  0.00    +0.000 C 
BRANCH  22  23
ATOM     23  N   UNL     1      50.322   6.631  15.970  0.00  0.00    +0.000 N 
ATOM     24  C   UNL     1      50.010   6.272  17.257  0.00  0.00    +0.000 C 
ATOM     25  O   UNL     1      49.125   6.850  17.884  0.00  0.00    +0.000 OA
ATOM     26  H   UNL     1      50.848   5.998  15.373  0.00  0.00    +0.000 HD
BRANCH  24  27
ATOM     27  C   UNL     1      50.836   5.235  17.886  0.00  0.00    +0.000 A 
ATOM     28  C   UNL     1      51.838   5.591  18.780  0.00  0.00    +0.000 A 
ATOM     29  S   UNL     1      52.899   4.306  19.151  0.00  0.00    +0.000 S 
ATOM     30  C   UNL     1      52.008   3.225  18.187  0.00  0.00    +0.000 A 
ATOM     31  N   UNL     1      52.433   1.953  17.965  0.00  0.00    +0.000 NA
ATOM     32  C   UNL     1      51.620   1.236  17.262  0.00  0.00    +0.000 A 
ATOM     33  N   UNL     1      50.399   1.660  16.804  0.00  0.00    +0.000 N 
ATOM     34  C   UNL     1      49.921   2.928  17.025  0.00  0.00    +0.000 A 
ATOM     35  O   UNL     1      48.786   3.257  16.694  0.00  0.00    +0.000 OA
ATOM     36  C   UNL     1      50.851   3.808  17.700  0.00  0.00    +0.000 A 
ATOM     37  H   UNL     1      49.775   1.024  16.330  0.00  0.00    +0.000 HD
ENDBRANCH  24  27
ENDBRANCH  22  23
ENDBRANCH   4  22
TORSDOF 8
ENDMDL
MODEL 2
REMARK VINA RESULT:    -8.014      2.203      2.935
REMARK INTER + INTRA:         -12.786
REMARK INTER:                 -11.654
REMARK INTRA:                  -1.131
REMARK UNBOUND:                -1.258
REMARK  Name = 
REMARK  8 active torsions:
REMARK  status: ('A' for Active; 'I' for Inactive)
REMARK    1  A    between atoms: N_1  and  C_2
REMARK    2  A    between atoms: C_2  and  C_3
REMARK    3  A    between atoms: C_3  and  N_4
REMARK    4  A    between atoms: C_3  and  C_27
REMARK    5  A    between atoms: C_5  and  C_7
REMARK    6  A    between atoms: C_10  and  C_11
REMARK    7  A    between atoms: C_11  and  N_12
REMARK    8  A    between atoms: C_13  and  C_15
REMARK                            x       y       z     vdW  Elec       q    Type
REMARK                         _______ _______ _______ _____ _____    ______ ____
ROOT
ATOM      1  C   UNL     1      45.179   6.388  11.459  0.00  0.00    +0.000 A 
ATOM      2  C   UNL     1      46.485   6.190  11.849  0.00  0.00    +0.000 A 
ATOM      3  N   UNL     1      47.215   7.101  12.527  0.00  0.00    +0.000 NA
ATOM      4  C   UNL     1      46.605   8.268  12.821  0.00  0.00    +0.000 A 
ATOM      5  N   UNL     1      45.351   8.587  12.432  0.00  0.00    +0.000 NA
ATOM      6  C   UNL     1      44.665   7.631  11.752  0.00  0.00    +0.000 A 
ENDROOT
BRANCH   1   8
ATOM      7  N   UNL     1      45.085   4.312  10.230  0.00  0.00    +0.000 N 
ATOM      8  C   UNL     1      44.381   5.367  10.752  0.00  0.00    +0.000 C 
ATOM      9  O   UNL     1      43.163   5.497  10.656  0.00  0.00    +0.000 OA
ATOM     10  H   UNL     1      46.067   4.160  10.436  0.00  0.00    +0.000 HD
BRANCH   7  11
ATOM     11  C   UNL     1      44.458   3.210   9.507  0.00  0.00    +0.000 C 
BRANCH  11  12
ATOM     12  C   UNL     1      45.434   2.678   8.459  0.00  0.00    +0.000 A 
ATOM     13  C   UNL     1      45.816   3.488   7.391  0.00  0.00    +0.000 A 
ATOM     14  C   UNL     1      46.686   2.972   6.436  0.00  0.00    +0.000 A 
ATOM     15  C   UNL     1      47.153   1.670   6.569  0.00  0.00    +0.000 A 
ATOM     16  C   UNL     1      46.725   0.929   7.658  0.00  0.00    +0.000 A 
ATOM     17  N   UNL     1      45.878   1.397   8.601  0.00  0.00    +0.000 NA
ENDBRANCH  11  12
BRANCH  11  18
ATOM     18  C   UNL     1      44.041   2.048  10.448  0.00  0.00    +0.000 C 
BRANCH  18  19
ATOM     19  N   UNL     1      43.049   2.407  11.469  0.00  0.00    +0.000 NA
ATOM     20  H   UNL     1      42.174   1.914  11.296  0.00  0.00    +0.000 HD
ATOM     21  H   UNL     1      42.848   3.409  11.425  0.00  0.00    +0.000 HD
ENDBRANCH  18  19
ENDBRANCH  11  18
ENDBRANCH   7  11
ENDBRANCH   1   8
BRANCH   4  22
ATOM     22  C   UNL     1      47.384   9.258  13.662  0.00  0.00    +0.000 C 
BRANCH  22  23
ATOM     23  N   UNL     1      47.511   8.881  15.057  0.00  0.00    +0.000 N 
ATOM     24  C   UNL     1      48.704   8.393  15.526  0.00  0.00    +0.000 C 
ATOM     25  O   UNL     1      49.680   8.272  14.789  0.00  0.00    +0.000 OA
ATOM     26  H   UNL     1      46.807   9.228  15.704  0.00  0.00    +0.000 HD
BRANCH  24  27
ATOM     27  C   UNL     1      48.743   7.934  16.920  0.00  0.00    +0.000 A 
ATOM     28  C   UNL     1      48.714   8.859  17.957  0.00  0.00    +0.000 A 
ATOM     29  S   UNL     1      49.098   8.182  19.476  0.00  0.00    +0.000 S 
ATOM     30  C   UNL     1      49.241   6.627  18.803  0.00  0.00    +0.000 A 
ATOM     31  N   UNL     1      49.666   5.567  19.542  0.00  0.00    +0.000 NA
ATOM     32  C   UNL     1      49.666   4.442  18.906  0.00  0.00    +0.000 A 
ATOM     33  N   UNL     1      49.232   4.272  17.617  0.00  0.00    +0.000 N 
ATOM     34  C   UNL     1      48.774   5.309  16.843  0.00  0.00    +0.000 A 
ATOM     35  O   UNL     1      48.298   5.122  15.728  0.00  0.00    +0.000 OA
ATOM     36  C   UNL     1      48.873   6.611  17.469  0.00  0.00    +0.000 A 
ATOM     37  H   UNL     1      49.181   3.352  17.205  0.00  0.00    +0.000 HD
ENDBRANCH  24  27
ENDBRANCH  22  23
ENDBRANCH   4  22
TORSDOF 8
ENDMDL
MODEL 3
REMARK VINA RESULT:    -7.569      3.383      4.503
REMARK INTER + INTRA:         -12.146
REMARK INTER:                 -10.971
REMARK INTRA:                  -1.175
REMARK UNBOUND:                -1.258
REMARK  Name = 
REMARK  8 active torsions:
REMARK  status: ('A' for Active; 'I' for Inactive)
REMARK    1  A    between atoms: N_1  and  C_2
REMARK    2  A    between atoms: C_2  and  C_3
REMARK    3  A    between atoms: C_3  and  N_4
REMARK    4  A    between atoms: C_3  and  C_27
REMARK    5  A    between atoms: C_5  and  C_7
REMARK    6  A    between atoms: C_10  and  C_11
REMARK    7  A    between atoms: C_11  and  N_12
REMARK    8  A    between atoms: C_13  and  C_15
REMARK                            x       y       z     vdW  Elec       q    Type
REMARK                         _______ _______ _______ _____ _____    ______ ____
ROOT
ATOM      1  C   UNL     1      45.327   6.426  11.494  0.00  0.00    +0.000 A 
ATOM      2  C   UNL     1      46.704   6.397  11.495  0.00  0.00    +0.000 A 
ATOM      3  N   UNL     1      47.476   7.303  12.133  0.00  0.00    +0.000 NA
ATOM      4  C   UNL     1      46.833   8.287  12.794  0.00  0.00    +0.000 A 
ATOM      5  N   UNL     1      45.491   8.442  12.805  0.00  0.00    +0.000 NA
ATOM      6  C   UNL     1      44.766   7.501  12.145  0.00  0.00    +0.000 A 
ENDROOT
BRANCH   1   8
ATOM      7  N   UNL     1      45.177   4.374  10.232  0.00  0.00    +0.000 N 
ATOM      8  C   UNL     1      44.497   5.406  10.825  0.00  0.00    +0.000 C 
ATOM      9  O   UNL     1      43.272   5.518  10.818  0.00  0.00    +0.000 OA
ATOM     10  H   UNL     1      46.174   4.233  10.365  0.00  0.00    +0.000 HD
BRANCH   7  11
ATOM     11  C   UNL     1      44.517   3.275   9.533  0.00  0.00    +0.000 C 
BRANCH  11  12
ATOM     12  C   UNL     1      45.463   2.716   8.471  0.00  0.00    +0.000 A 
ATOM     13  C   UNL     1      45.840   3.509   7.390  0.00  0.00    +0.000 A 
ATOM     14  C   UNL     1      46.682   2.969   6.423  0.00  0.00    +0.000 A 
ATOM     15  C   UNL     1      47.125   1.659   6.559  0.00  0.00    +0.000 A 
ATOM     16  C   UNL     1      46.704   0.935   7.661  0.00  0.00    +0.000 A 
ATOM     17  N   UNL     1      45.883   1.427   8.616  0.00  0.00    +0.000 NA
ENDBRANCH  11  12
BRANCH  11  18
ATOM     18  C   UNL     1      44.098   2.130  10.494  0.00  0.00    +0.000 C 
BRANCH  18  19
ATOM     19  N   UNL     1      43.063   2.492  11.469  0.00  0.00    +0.000 NA
ATOM     20  H   UNL     1      43.370   3.288  12.027  0.00  0.00    +0.000 HD
ATOM     21  H   UNL     1      42.900   1.714  12.113  0.00  0.00    +0.000 HD
ENDBRANCH  18  19
ENDBRANCH  11  18
ENDBRANCH   7  11
ENDBRANCH   1   8
BRANCH   4  22
ATOM     22  C   UNL     1      47.688   9.252  13.590  0.00  0.00    +0.000 C 
BRANCH  22  23
ATOM     23  N   UNL     1      47.659   9.030  15.022  0.00  0.00    +0.000 N 
ATOM     24  C   UNL     1      48.698   8.374  15.632  0.00  0.00    +0.000 C 
ATOM     25  O   UNL     1      49.666   7.974  14.990  0.00  0.00    +0.000 OA
ATOM     26  H   UNL     1      47.008   9.585  15.572  0.00  0.00    +0.000 HD
BRANCH  24  27
ATOM     27  C   UNL     1      48.566   8.089  17.067  0.00  0.00    +0.000 A 
ATOM     28  C   UNL     1      48.853   6.820  17.552  0.00  0.00    +0.000 A 
ATOM     29  S   UNL     1      48.332   6.579  19.160  0.00  0.00    +0.000 S 
ATOM     30  C   UNL     1      47.776   8.182  19.273  0.00  0.00    +0.000 A 
ATOM     31  N   UNL     1      47.101   8.626  20.368  0.00  0.00    +0.000 NA
ATOM     32  C   UNL     1      46.797   9.881  20.330  0.00  0.00    +0.000 A 
ATOM     33  N   UNL     1      47.148  10.743  19.323  0.00  0.00    +0.000 N 
ATOM     34  C   UNL     1      47.848  10.342  18.212  0.00  0.00    +0.000 A 
ATOM     35  O   UNL     1      48.240  11.144  17.371  0.00  0.00    +0.000 OA
ATOM     36  C   UNL     1      48.103   8.918  18.148  0.00  0.00    +0.000 A 
ATOM     37  H   UNL     1      46.951  11.729  19.394  0.00  0.00    +0.000 HD
ENDBRANCH  24  27
ENDBRANCH  22  23
ENDBRANCH   4  22
TORSDOF 8
ENDMDL
MODEL 4
REMARK VINA RESULT:    -6.811      1.878      2.763
REMARK INTER + INTRA:         -11.055
REMARK INTER:                 -10.193
REMARK INTRA:                  -0.861
REMARK UNBOUND:                -1.258
REMARK  Name = 
REMARK  8 active torsions:
REMARK  status: ('A' for Active; 'I' for Inactive)
REMARK    1  A    between atoms: N_1  and  C_2
REMARK    2  A    between atoms: C_2  and  C_3
REMARK    3  A    between atoms: C_3  and  N_4
REMARK    4  A    between atoms: C_3  and  C_27
REMARK    5  A    between atoms: C_5  and  C_7
REMARK    6  A    between atoms: C_10  and  C_11
REMARK    7  A    between atoms: C_11  and  N_12
REMARK    8  A    between atoms: C_13  and  C_15
REMARK                            x       y       z     vdW  Elec       q    Type
REMARK                         _______ _______ _______ _____ _____    ______ ____
ROOT
ATOM      1  C   UNL     1      47.489   5.510  14.324  0.00  0.00    +0.000 A 
ATOM      2  C   UNL     1      47.008   4.343  14.876  0.00  0.00    +0.000 A 
ATOM      3  N   UNL     1      47.284   3.937  16.135  0.00  0.00    +0.000 NA
ATOM      4  C   UNL     1      48.085   4.737  16.868  0.00  0.00    +0.000 A 
ATOM      5  N   UNL     1      48.658   5.869  16.401  0.00  0.00    +0.000 NA
ATOM      6  C   UNL     1      48.345   6.227  15.128  0.00  0.00    +0.000 A 
ENDROOT
BRANCH   1   8
ATOM      7  N   UNL     1      45.860   5.718  12.554  0.00  0.00    +0.000 N 
ATOM      8  C   UNL     1      47.147   5.960  12.961  0.00  0.00    +0.000 C 
ATOM      9  O   UNL     1      47.998   6.509  12.263  0.00  0.00    +0.000 OA
ATOM     10  H   UNL     1      45.143   5.385  13.192  0.00  0.00    +0.000 HD
BRANCH   7  11
ATOM     11  C   UNL     1      45.348   6.101  11.242  0.00  0.00    +0.000 C 
BRANCH  11  12
ATOM     12  C   UNL     1      45.096   4.842  10.415  0.00  0.00    +0.000 A 
ATOM     13  C   UNL     1      45.479   4.802   9.075  0.00  0.00    +0.000 A 
ATOM     14  C   UNL     1      45.216   3.653   8.336  0.00  0.00    +0.000 A 
ATOM     15  C   UNL     1      44.582   2.578   8.948  0.00  0.00    +0.000 A 
ATOM     16  C   UNL     1      44.232   2.696  10.282  0.00  0.00    +0.000 A 
ATOM     17  N   UNL     1      44.468   3.798  11.028  0.00  0.00    +0.000 NA
ENDBRANCH  11  12
BRANCH  11  18
ATOM     18  C   UNL     1      44.032   6.918  11.337  0.00  0.00    +0.000 C 
BRANCH  18  19
ATOM     19  N   UNL     1      42.844   6.135  11.698  0.00  0.00    +0.000 NA
ATOM     20  H   UNL     1      42.165   6.727  12.175  0.00  0.00    +0.000 HD
ATOM     21  H   UNL     1      43.102   5.385  12.344  0.00  0.00    +0.000 HD
ENDBRANCH  18  19
ENDBRANCH  11  18
ENDBRANCH   7  11
ENDBRANCH   1   8
BRANCH   4  22
ATOM     22  C   UNL     1      48.323   4.338  18.309  0.00  0.00    +0.000 C 
BRANCH  22  23
ATOM     23  N   UNL     1      49.572   3.636  18.533  0.00  0.00    +0.000 N 
ATOM     24  C   UNL     1      50.728   4.347  18.732  0.00  0.00    +0.000 C 
ATOM     25  O   UNL     1      50.731   5.576  18.731  0.00  0.00    +0.000 OA
ATOM     26  H   UNL     1      49.520   2.656  18.796  0.00  0.00    +0.000 HD
BRANCH  24  27
ATOM     27  C   UNL     1      51.976   3.584  18.852  0.00  0.00    +0.000 A 
ATOM     28  C   UNL     1      53.005   4.056  19.658  0.00  0.00    +0.000 A 
ATOM     29  S   UNL     1      54.480   3.230  19.421  0.00  0.00    +0.000 S 
ATOM     30  C   UNL     1      53.767   2.177  18.293  0.00  0.00    +0.000 A 
ATOM     31  N   UNL     1      54.507   1.269  17.600  0.00  0.00    +0.000 NA
ATOM     32  C   UNL     1      53.816   0.502  16.824  0.00  0.00    +0.000 A 
ATOM     33  N   UNL     1      52.449   0.525  16.716  0.00  0.00    +0.000 N 
ATOM     34  C   UNL     1      51.662   1.408  17.414  0.00  0.00    +0.000 A 
ATOM     35  O   UNL     1      50.437   1.348  17.380  0.00  0.00    +0.000 OA
ATOM     36  C   UNL     1      52.401   2.373  18.201  0.00  0.00    +0.000 A 
ATOM     37  H   UNL     1      51.962  -0.157  16.153  0.00  0.00    +0.000 HD
ENDBRANCH  24  27
ENDBRANCH  22  23
ENDBRANCH   4  22
TORSDOF 8
ENDMDL
MODEL 5
REMARK VINA RESULT:    -6.613      2.324      2.697
REMARK INTER + INTRA:         -10.770
REMARK INTER:                  -9.598
REMARK INTRA:                  -1.172
REMARK UNBOUND:                -1.258
REMARK  Name = 
REMARK  8 active torsions:
REMARK  status: ('A' for Active; 'I' for Inactive)
REMARK    1  A    between atoms: N_1  and  C_2
REMARK    2  A    between atoms: C_2  and  C_3
REMARK    3  A    between atoms: C_3  and  N_4
REMARK    4  A    between atoms: C_3  and  C_27
REMARK    5  A    between atoms: C_5  and  C_7
REMARK    6  A    between atoms: C_10  and  C_11
REMARK    7  A    between atoms: C_11  and  N_12
REMARK    8  A    between atoms: C_13  and  C_15
REMARK                            x       y       z     vdW  Elec       q    Type
REMARK                         _______ _______ _______ _____ _____    ______ ____
ROOT
ATOM      1  C   UNL     1      47.005   7.365  12.608  0.00  0.00    +0.000 A 
ATOM      2  C   UNL     1      47.751   6.390  13.233  0.00  0.00    +0.000 A 
ATOM      3  N   UNL     1      48.891   6.636  13.916  0.00  0.00    +0.000 NA
ATOM      4  C   UNL     1      49.301   7.920  13.966  0.00  0.00    +0.000 A 
ATOM      5  N   UNL     1      48.678   8.940  13.336  0.00  0.00    +0.000 NA
ATOM      6  C   UNL     1      47.537   8.633  12.664  0.00  0.00    +0.000 A 
ENDROOT
BRANCH   1   8
ATOM      7  N   UNL     1      45.409   5.761  11.765  0.00  0.00    +0.000 N 
ATOM      8  C   UNL     1      45.742   7.085  11.899  0.00  0.00    +0.000 C 
ATOM      9  O   UNL     1      45.062   8.013  11.465  0.00  0.00    +0.000 OA
ATOM     10  H   UNL     1      45.915   5.023  12.245  0.00  0.00    +0.000 HD
BRANCH   7  11
ATOM     11  C   UNL     1      44.193   5.303  11.099  0.00  0.00    +0.000 C 
BRANCH  11  12
ATOM     12  C   UNL     1      44.566   4.305  10.005  0.00  0.00    +0.000 A 
ATOM     13  C   UNL     1      44.220   2.962  10.142  0.00  0.00    +0.000 A 
ATOM     14  C   UNL     1      44.593   2.067   9.144  0.00  0.00    +0.000 A 
ATOM     15  C   UNL     1      45.298   2.531   8.040  0.00  0.00    +0.000 A 
ATOM     16  C   UNL     1      45.605   3.880   7.978  0.00  0.00    +0.000 A 
ATOM     17  N   UNL     1      45.262   4.775   8.932  0.00  0.00    +0.000 NA
ENDBRANCH  11  12
BRANCH  11  18
ATOM     18  C   UNL     1      43.198   4.632  12.083  0.00  0.00    +0.000 C 
BRANCH  18  19
ATOM     19  N   UNL     1      42.789   5.471  13.215  0.00  0.00    +0.000 NA
ATOM     20  H   UNL     1      43.202   5.120  14.079  0.00  0.00    +0.000 HD
ATOM     21  H   UNL     1      41.773   5.438  13.328  0.00  0.00    +0.000 HD
ENDBRANCH  18  19
ENDBRANCH  11  18
ENDBRANCH   7  11
ENDBRANCH   1   8
BRANCH   4  22
ATOM     22  C   UNL     1      50.525   8.218  14.807  0.00  0.00    +0.000 C 
BRANCH  22  23
ATOM     23  N   UNL     1      50.323   8.044  16.232  0.00  0.00    +0.000 N 
ATOM     24  C   UNL     1      51.123   7.179  16.934  0.00  0.00    +0.000 C 
ATOM     25  O   UNL     1      52.021   6.548  16.382  0.00  0.00    +0.000 OA
ATOM     26  H   UNL     1      49.776   8.749  16.720  0.00  0.00    +0.000 HD
BRANCH  24  27
ATOM     27  C   UNL     1      50.806   6.968  18.352  0.00  0.00    +0.000 A 
ATOM     28  C   UNL     1      51.556   7.603  19.334  0.00  0.00    +0.000 A 
ATOM     29  S   UNL     1      51.270   6.993  20.903  0.00  0.00    +0.000 S 
ATOM     30  C   UNL     1      50.088   5.917  20.322  0.00  0.00    +0.000 A 
ATOM     31  N   UNL     1      49.501   4.998  21.136  0.00  0.00    +0.000 NA
ATOM     32  C   UNL     1      48.582   4.294  20.564  0.00  0.00    +0.000 A 
ATOM     33  N   UNL     1      48.160   4.459  19.269  0.00  0.00    +0.000 N 
ATOM     34  C   UNL     1      48.708   5.389  18.421  0.00  0.00    +0.000 A 
ATOM     35  O   UNL     1      48.252   5.590  17.301  0.00  0.00    +0.000 OA
ATOM     36  C   UNL     1      49.829   6.118  18.978  0.00  0.00    +0.000 A 
ATOM     37  H   UNL     1      47.380   3.931  18.908  0.00  0.00    +0.000 HD
ENDBRANCH  24  27
ENDBRANCH  22  23
ENDBRANCH   4  22
TORSDOF 8
ENDMDL
MODEL 6
REMARK VINA RESULT:    -6.550      4.107      4.842
REMARK INTER + INTRA:         -10.679
REMARK INTER:                  -9.639
REMARK INTRA:                  -1.040
REMARK UNBOUND:                -1.258
REMARK  Name = 
REMARK  8 active torsions:
REMARK  status: ('A' for Active; 'I' for Inactive)
REMARK    1  A    between atoms: N_1  and  C_2
REMARK    2  A    between atoms: C_2  and  C_3
REMARK    3  A    between atoms: C_3  and  N_4
REMARK    4  A    between atoms: C_3  and  C_27
REMARK    5  A    between atoms: C_5  and  C_7
REMARK    6  A    between atoms: C_10  and  C_11
REMARK    7  A    between atoms: C_11  and  N_12
REMARK    8  A    between atoms: C_13  and  C_15
REMARK                            x       y       z     vdW  Elec       q    Type
REMARK                         _______ _______ _______ _____ _____    ______ ____
ROOT
ATOM      1  C   UNL     1      45.417   6.289  11.447  0.00  0.00    +0.000 A 
ATOM      2  C   UNL     1      46.739   6.535  11.148  0.00  0.00    +0.000 A 
ATOM      3  N   UNL     1      47.517   7.402  11.832  0.00  0.00    +0.000 NA
ATOM      4  C   UNL     1      46.936   8.057  12.858  0.00  0.00    +0.000 A 
ATOM      5  N   UNL     1      45.633   7.935  13.195  0.00  0.00    +0.000 NA
ATOM      6  C   UNL     1      44.899   7.048  12.472  0.00  0.00    +0.000 A 
ENDROOT
BRANCH   1   8
ATOM      7  N   UNL     1      45.271   4.284  10.111  0.00  0.00    +0.000 N 
ATOM      8  C   UNL     1      44.591   5.309  10.716  0.00  0.00    +0.000 C 
ATOM      9  O   UNL     1      43.370   5.446  10.672  0.00  0.00    +0.000 OA
ATOM     10  H   UNL     1      46.260   4.119  10.271  0.00  0.00    +0.000 HD
BRANCH   7  11
ATOM     11  C   UNL     1      44.615   3.223   9.352  0.00  0.00    +0.000 C 
BRANCH  11  12
ATOM     12  C   UNL     1      45.583   2.686   8.300  0.00  0.00    +0.000 A 
ATOM     13  C   UNL     1      45.945   3.484   7.216  0.00  0.00    +0.000 A 
ATOM     14  C   UNL     1      46.808   2.963   6.258  0.00  0.00    +0.000 A 
ATOM     15  C   UNL     1      47.288   1.667   6.403  0.00  0.00    +0.000 A 
ATOM     16  C   UNL     1      46.881   0.938   7.507  0.00  0.00    +0.000 A 
ATOM     17  N   UNL     1      46.040   1.411   8.454  0.00  0.00    +0.000 NA
ENDBRANCH  11  12
BRANCH  11  18
ATOM     18  C   UNL     1      44.147   2.052  10.257  0.00  0.00    +0.000 C 
BRANCH  18  19
ATOM     19  N   UNL     1      43.292   2.446  11.383  0.00  0.00    +0.000 NA
ATOM     20  H   UNL     1      42.354   2.663  11.050  0.00  0.00    +0.000 HD
ATOM     21  H   UNL     1      43.662   3.291  11.825  0.00  0.00    +0.000 HD
ENDBRANCH  18  19
ENDBRANCH  11  18
ENDBRANCH   7  11
ENDBRANCH   1   8
BRANCH   4  22
ATOM     22  C   UNL     1      47.825   8.959  13.688  0.00  0.00    +0.000 C 
BRANCH  22  23
ATOM     23  N   UNL     1      49.240   8.826  13.402  0.00  0.00    +0.000 N 
ATOM     24  C   UNL     1      49.916   9.859  12.804  0.00  0.00    +0.000 C 
ATOM     25  O   UNL     1      49.348  10.907  12.507  0.00  0.00    +0.000 OA
ATOM     26  H   UNL     1      49.749   8.087  13.882  0.00  0.00    +0.000 HD
BRANCH  24  27
ATOM     27  C   UNL     1      51.321   9.627  12.448  0.00  0.00    +0.000 A 
ATOM     28  C   UNL     1      51.828  10.128  11.255  0.00  0.00    +0.000 A 
ATOM     29  S   UNL     1      53.359   9.490  10.852  0.00  0.00    +0.000 S 
ATOM     30  C   UNL     1      53.417   8.586  12.291  0.00  0.00    +0.000 A 
ATOM     31  N   UNL     1      54.426   7.708  12.540  0.00  0.00    +0.000 NA
ATOM     32  C   UNL     1      54.363   7.141  13.699  0.00  0.00    +0.000 A 
ATOM     33  N   UNL     1      53.412   7.409  14.650  0.00  0.00    +0.000 N 
ATOM     34  C   UNL     1      52.390   8.304  14.450  0.00  0.00    +0.000 A 
ATOM     35  O   UNL     1      51.608   8.604  15.346  0.00  0.00    +0.000 OA
ATOM     36  C   UNL     1      52.346   8.872  13.118  0.00  0.00    +0.000 A 
ATOM     37  H   UNL     1      53.466   6.992  15.568  0.00  0.00    +0.000 HD
ENDBRANCH  24  27
ENDBRANCH  22  23
ENDBRANCH   4  22
TORSDOF 8
ENDMDL
MODEL 7
REMARK VINA RESULT:    -6.527      2.850      9.700
REMARK INTER + INTRA:         -10.646
REMARK INTER:                  -9.540
REMARK INTRA:                  -1.106
REMARK UNBOUND:                -1.258
REMARK  Name = 
REMARK  8 active torsions:
REMARK  status: ('A' for Active; 'I' for Inactive)
REMARK    1  A    between atoms: N_1  and  C_2
REMARK    2  A    between atoms: C_2  and  C_3
REMARK    3  A    between atoms: C_3  and  N_4
REMARK    4  A    between atoms: C_3  and  C_27
REMARK    5  A    between atoms: C_5  and  C_7
REMARK    6  A    between atoms: C_10  and  C_11
REMARK    7  A    between atoms: C_11  and  N_12
REMARK    8  A    between atoms: C_13  and  C_15
REMARK                            x       y       z     vdW  Elec       q    Type
REMARK                         _______ _______ _______ _____ _____    ______ ____
ROOT
ATOM      1  C   UNL     1      49.708   5.269  17.190  0.00  0.00    +0.000 A 
ATOM      2  C   UNL     1      48.529   4.726  16.729  0.00  0.00    +0.000 A 
ATOM      3  N   UNL     1      47.891   5.148  15.615  0.00  0.00    +0.000 NA
ATOM      4  C   UNL     1      48.462   6.167  14.940  0.00  0.00    +0.000 A 
ATOM      5  N   UNL     1      49.581   6.809  15.341  0.00  0.00    +0.000 NA
ATOM      6  C   UNL     1      50.179   6.341  16.468  0.00  0.00    +0.000 A 
ENDROOT
BRANCH   1   8
ATOM      7  N   UNL     1      51.716   4.384  18.198  0.00  0.00    +0.000 N 
ATOM      8  C   UNL     1      50.414   4.770  18.387  0.00  0.00    +0.000 C 
ATOM      9  O   UNL     1      49.829   4.716  19.467  0.00  0.00    +0.000 OA
ATOM     10  H   UNL     1      52.215   4.562  17.331  0.00  0.00    +0.000 HD
BRANCH   7  11
ATOM     11  C   UNL     1      52.565   3.874  19.270  0.00  0.00    +0.000 C 
BRANCH  11  12
ATOM     12  C   UNL     1      53.202   2.559  18.824  0.00  0.00    +0.000 A 
ATOM     13  C   UNL     1      52.661   1.854  17.750  0.00  0.00    +0.000 A 
ATOM     14  C   UNL     1      53.243   0.646  17.379  0.00  0.00    +0.000 A 
ATOM     15  C   UNL     1      54.345   0.175  18.082  0.00  0.00    +0.000 A 
ATOM     16  C   UNL     1      54.822   0.933  19.138  0.00  0.00    +0.000 A 
ATOM     17  N   UNL     1      54.278   2.107  19.528  0.00  0.00    +0.000 NA
ENDBRANCH  11  12
BRANCH  11  18
ATOM     18  C   UNL     1      53.686   4.874  19.662  0.00  0.00    +0.000 C 
BRANCH  18  19
ATOM     19  N   UNL     1      54.678   5.130  18.612  0.00  0.00    +0.000 NA
ATOM     20  H   UNL     1      55.468   4.494  18.713  0.00  0.00    +0.000 HD
ATOM     21  H   UNL     1      55.041   6.083  18.698  0.00  0.00    +0.000 HD
ENDBRANCH  18  19
ENDBRANCH  11  18
ENDBRANCH   7  11
ENDBRANCH   1   8
BRANCH   4  22
ATOM     22  C   UNL     1      47.804   6.584  13.641  0.00  0.00    +0.000 C 
BRANCH  22  23
ATOM     23  N   UNL     1      46.933   5.578  13.067  0.00  0.00    +0.000 N 
ATOM     24  C   UNL     1      45.993   5.940  12.135  0.00  0.00    +0.000 C 
ATOM     25  O   UNL     1      45.874   7.107  11.767  0.00  0.00    +0.000 OA
ATOM     26  H   UNL     1      47.208   4.604  13.167  0.00  0.00    +0.000 HD
BRANCH  24  27
ATOM     27  C   UNL     1      45.073   4.897  11.665  0.00  0.00    +0.000 A 
ATOM     28  C   UNL     1      44.145   4.344  12.538  0.00  0.00    +0.000 A 
ATOM     29  S   UNL     1      43.399   2.935  11.927  0.00  0.00    +0.000 S 
ATOM     30  C   UNL     1      44.240   3.069  10.455  0.00  0.00    +0.000 A 
ATOM     31  N   UNL     1      44.154   2.108   9.496  0.00  0.00    +0.000 NA
ATOM     32  C   UNL     1      44.802   2.379   8.413  0.00  0.00    +0.000 A 
ATOM     33  N   UNL     1      45.487   3.545   8.180  0.00  0.00    +0.000 N 
ATOM     34  C   UNL     1      45.580   4.551   9.111  0.00  0.00    +0.000 A 
ATOM     35  O   UNL     1      46.110   5.625   8.850  0.00  0.00    +0.000 OA
ATOM     36  C   UNL     1      44.975   4.239  10.389  0.00  0.00    +0.000 A 
ATOM     37  H   UNL     1      45.904   3.731   7.281  0.00  0.00    +0.000 HD
ENDBRANCH  24  27
ENDBRANCH  22  23
ENDBRANCH   4  22
TORSDOF 8
ENDMDL
MODEL 8
REMARK VINA RESULT:    -6.468      3.057      9.422
REMARK INTER + INTRA:         -10.561
REMARK INTER:                  -9.197
REMARK INTRA:                  -1.364
REMARK UNBOUND:                -1.258
REMARK  Name = 
REMARK  8 active torsions:
REMARK  status: ('A' for Active; 'I' for Inactive)
REMARK    1  A    between atoms: N_1  and  C_2
REMARK    2  A    between atoms: C_2  and  C_3
REMARK    3  A    between atoms: C_3  and  N_4
REMARK    4  A    between atoms: C_3  and  C_27
REMARK    5  A    between atoms: C_5  and  C_7
REMARK    6  A    between atoms: C_10  and  C_11
REMARK    7  A    between atoms: C_11  and  N_12
REMARK    8  A    between atoms: C_13  and  C_15
REMARK                            x       y       z     vdW  Elec       q    Type
REMARK                         _______ _______ _______ _____ _____    ______ ____
ROOT
ATOM      1  C   UNL     1      50.121   5.748  17.154  0.00  0.00    +0.000 A 
ATOM      2  C   UNL     1      50.625   6.758  16.364  0.00  0.00    +0.000 A 
ATOM      3  N   UNL     1      49.999   7.241  15.268  0.00  0.00    +0.000 NA
ATOM      4  C   UNL     1      48.815   6.677  14.950  0.00  0.00    +0.000 A 
ATOM      5  N   UNL     1      48.264   5.642  15.621  0.00  0.00    +0.000 NA
ATOM      6  C   UNL     1      48.939   5.198  16.714  0.00  0.00    +0.000 A 
ENDROOT
BRANCH   1   8
ATOM      7  N   UNL     1      51.893   4.457  18.165  0.00  0.00    +0.000 N 
ATOM      8  C   UNL     1      50.799   5.258  18.369  0.00  0.00    +0.000 C 
ATOM      9  O   UNL     1      50.370   5.568  19.479  0.00  0.00    +0.000 OA
ATOM     10  H   UNL     1      52.305   4.325  17.246  0.00  0.00    +0.000 HD
BRANCH   7  11
ATOM     11  C   UNL     1      52.687   3.891  19.251  0.00  0.00    +0.000 C 
BRANCH  11  12
ATOM     12  C   UNL     1      53.200   2.514  18.832  0.00  0.00    +0.000 A 
ATOM     13  C   UNL     1      52.572   1.823  17.798  0.00  0.00    +0.000 A 
ATOM     14  C   UNL     1      53.042   0.560  17.452  0.00  0.00    +0.000 A 
ATOM     15  C   UNL     1      54.122   0.021  18.141  0.00  0.00    +0.000 A 
ATOM     16  C   UNL     1      54.690   0.770  19.157  0.00  0.00    +0.000 A 
ATOM     17  N   UNL     1      54.256   1.997  19.522  0.00  0.00    +0.000 NA
ENDBRANCH  11  12
BRANCH  11  18
ATOM     18  C   UNL     1      53.894   4.789  19.631  0.00  0.00    +0.000 C 
BRANCH  18  19
ATOM     19  N   UNL     1      54.866   5.004  18.553  0.00  0.00    +0.000 NA
ATOM     20  H   UNL     1      55.812   4.846  18.897  0.00  0.00    +0.000 HD
ATOM     21  H   UNL     1      54.819   5.972  18.226  0.00  0.00    +0.000 HD
ENDBRANCH  18  19
ENDBRANCH  11  18
ENDBRANCH   7  11
ENDBRANCH   1   8
BRANCH   4  22
ATOM     22  C   UNL     1      48.062   7.276  13.781  0.00  0.00    +0.000 C 
BRANCH  22  23
ATOM     23  N   UNL     1      47.506   6.296  12.868  0.00  0.00    +0.000 N 
ATOM     24  C   UNL     1      46.499   6.656  12.009  0.00  0.00    +0.000 C 
ATOM     25  O   UNL     1      46.057   7.803  11.989  0.00  0.00    +0.000 OA
ATOM     26  H   UNL     1      48.044   5.449  12.703  0.00  0.00    +0.000 HD
BRANCH  24  27
ATOM     27  C   UNL     1      45.909   5.598  11.181  0.00  0.00    +0.000 A 
ATOM     28  C   UNL     1      45.942   5.699   9.796  0.00  0.00    +0.000 A 
ATOM     29  S   UNL     1      44.932   4.568   9.012  0.00  0.00    +0.000 S 
ATOM     30  C   UNL     1      44.482   3.867  10.495  0.00  0.00    +0.000 A 
ATOM     31  N   UNL     1      43.534   2.894  10.564  0.00  0.00    +0.000 NA
ATOM     32  C   UNL     1      43.344   2.422  11.751  0.00  0.00    +0.000 A 
ATOM     33  N   UNL     1      44.050   2.797  12.866  0.00  0.00    +0.000 N 
ATOM     34  C   UNL     1      45.030   3.757  12.837  0.00  0.00    +0.000 A 
ATOM     35  O   UNL     1      45.718   4.008  13.820  0.00  0.00    +0.000 OA
ATOM     36  C   UNL     1      45.193   4.407  11.552  0.00  0.00    +0.000 A 
ATOM     37  H   UNL     1      43.909   2.330  13.749  0.00  0.00    +0.000 HD
ENDBRANCH  24  27
ENDBRANCH  22  23
ENDBRANCH   4  22
TORSDOF 8
ENDMDL
MODEL 9
REMARK VINA RESULT:    -6.415      3.551      9.696
REMARK INTER + INTRA:         -10.485
REMARK INTER:                  -9.573
REMARK INTRA:                  -0.912
REMARK UNBOUND:                -1.258
REMARK  Name = 
REMARK  8 active torsions:
REMARK  status: ('A' for Active; 'I' for Inactive)
REMARK    1  A    between atoms: N_1  and  C_2
REMARK    2  A    between atoms: C_2  and  C_3
REMARK    3  A    between atoms: C_3  and  N_4
REMARK    4  A    between atoms: C_3  and  C_27
REMARK    5  A    between atoms: C_5  and  C_7
REMARK    6  A    between atoms: C_10  and  C_11
REMARK    7  A    between atoms: C_11  and  N_12
REMARK    8  A    between atoms: C_13  and  C_15
REMARK                            x       y       z     vdW  Elec       q    Type
REMARK                         _______ _______ _______ _____ _____    ______ ____
ROOT
ATOM      1  C   UNL     1      47.557   5.923  14.189  0.00  0.00    +0.000 A 
ATOM      2  C   UNL     1      46.836   4.755  14.309  0.00  0.00    +0.000 A 
ATOM      3  N   UNL     1      45.870   4.375  13.444  0.00  0.00    +0.000 NA
ATOM      4  C   UNL     1      45.614   5.212  12.417  0.00  0.00    +0.000 A 
ATOM      5  N   UNL     1      46.219   6.407  12.244  0.00  0.00    +0.000 NA
ATOM      6  C   UNL     1      47.182   6.737  13.145  0.00  0.00    +0.000 A 
ENDROOT
BRANCH   1   8
ATOM      7  N   UNL     1      48.464   5.927  16.427  0.00  0.00    +0.000 N 
ATOM      8  C   UNL     1      48.637   6.305  15.120  0.00  0.00    +0.000 C 
ATOM      9  O   UNL     1      49.612   6.929  14.707  0.00  0.00    +0.000 OA
ATOM     10  H   UNL     1      47.719   5.301  16.717  0.00  0.00    +0.000 HD
BRANCH   7  11
ATOM     11  C   UNL     1      49.433   6.215  17.480  0.00  0.00    +0.000 C 
BRANCH  11  12
ATOM     12  C   UNL     1      48.692   6.697  18.726  0.00  0.00    +0.000 A 
ATOM     13  C   UNL     1      48.472   5.821  19.787  0.00  0.00    +0.000 A 
ATOM     14  C   UNL     1      47.773   6.277  20.900  0.00  0.00    +0.000 A 
ATOM     15  C   UNL     1      47.313   7.588  20.927  0.00  0.00    +0.000 A 
ATOM     16  C   UNL     1      47.571   8.396  19.833  0.00  0.00    +0.000 A 
ATOM     17  N   UNL     1      48.242   7.984  18.734  0.00  0.00    +0.000 NA
ENDBRANCH  11  12
BRANCH  11  18
ATOM     18  C   UNL     1      50.291   4.975  17.847  0.00  0.00    +0.000 C 
BRANCH  18  19
ATOM     19  N   UNL     1      49.957   3.753  17.108  0.00  0.00    +0.000 NA
ATOM     20  H   UNL     1      50.271   3.831  16.141  0.00  0.00    +0.000 HD
ATOM     21  H   UNL     1      48.943   3.620  17.089  0.00  0.00    +0.000 HD
ENDBRANCH  18  19
ENDBRANCH  11  18
ENDBRANCH   7  11
ENDBRANCH   1   8
BRANCH   4  22
ATOM     22  C   UNL     1      44.599   4.750  11.392  0.00  0.00    +0.000 C 
BRANCH  22  23
ATOM     23  N   UNL     1      45.169   4.008  10.284  0.00  0.00    +0.000 N 
ATOM     24  C   UNL     1      44.620   2.808   9.912  0.00  0.00    +0.000 C 
ATOM     25  O   UNL     1      43.642   2.344  10.494  0.00  0.00    +0.000 OA
ATOM     26  H   UNL     1      45.787   4.509   9.651  0.00  0.00    +0.000 HD
BRANCH  24  27
ATOM     27  C   UNL     1      45.301   2.056   8.851  0.00  0.00    +0.000 A 
ATOM     28  C   UNL     1      45.100   0.686   8.731  0.00  0.00    +0.000 A 
ATOM     29  S   UNL     1      46.209  -0.069   7.675  0.00  0.00    +0.000 S 
ATOM     30  C   UNL     1      46.937   1.420   7.295  0.00  0.00    +0.000 A 
ATOM     31  N   UNL     1      48.050   1.490   6.515  0.00  0.00    +0.000 NA
ATOM     32  C   UNL     1      48.450   2.693   6.269  0.00  0.00    +0.000 A 
ATOM     33  N   UNL     1      47.813   3.833   6.689  0.00  0.00    +0.000 N 
ATOM     34  C   UNL     1      46.675   3.808   7.458  0.00  0.00    +0.000 A 
ATOM     35  O   UNL     1      46.064   4.833   7.740  0.00  0.00    +0.000 OA
ATOM     36  C   UNL     1      46.259   2.482   7.866  0.00  0.00    +0.000 A 
ATOM     37  H   UNL     1      48.131   4.743   6.393  0.00  0.00    +0.000 HD
ENDBRANCH  24  27
ENDBRANCH  22  23
ENDBRANCH   4  22
TORSDOF 8
ENDMDL
