MODEL 1
REMARK VINA RESULT:    -7.843      0.000      0.000
REMARK INTER + INTRA:          -9.807
REMARK INTER:                  -9.447
REMARK INTRA:                  -0.359
REMARK UNBOUND:                -0.359
REMARK  Name = 
REMARK  4 active torsions:
REMARK  status: ('A' for Active; 'I' for Inactive)
REMARK    1  A    between atoms: N_1  and  C_2
REMARK    2  A    between atoms: C_2  and  C_3
REMARK    3  A    between atoms: C_6  and  C_7
REMARK    4  A    between atoms: C_7  and  C_8
REMARK                            x       y       z     vdW  Elec       q    Type
REMARK                         _______ _______ _______ _____ _____    ______ ____
ROOT
ATOM      1  C   UNL     1      44.451   4.754  10.067  0.00  0.00    +0.000 C 
ENDROOT
BRANCH   1   2
ATOM      2  C   UNL     1      44.883   4.606  11.481  0.00  0.00    +0.000 A 
ATOM      3  C   UNL     1      44.424   3.787  12.492  0.00  0.00    +0.000 A 
ATOM      4  N   UNL     1      45.102   4.006  13.663  0.00  0.00    +0.000 NA
ATOM      5  C   UNL     1      45.974   4.949  13.380  0.00  0.00    +0.000 A 
ATOM      6  C   UNL     1      46.927   5.600  14.192  0.00  0.00    +0.000 A 
ATOM      7  C   UNL     1      47.739   6.509  13.641  0.00  0.00    +0.000 A 
ATOM      8  C   UNL     1      47.585   6.771  12.184  0.00  0.00    +0.000 A 
ATOM      9 CL   UNL     1      48.650   7.902  11.429  0.00  0.00    +0.000 Cl
ATOM     10  N   UNL     1      46.708   6.224  11.403  0.00  0.00    +0.000 NA
ATOM     11  N   UNL     1      45.908   5.326  12.047  0.00  0.00    +0.000 N 
ENDBRANCH   1   2
BRANCH   1  15
ATOM     12  C   UNL     1      46.644   2.165   7.361  0.00  0.00    +0.000 A 
ATOM     13  C   UNL     1      46.675   3.559   7.207  0.00  0.00    +0.000 A 
ATOM     14  C   UNL     1      45.967   4.391   8.074  0.00  0.00    +0.000 A 
ATOM     15  C   UNL     1      45.211   3.849   9.122  0.00  0.00    +0.000 A 
ATOM     16  C   UNL     1      45.163   2.456   9.267  0.00  0.00    +0.000 A 
ATOM     17  C   UNL     1      45.875   1.622   8.399  0.00  0.00    +0.000 A 
BRANCH  12  18
ATOM     18  C   UNL     1      47.411   1.273   6.418  0.00  0.00    +0.000 C 
BRANCH  18  19
ATOM     19  N   UNL     1      48.549   1.969   5.827  0.00  0.00    +0.000 NA
ATOM     20  H   UNL     1      49.064   2.453   6.560  0.00  0.00    +0.000 HD
ATOM     21  H   UNL     1      48.199   2.687   5.195  0.00  0.00    +0.000 HD
ENDBRANCH  18  19
ENDBRANCH  12  18
ENDBRANCH   1  15
TORSDOF 4
ENDMDL
MODEL 2
REMARK VINA RESULT:    -7.472      2.084      2.247
REMARK INTER + INTRA:          -9.360
REMARK INTER:                  -8.971
REMARK INTRA:                  -0.389
REMARK UNBOUND:                -0.359
REMARK  Name = 
REMARK  4 active torsions:
REMARK  status: ('A' for Active; 'I' for Inactive)
REMARK    1  A    between atoms: N_1  and  C_2
REMARK    2  A    between atoms: C_2  and  C_3
REMARK    3  A    between atoms: C_6  and  C_7
REMARK    4  A    between atoms: C_7  and  C_8
REMARK                            x       y       z     vdW  Elec       q    Type
REMARK                         _______ _______ _______ _____ _____    ______ ____
ROOT
ATOM      1  C   UNL     1      44.091   4.642  10.572  0.00  0.00    +0.000 C 
ENDROOT
BRANCH   1   2
ATOM      2  C   UNL     1      44.933   5.346  11.575  0.00  0.00    +0.000 A 
ATOM      3  C   UNL     1      45.818   4.865  12.517  0.00  0.00    +0.000 A 
ATOM      4  N   UNL     1      46.361   5.880  13.261  0.00  0.00    +0.000 NA
ATOM      5  C   UNL     1      45.820   6.979  12.783  0.00  0.00    +0.000 A 
ATOM      6  C   UNL     1      45.975   8.328  13.166  0.00  0.00    +0.000 A 
ATOM      7  C   UNL     1      45.335   9.279  12.476  0.00  0.00    +0.000 A 
ATOM      8  C   UNL     1      44.494   8.843  11.328  0.00  0.00    +0.000 A 
ATOM      9 CL   UNL     1      43.692  10.046  10.384  0.00  0.00    +0.000 Cl
ATOM     10  N   UNL     1      44.294   7.617  10.956  0.00  0.00    +0.000 NA
ATOM     11  N   UNL     1      44.966   6.711  11.723  0.00  0.00    +0.000 N 
ENDBRANCH   1   2
BRANCH   1  15
ATOM     12  C   UNL     1      46.442   2.470   7.641  0.00  0.00    +0.000 A 
ATOM     13  C   UNL     1      46.409   3.873   7.640  0.00  0.00    +0.000 A 
ATOM     14  C   UNL     1      45.650   4.571   8.580  0.00  0.00    +0.000 A 
ATOM     15  C   UNL     1      44.907   3.883   9.549  0.00  0.00    +0.000 A 
ATOM     16  C   UNL     1      44.923   2.482   9.540  0.00  0.00    +0.000 A 
ATOM     17  C   UNL     1      45.687   1.782   8.599  0.00  0.00    +0.000 A 
BRANCH  12  18
ATOM     18  C   UNL     1      47.264   1.723   6.621  0.00  0.00    +0.000 C 
BRANCH  18  19
ATOM     19  N   UNL     1      48.471   2.458   6.263  0.00  0.00    +0.000 NA
ATOM     20  H   UNL     1      49.129   1.825   5.813  0.00  0.00    +0.000 HD
ATOM     21  H   UNL     1      48.919   2.785   7.118  0.00  0.00    +0.000 HD
ENDBRANCH  18  19
ENDBRANCH  12  18
ENDBRANCH   1  15
TORSDOF 4
ENDMDL
MODEL 3
REMARK VINA RESULT:    -7.416      1.544      1.896
REMARK INTER + INTRA:          -9.293
REMARK INTER:                  -9.058
REMARK INTRA:                  -0.234
REMARK UNBOUND:                -0.359
REMARK  Name = 
REMARK  4 active torsions:
REMARK  status: ('A' for Active; 'I' for Inactive)
REMARK    1  A    between atoms: N_1  and  C_2
REMARK    2  A    between atoms: C_2  and  C_3
REMARK    3  A    between atoms: C_6  and  C_7
REMARK    4  A    between atoms: C_7  and  C_8
REMARK                            x       y       z     vdW  Elec       q    Type
REMARK                         _______ _______ _______ _____ _____    ______ ____
ROOT
ATOM      1  C   UNL     1      44.616   3.162  10.768  0.00  0.00    +0.000 C 
ENDROOT
BRANCH   1   2
ATOM      2  C   UNL     1      44.185   4.551  11.070  0.00  0.00    +0.000 A 
ATOM      3  C   UNL     1      42.968   5.181  10.913  0.00  0.00    +0.000 A 
ATOM      4  N   UNL     1      43.028   6.494  11.300  0.00  0.00    +0.000 NA
ATOM      5  C   UNL     1      44.269   6.677  11.695  0.00  0.00    +0.000 A 
ATOM      6  C   UNL     1      44.926   7.829  12.176  0.00  0.00    +0.000 A 
ATOM      7  C   UNL     1      46.204   7.736  12.561  0.00  0.00    +0.000 A 
ATOM      8  C   UNL     1      46.854   6.401  12.462  0.00  0.00    +0.000 A 
ATOM      9 CL   UNL     1      48.488   6.234  12.997  0.00  0.00    +0.000 Cl
ATOM     10  N   UNL     1      46.305   5.322  11.999  0.00  0.00    +0.000 NA
ATOM     11  N   UNL     1      45.011   5.507  11.611  0.00  0.00    +0.000 N 
ENDBRANCH   1   2
BRANCH   1  15
ATOM     12  C   UNL     1      46.599   2.815   6.923  0.00  0.00    +0.000 A 
ATOM     13  C   UNL     1      46.199   4.067   7.416  0.00  0.00    +0.000 A 
ATOM     14  C   UNL     1      45.558   4.177   8.650  0.00  0.00    +0.000 A 
ATOM     15  C   UNL     1      45.303   3.038   9.425  0.00  0.00    +0.000 A 
ATOM     16  C   UNL     1      45.685   1.785   8.926  0.00  0.00    +0.000 A 
ATOM     17  C   UNL     1      46.330   1.675   7.690  0.00  0.00    +0.000 A 
BRANCH  12  18
ATOM     18  C   UNL     1      47.290   2.704   5.587  0.00  0.00    +0.000 C 
BRANCH  18  19
ATOM     19  N   UNL     1      48.441   1.810   5.651  0.00  0.00    +0.000 NA
ATOM     20  H   UNL     1      48.740   1.580   4.706  0.00  0.00    +0.000 HD
ATOM     21  H   UNL     1      48.149   0.935   6.086  0.00  0.00    +0.000 HD
ENDBRANCH  18  19
ENDBRANCH  12  18
ENDBRANCH   1  15
TORSDOF 4
ENDMDL
MODEL 4
REMARK VINA RESULT:    -6.683      2.517      5.923
REMARK INTER + INTRA:          -8.409
REMARK INTER:                  -8.112
REMARK INTRA:                  -0.297
REMARK UNBOUND:                -0.359
REMARK  Name = 
REMARK  4 active torsions:
REMARK  status: ('A' for Active; 'I' for Inactive)
REMARK    1  A    between atoms: N_1  and  C_2
REMARK    2  A    between atoms: C_2  and  C_3
REMARK    3  A    between atoms: C_6  and  C_7
REMARK    4  A    between atoms: C_7  and  C_8
REMARK                            x       y       z     vdW  Elec       q    Type
REMARK                         _______ _______ _______ _____ _____    ______ ____
ROOT
ATOM      1  C   UNL     1      44.299   6.450  11.051  0.00  0.00    +0.000 C 
ENDROOT
BRANCH   1   2
ATOM      2  C   UNL     1      44.004   4.998  10.939  0.00  0.00    +0.000 A 
ATOM      3  C   UNL     1      43.178   4.178  11.682  0.00  0.00    +0.000 A 
ATOM      4  N   UNL     1      43.233   2.881  11.243  0.00  0.00    +0.000 NA
ATOM      5  C   UNL     1      44.081   2.896  10.238  0.00  0.00    +0.000 A 
ATOM      6  C   UNL     1      44.556   1.855   9.413  0.00  0.00    +0.000 A 
ATOM      7  C   UNL     1      45.395   2.148   8.413  0.00  0.00    +0.000 A 
ATOM      8  C   UNL     1      45.774   3.576   8.233  0.00  0.00    +0.000 A 
ATOM      9 CL   UNL     1      46.817   3.997   6.923  0.00  0.00    +0.000 Cl
ATOM     10  N   UNL     1      45.391   4.563   8.981  0.00  0.00    +0.000 NA
ATOM     11  N   UNL     1      44.554   4.177   9.986  0.00  0.00    +0.000 N 
ENDBRANCH   1   2
BRANCH   1  15
ATOM     12  C   UNL     1      47.611   7.300  13.724  0.00  0.00    +0.000 A 
ATOM     13  C   UNL     1      46.733   8.317  13.320  0.00  0.00    +0.000 A 
ATOM     14  C   UNL     1      45.670   8.045  12.458  0.00  0.00    +0.000 A 
ATOM     15  C   UNL     1      45.457   6.745  11.979  0.00  0.00    +0.000 A 
ATOM     16  C   UNL     1      46.344   5.731  12.366  0.00  0.00    +0.000 A 
ATOM     17  C   UNL     1      47.407   6.005  13.233  0.00  0.00    +0.000 A 
BRANCH  12  18
ATOM     18  C   UNL     1      48.757   7.604  14.655  0.00  0.00    +0.000 C 
BRANCH  18  19
ATOM     19  N   UNL     1      49.991   6.965  14.212  0.00  0.00    +0.000 NA
ATOM     20  H   UNL     1      50.688   7.680  14.016  0.00  0.00    +0.000 HD
ATOM     21  H   UNL     1      49.811   6.484  13.332  0.00  0.00    +0.000 HD
ENDBRANCH  18  19
ENDBRANCH  12  18
ENDBRANCH   1  15
TORSDOF 4
ENDMDL
MODEL 5
REMARK VINA RESULT:    -6.286      1.785      2.444
REMARK INTER + INTRA:          -7.931
REMARK INTER:                  -7.551
REMARK INTRA:                  -0.380
REMARK UNBOUND:                -0.359
REMARK  Name = 
REMARK  4 active torsions:
REMARK  status: ('A' for Active; 'I' for Inactive)
REMARK    1  A    between atoms: N_1  and  C_2
REMARK    2  A    between atoms: C_2  and  C_3
REMARK    3  A    between atoms: C_6  and  C_7
REMARK    4  A    between atoms: C_7  and  C_8
REMARK                            x       y       z     vdW  Elec       q    Type
REMARK                         _______ _______ _______ _____ _____    ______ ____
ROOT
ATOM      1  C   UNL     1      44.815   5.347  12.539  0.00  0.00    +0.000 C 
ENDROOT
BRANCH   1   2
ATOM      2  C   UNL     1      46.064   5.432  13.341  0.00  0.00    +0.000 A 
ATOM      3  C   UNL     1      46.719   4.490  14.107  0.00  0.00    +0.000 A 
ATOM      4  N   UNL     1      47.834   5.016  14.705  0.00  0.00    +0.000 NA
ATOM      5  C   UNL     1      47.872   6.271  14.312  0.00  0.00    +0.000 A 
ATOM      6  C   UNL     1      48.774   7.311  14.622  0.00  0.00    +0.000 A 
ATOM      7  C   UNL     1      48.613   8.506  14.044  0.00  0.00    +0.000 A 
ATOM      8  C   UNL     1      47.479   8.660  13.093  0.00  0.00    +0.000 A 
ATOM      9 CL   UNL     1      47.270  10.175  12.291  0.00  0.00    +0.000 Cl
ATOM     10  N   UNL     1      46.606   7.748  12.799  0.00  0.00    +0.000 NA
ATOM     11  N   UNL     1      46.830   6.568  13.444  0.00  0.00    +0.000 N 
ENDBRANCH   1   2
BRANCH   1  15
ATOM     12  C   UNL     1      45.493   3.783   8.548  0.00  0.00    +0.000 A 
ATOM     13  C   UNL     1      45.882   5.088   8.885  0.00  0.00    +0.000 A 
ATOM     14  C   UNL     1      45.660   5.593  10.167  0.00  0.00    +0.000 A 
ATOM     15  C   UNL     1      45.047   4.801  11.147  0.00  0.00    +0.000 A 
ATOM     16  C   UNL     1      44.640   3.504  10.808  0.00  0.00    +0.000 A 
ATOM     17  C   UNL     1      44.865   2.998   9.523  0.00  0.00    +0.000 A 
BRANCH  12  18
ATOM     18  C   UNL     1      45.735   3.247   7.160  0.00  0.00    +0.000 C 
BRANCH  18  19
ATOM     19  N   UNL     1      46.785   3.990   6.473  0.00  0.00    +0.000 NA
ATOM     20  H   UNL     1      46.570   4.034   5.479  0.00  0.00    +0.000 HD
ATOM     21  H   UNL     1      47.660   3.473   6.560  0.00  0.00    +0.000 HD
ENDBRANCH  18  19
ENDBRANCH  12  18
ENDBRANCH   1  15
TORSDOF 4
ENDMDL
MODEL 6
REMARK VINA RESULT:    -5.983      4.229      7.490
REMARK INTER + INTRA:          -7.567
REMARK INTER:                  -7.279
REMARK INTRA:                  -0.288
REMARK UNBOUND:                -0.359
REMARK  Name = 
REMARK  4 active torsions:
REMARK  status: ('A' for Active; 'I' for Inactive)
REMARK    1  A    between atoms: N_1  and  C_2
REMARK    2  A    between atoms: C_2  and  C_3
REMARK    3  A    between atoms: C_6  and  C_7
REMARK    4  A    between atoms: C_7  and  C_8
REMARK                            x       y       z     vdW  Elec       q    Type
REMARK                         _______ _______ _______ _____ _____    ______ ____
ROOT
ATOM      1  C   UNL     1      47.145   4.540  16.200  0.00  0.00    +0.000 C 
ENDROOT
BRANCH   1   2
ATOM      2  C   UNL     1      47.282   5.257  14.906  0.00  0.00    +0.000 A 
ATOM      3  C   UNL     1      48.153   6.248  14.502  0.00  0.00    +0.000 A 
ATOM      4  N   UNL     1      47.901   6.646  13.216  0.00  0.00    +0.000 NA
ATOM      5  C   UNL     1      46.885   5.908  12.824  0.00  0.00    +0.000 A 
ATOM      6  C   UNL     1      46.173   5.888  11.606  0.00  0.00    +0.000 A 
ATOM      7  C   UNL     1      45.191   4.994  11.441  0.00  0.00    +0.000 A 
ATOM      8  C   UNL     1      44.916   4.063  12.569  0.00  0.00    +0.000 A 
ATOM      9 CL   UNL     1      43.689   2.863  12.373  0.00  0.00    +0.000 Cl
ATOM     10  N   UNL     1      45.519   4.061  13.716  0.00  0.00    +0.000 NA
ATOM     11  N   UNL     1      46.491   5.014  13.809  0.00  0.00    +0.000 N 
ENDBRANCH   1   2
BRANCH   1  15
ATOM     12  C   UNL     1      50.745   2.404  17.347  0.00  0.00    +0.000 A 
ATOM     13  C   UNL     1      50.581   3.761  17.664  0.00  0.00    +0.000 A 
ATOM     14  C   UNL     1      49.425   4.449  17.292  0.00  0.00    +0.000 A 
ATOM     15  C   UNL     1      48.401   3.795  16.595  0.00  0.00    +0.000 A 
ATOM     16  C   UNL     1      48.570   2.444  16.260  0.00  0.00    +0.000 A 
ATOM     17  C   UNL     1      49.727   1.755  16.636  0.00  0.00    +0.000 A 
BRANCH  12  18
ATOM     18  C   UNL     1      51.997   1.669  17.751  0.00  0.00    +0.000 C 
BRANCH  18  19
ATOM     19  N   UNL     1      51.715   0.282  18.103  0.00  0.00    +0.000 NA
ATOM     20  H   UNL     1      51.768   0.174  19.113  0.00  0.00    +0.000 HD
ATOM     21  H   UNL     1      52.445  -0.309  17.707  0.00  0.00    +0.000 HD
ENDBRANCH  18  19
ENDBRANCH  12  18
ENDBRANCH   1  15
TORSDOF 4
ENDMDL
MODEL 7
REMARK VINA RESULT:    -5.875      3.027      6.636
REMARK INTER + INTRA:          -7.436
REMARK INTER:                  -7.271
REMARK INTRA:                  -0.165
REMARK UNBOUND:                -0.359
REMARK  Name = 
REMARK  4 active torsions:
REMARK  status: ('A' for Active; 'I' for Inactive)
REMARK    1  A    between atoms: N_1  and  C_2
REMARK    2  A    between atoms: C_2  and  C_3
REMARK    3  A    between atoms: C_6  and  C_7
REMARK    4  A    between atoms: C_7  and  C_8
REMARK                            x       y       z     vdW  Elec       q    Type
REMARK                         _______ _______ _______ _____ _____    ______ ____
ROOT
ATOM      1  C   UNL     1      44.724   3.298  10.862  0.00  0.00    +0.000 C 
ENDROOT
BRANCH   1   2
ATOM      2  C   UNL     1      45.337   3.771   9.594  0.00  0.00    +0.000 A 
ATOM      3  C   UNL     1      45.532   5.044   9.097  0.00  0.00    +0.000 A 
ATOM      4  N   UNL     1      46.117   5.015   7.859  0.00  0.00    +0.000 NA
ATOM      5  C   UNL     1      46.285   3.738   7.591  0.00  0.00    +0.000 A 
ATOM      6  C   UNL     1      46.816   3.095   6.452  0.00  0.00    +0.000 A 
ATOM      7  C   UNL     1      46.920   1.761   6.449  0.00  0.00    +0.000 A 
ATOM      8  C   UNL     1      46.469   1.035   7.666  0.00  0.00    +0.000 A 
ATOM      9 CL   UNL     1      46.635  -0.683   7.716  0.00  0.00    +0.000 Cl
ATOM     10  N   UNL     1      45.947   1.576   8.723  0.00  0.00    +0.000 NA
ATOM     11  N   UNL     1      45.859   2.934   8.638  0.00  0.00    +0.000 N 
ENDBRANCH   1   2
BRANCH   1  15
ATOM     12  C   UNL     1      46.814   4.718  14.391  0.00  0.00    +0.000 A 
ATOM     13  C   UNL     1      46.047   5.594  13.607  0.00  0.00    +0.000 A 
ATOM     14  C   UNL     1      45.378   5.138  12.471  0.00  0.00    +0.000 A 
ATOM     15  C   UNL     1      45.456   3.792  12.090  0.00  0.00    +0.000 A 
ATOM     16  C   UNL     1      46.237   2.919  12.860  0.00  0.00    +0.000 A 
ATOM     17  C   UNL     1      46.905   3.376  14.001  0.00  0.00    +0.000 A 
BRANCH  12  18
ATOM     18  C   UNL     1      47.534   5.219  15.617  0.00  0.00    +0.000 C 
BRANCH  18  19
ATOM     19  N   UNL     1      47.083   4.533  16.822  0.00  0.00    +0.000 NA
ATOM     20  H   UNL     1      46.589   3.683  16.559  0.00  0.00    +0.000 HD
ATOM     21  H   UNL     1      46.407   5.126  17.301  0.00  0.00    +0.000 HD
ENDBRANCH  18  19
ENDBRANCH  12  18
ENDBRANCH   1  15
TORSDOF 4
ENDMDL
MODEL 8
REMARK VINA RESULT:    -5.848      3.113      3.935
REMARK INTER + INTRA:          -7.404
REMARK INTER:                  -7.155
REMARK INTRA:                  -0.249
REMARK UNBOUND:                -0.359
REMARK  Name = 
REMARK  4 active torsions:
REMARK  status: ('A' for Active; 'I' for Inactive)
REMARK    1  A    between atoms: N_1  and  C_2
REMARK    2  A    between atoms: C_2  and  C_3
REMARK    3  A    between atoms: C_6  and  C_7
REMARK    4  A    between atoms: C_7  and  C_8
REMARK                            x       y       z     vdW  Elec       q    Type
REMARK                         _______ _______ _______ _____ _____    ______ ____
ROOT
ATOM      1  C   UNL     1      44.407   6.104  12.145  0.00  0.00    +0.000 C 
ENDROOT
BRANCH   1   2
ATOM      2  C   UNL     1      45.278   7.287  12.373  0.00  0.00    +0.000 A 
ATOM      3  C   UNL     1      46.442   7.433  13.098  0.00  0.00    +0.000 A 
ATOM      4  N   UNL     1      46.899   8.724  13.060  0.00  0.00    +0.000 NA
ATOM      5  C   UNL     1      46.029   9.372  12.317  0.00  0.00    +0.000 A 
ATOM      6  C   UNL     1      45.961  10.731  11.945  0.00  0.00    +0.000 A 
ATOM      7  C   UNL     1      44.981  11.135  11.129  0.00  0.00    +0.000 A 
ATOM      8  C   UNL     1      44.017  10.105  10.655  0.00  0.00    +0.000 A 
ATOM      9 CL   UNL     1      42.769  10.581   9.561  0.00  0.00    +0.000 Cl
ATOM     10  N   UNL     1      44.018   8.853  10.991  0.00  0.00    +0.000 NA
ATOM     11  N   UNL     1      45.035   8.529  11.839  0.00  0.00    +0.000 N 
ENDBRANCH   1   2
BRANCH   1  15
ATOM     12  C   UNL     1      45.365   3.993   8.476  0.00  0.00    +0.000 A 
ATOM     13  C   UNL     1      46.103   5.119   8.872  0.00  0.00    +0.000 A 
ATOM     14  C   UNL     1      45.792   5.800  10.050  0.00  0.00    +0.000 A 
ATOM     15  C   UNL     1      44.736   5.370  10.864  0.00  0.00    +0.000 A 
ATOM     16  C   UNL     1      43.986   4.257  10.461  0.00  0.00    +0.000 A 
ATOM     17  C   UNL     1      44.300   3.573   9.282  0.00  0.00    +0.000 A 
BRANCH  12  18
ATOM     18  C   UNL     1      45.706   3.264   7.201  0.00  0.00    +0.000 C 
BRANCH  18  19
ATOM     19  N   UNL     1      46.801   3.913   6.489  0.00  0.00    +0.000 NA
ATOM     20  H   UNL     1      47.222   3.249   5.843  0.00  0.00    +0.000 HD
ATOM     21  H   UNL     1      47.524   4.165   7.161  0.00  0.00    +0.000 HD
ENDBRANCH  18  19
ENDBRANCH  12  18
ENDBRANCH   1  15
TORSDOF 4
ENDMDL
MODEL 9
REMARK VINA RESULT:    -5.524      4.886      6.093
REMARK INTER + INTRA:          -7.014
REMARK INTER:                  -6.620
REMARK INTRA:                  -0.394
REMARK UNBOUND:                -0.359
REMARK  Name = 
REMARK  4 active torsions:
REMARK  status: ('A' for Active; 'I' for Inactive)
REMARK    1  A    between atoms: N_1  and  C_2
REMARK    2  A    between atoms: C_2  and  C_3
REMARK    3  A    between atoms: C_6  and  C_7
REMARK    4  A    between atoms: C_7  and  C_8
REMARK                            x       y       z     vdW  Elec       q    Type
REMARK                         _______ _______ _______ _____ _____    ______ ____
ROOT
ATOM      1  C   UNL     1      48.269   6.275  13.145  0.00  0.00    +0.000 C 
ENDROOT
BRANCH   1   2
ATOM      2  C   UNL     1      48.455   7.032  14.410  0.00  0.00    +0.000 A 
ATOM      3  C   UNL     1      48.458   8.388  14.666  0.00  0.00    +0.000 A 
ATOM      4  N   UNL     1      48.701   8.649  15.989  0.00  0.00    +0.000 NA
ATOM      5  C   UNL     1      48.844   7.467  16.549  0.00  0.00    +0.000 A 
ATOM      6  C   UNL     1      49.133   7.104  17.881  0.00  0.00    +0.000 A 
ATOM      7  C   UNL     1      49.181   5.807  18.206  0.00  0.00    +0.000 A 
ATOM      8  C   UNL     1      48.917   4.819  17.125  0.00  0.00    +0.000 A 
ATOM      9 CL   UNL     1      48.922   3.138  17.519  0.00  0.00    +0.000 Cl
ATOM     10  N   UNL     1      48.678   5.100  15.882  0.00  0.00    +0.000 NA
ATOM     11  N   UNL     1      48.666   6.441  15.631  0.00  0.00    +0.000 N 
ENDBRANCH   1   2
BRANCH   1  15
ATOM     12  C   UNL     1      44.090   5.518  12.247  0.00  0.00    +0.000 A 
ATOM     13  C   UNL     1      44.813   4.658  13.088  0.00  0.00    +0.000 A 
ATOM     14  C   UNL     1      46.158   4.899  13.373  0.00  0.00    +0.000 A 
ATOM     15  C   UNL     1      46.813   6.010  12.827  0.00  0.00    +0.000 A 
ATOM     16  C   UNL     1      46.099   6.861  11.972  0.00  0.00    +0.000 A 
ATOM     17  C   UNL     1      44.751   6.620  11.688  0.00  0.00    +0.000 A 
BRANCH  12  18
ATOM     18  C   UNL     1      42.639   5.249  11.943  0.00  0.00    +0.000 C 
BRANCH  18  19
ATOM     19  N   UNL     1      41.887   6.488  11.777  0.00  0.00    +0.000 NA
ATOM     20  H   UNL     1      40.945   6.269  11.459  0.00  0.00    +0.000 HD
ATOM     21  H   UNL     1      42.324   7.037  11.037  0.00  0.00    +0.000 HD
ENDBRANCH  18  19
ENDBRANCH  12  18
ENDBRANCH   1  15
TORSDOF 4
ENDMDL
