MODEL 1
REMARK VINA RESULT:    -9.087      0.000      0.000
REMARK INTER + INTRA:         -14.409
REMARK INTER:                 -13.336
REMARK INTRA:                  -1.073
REMARK UNBOUND:                -1.073
REMARK  Name = 
REMARK  9 active torsions:
REMARK  status: ('A' for Active; 'I' for Inactive)
REMARK    1  A    between atoms: C_2  and  O_3
REMARK    2  A    between atoms: C_2  and  C_4
REMARK    3  A    between atoms: N_8  and  C_9
REMARK    4  A    between atoms: C_9  and  C_10
REMARK    5  A    between atoms: C_10  and  C_13
REMARK    6  A    between atoms: C_17  and  N_18
REMARK    7  A    between atoms: C_21  and  C_22
REMARK    8  A    between atoms: C_22  and  C_23
REMARK    9  A    between atoms: C_23  and  O_24
REMARK                            x       y       z     vdW  Elec       q    Type
REMARK                         _______ _______ _______ _____ _____    ______ ____
ROOT
ATOM      1  C   UNL     1      43.172   5.659  11.944  0.00  0.00    +0.000 C 
ATOM      2  F   UNL     1      42.285   6.634  11.572  0.00  0.00    +0.000 F 
ATOM      3  F   UNL     1      42.588   5.052  13.025  0.00  0.00    +0.000 F 
ENDROOT
BRANCH   1   4
ATOM      4  C   UNL     1      44.516   6.264  12.328  0.00  0.00    +0.000 A 
ATOM      5  C   UNL     1      44.799   7.565  11.894  0.00  0.00    +0.000 A 
ATOM      6  C   UNL     1      45.986   8.192  12.259  0.00  0.00    +0.000 A 
ATOM      7  C   UNL     1      46.905   7.527  13.077  0.00  0.00    +0.000 A 
ATOM      8  C   UNL     1      46.673   6.226  13.533  0.00  0.00    +0.000 A 
ATOM      9  C   UNL     1      45.475   5.611  13.128  0.00  0.00    +0.000 A 
BRANCH   8  10
ATOM     10  N   UNL     1      47.555   5.572  14.374  0.00  0.00    +0.000 N 
ATOM     11  C   UNL     1      47.302   4.203  14.830  0.00  0.00    +0.000 C 
ATOM     12  C   UNL     1      47.105   4.176  16.345  0.00  0.00    +0.000 C 
ATOM     13  C   UNL     1      48.265   4.859  17.096  0.00  0.00    +0.000 C 
ATOM     14  C   UNL     1      48.424   6.287  16.545  0.00  0.00    +0.000 C 
ATOM     15  C   UNL     1      48.641   6.303  15.029  0.00  0.00    +0.000 C 
BRANCH  13  16
ATOM     16  C   UNL     1      49.561   4.024  17.019  0.00  0.00    +0.000 C 
BRANCH  16  17
ATOM     17  C   UNL     1      49.342   2.532  17.256  0.00  0.00    +0.000 C 
BRANCH  17  18
ATOM     18  O   UNL     1      49.632   1.808  16.066  0.00  0.00    +0.000 OA
ATOM     19  H   UNL     1      50.440   2.184  15.684  0.00  0.00    +0.000 HD
ENDBRANCH  17  18
ENDBRANCH  16  17
ENDBRANCH  13  16
ENDBRANCH   8  10
ENDBRANCH   1   4
BRANCH   1  20
ATOM     20  C   UNL     1      43.240   4.617  10.802  0.00  0.00    +0.000 C 
BRANCH  20  25
ATOM     21  C   UNL     1      46.485   2.172   7.683  0.00  0.00    +0.000 A 
ATOM     22  C   UNL     1      45.702   1.720   8.734  0.00  0.00    +0.000 A 
ATOM     23  C   UNL     1      44.908   2.630   9.429  0.00  0.00    +0.000 A 
ATOM     24  C   UNL     1      44.904   3.976   9.063  0.00  0.00    +0.000 A 
ATOM     25  N   UNL     1      44.186   4.930   9.733  0.00  0.00    +0.000 N 
ATOM     26  N   UNL     1      45.644   4.416   8.025  0.00  0.00    +0.000 NA
ATOM     27  C   UNL     1      46.401   3.514   7.348  0.00  0.00    +0.000 A 
ATOM     28  H   UNL     1      44.208   5.861   9.331  0.00  0.00    +0.000 HD
BRANCH  21  30
ATOM     29  O   UNL     1      48.298   1.569   6.293  0.00  0.00    +0.000 OA
ATOM     30  C   UNL     1      47.330   1.215   6.945  0.00  0.00    +0.000 C 
BRANCH  30  31
ATOM     31  O   UNL     1      46.905  -0.062   7.007  0.00  0.00    +0.000 OA
ATOM     32  H   UNL     1      46.704  -0.492   6.154  0.00  0.00    +0.000 HD
ENDBRANCH  30  31
ENDBRANCH  21  30
ENDBRANCH  20  25
ENDBRANCH   1  20
TORSDOF 9
ENDMDL
MODEL 2
REMARK VINA RESULT:    -8.158      2.732      3.568
REMARK INTER + INTRA:         -13.046
REMARK INTER:                 -11.791
REMARK INTRA:                  -1.255
REMARK UNBOUND:                -1.073
REMARK  Name = 
REMARK  9 active torsions:
REMARK  status: ('A' for Active; 'I' for Inactive)
REMARK    1  A    between atoms: C_2  and  O_3
REMARK    2  A    between atoms: C_2  and  C_4
REMARK    3  A    between atoms: N_8  and  C_9
REMARK    4  A    between atoms: C_9  and  C_10
REMARK    5  A    between atoms: C_10  and  C_13
REMARK    6  A    between atoms: C_17  and  N_18
REMARK    7  A    between atoms: C_21  and  C_22
REMARK    8  A    between atoms: C_22  and  C_23
REMARK    9  A    between atoms: C_23  and  O_24
REMARK                            x       y       z     vdW  Elec       q    Type
REMARK                         _______ _______ _______ _____ _____    ______ ____
ROOT
ATOM      1  C   UNL     1      44.424   3.824  12.224  0.00  0.00    +0.000 C 
ATOM      2  F   UNL     1      43.588   3.798  13.310  0.00  0.00    +0.000 F 
ATOM      3  F   UNL     1      45.396   2.902  12.511  0.00  0.00    +0.000 F 
ENDROOT
BRANCH   1   4
ATOM      4  C   UNL     1      45.032   5.208  12.039  0.00  0.00    +0.000 A 
ATOM      5  C   UNL     1      44.208   6.228  11.548  0.00  0.00    +0.000 A 
ATOM      6  C   UNL     1      44.692   7.526  11.411  0.00  0.00    +0.000 A 
ATOM      7  C   UNL     1      46.009   7.823  11.775  0.00  0.00    +0.000 A 
ATOM      8  C   UNL     1      46.874   6.840  12.265  0.00  0.00    +0.000 A 
ATOM      9  C   UNL     1      46.363   5.535  12.371  0.00  0.00    +0.000 A 
BRANCH   8  10
ATOM     10  N   UNL     1      48.166   7.129  12.666  0.00  0.00    +0.000 N 
ATOM     11  C   UNL     1      48.589   6.958  14.057  0.00  0.00    +0.000 C 
ATOM     12  C   UNL     1      48.965   8.308  14.667  0.00  0.00    +0.000 C 
ATOM     13  C   UNL     1      49.996   9.068  13.810  0.00  0.00    +0.000 C 
ATOM     14  C   UNL     1      49.437   9.198  12.382  0.00  0.00    +0.000 C 
ATOM     15  C   UNL     1      49.082   7.839  11.772  0.00  0.00    +0.000 C 
BRANCH  13  16
ATOM     16  C   UNL     1      51.385   8.397  13.866  0.00  0.00    +0.000 C 
BRANCH  16  17
ATOM     17  C   UNL     1      52.325   8.845  12.750  0.00  0.00    +0.000 C 
BRANCH  17  18
ATOM     18  O   UNL     1      52.812   7.709  12.046  0.00  0.00    +0.000 OA
ATOM     19  H   UNL     1      53.654   7.452  12.451  0.00  0.00    +0.000 HD
ENDBRANCH  17  18
ENDBRANCH  16  17
ENDBRANCH  13  16
ENDBRANCH   8  10
ENDBRANCH   1   4
BRANCH   1  20
ATOM     20  C   UNL     1      43.630   3.303  11.002  0.00  0.00    +0.000 C 
BRANCH  20  25
ATOM     21  C   UNL     1      46.656   2.424   6.964  0.00  0.00    +0.000 A 
ATOM     22  C   UNL     1      46.086   3.590   7.449  0.00  0.00    +0.000 A 
ATOM     23  C   UNL     1      45.278   3.530   8.584  0.00  0.00    +0.000 A 
ATOM     24  C   UNL     1      45.057   2.308   9.219  0.00  0.00    +0.000 A 
ATOM     25  N   UNL     1      44.236   2.170  10.306  0.00  0.00    +0.000 N 
ATOM     26  N   UNL     1      45.630   1.174   8.765  0.00  0.00    +0.000 NA
ATOM     27  C   UNL     1      46.426   1.253   7.668  0.00  0.00    +0.000 A 
ATOM     28  H   UNL     1      44.209   1.245  10.722  0.00  0.00    +0.000 HD
BRANCH  21  30
ATOM     29  O   UNL     1      47.189   3.106   4.766  0.00  0.00    +0.000 OA
ATOM     30  C   UNL     1      47.508   2.480   5.762  0.00  0.00    +0.000 C 
BRANCH  30  31
ATOM     31  O   UNL     1      48.630   1.736   5.842  0.00  0.00    +0.000 OA
ATOM     32  H   UNL     1      49.012   1.625   6.733  0.00  0.00    +0.000 HD
ENDBRANCH  30  31
ENDBRANCH  21  30
ENDBRANCH  20  25
ENDBRANCH   1  20
TORSDOF 9
ENDMDL
MODEL 3
REMARK VINA RESULT:    -8.037      1.801      2.233
REMARK INTER + INTRA:         -12.869
REMARK INTER:                 -11.884
REMARK INTRA:                  -0.984
REMARK UNBOUND:                -1.073
REMARK  Name = 
REMARK  9 active torsions:
REMARK  status: ('A' for Active; 'I' for Inactive)
REMARK    1  A    between atoms: C_2  and  O_3
REMARK    2  A    between atoms: C_2  and  C_4
REMARK    3  A    between atoms: N_8  and  C_9
REMARK    4  A    between atoms: C_9  and  C_10
REMARK    5  A    between atoms: C_10  and  C_13
REMARK    6  A    between atoms: C_17  and  N_18
REMARK    7  A    between atoms: C_21  and  C_22
REMARK    8  A    between atoms: C_22  and  C_23
REMARK    9  A    between atoms: C_23  and  O_24
REMARK                            x       y       z     vdW  Elec       q    Type
REMARK                         _______ _______ _______ _____ _____    ______ ____
ROOT
ATOM      1  C   UNL     1      43.885   5.028  12.272  0.00  0.00    +0.000 C 
ATOM      2  F   UNL     1      42.825   5.228  13.116  0.00  0.00    +0.000 F 
ATOM      3  F   UNL     1      44.398   3.811  12.640  0.00  0.00    +0.000 F 
ENDROOT
BRANCH   1   4
ATOM      4  C   UNL     1      44.929   6.124  12.441  0.00  0.00    +0.000 A 
ATOM      5  C   UNL     1      44.613   7.409  11.982  0.00  0.00    +0.000 A 
ATOM      6  C   UNL     1      45.503   8.464  12.159  0.00  0.00    +0.000 A 
ATOM      7  C   UNL     1      46.722   8.249  12.811  0.00  0.00    +0.000 A 
ATOM      8  C   UNL     1      47.087   6.985  13.283  0.00  0.00    +0.000 A 
ATOM      9  C   UNL     1      46.177   5.935  13.069  0.00  0.00    +0.000 A 
BRANCH   8  10
ATOM     10  N   UNL     1      48.271   6.766  13.963  0.00  0.00    +0.000 N 
ATOM     11  C   UNL     1      48.296   6.052  15.242  0.00  0.00    +0.000 C 
ATOM     12  C   UNL     1      48.770   6.980  16.359  0.00  0.00    +0.000 C 
ATOM     13  C   UNL     1      50.111   7.663  16.022  0.00  0.00    +0.000 C 
ATOM     14  C   UNL     1      49.958   8.389  14.674  0.00  0.00    +0.000 C 
ATOM     15  C   UNL     1      49.502   7.446  13.555  0.00  0.00    +0.000 C 
BRANCH  13  16
ATOM     16  C   UNL     1      51.281   6.657  16.047  0.00  0.00    +0.000 C 
BRANCH  16  17
ATOM     17  C   UNL     1      52.655   7.320  16.093  0.00  0.00    +0.000 C 
BRANCH  17  18
ATOM     18  O   UNL     1      53.478   6.792  15.060  0.00  0.00    +0.000 OA
ATOM     19  H   UNL     1      53.687   7.517  14.452  0.00  0.00    +0.000 HD
ENDBRANCH  17  18
ENDBRANCH  16  17
ENDBRANCH  13  16
ENDBRANCH   8  10
ENDBRANCH   1   4
BRANCH   1  20
ATOM     20  C   UNL     1      43.329   4.887  10.835  0.00  0.00    +0.000 C 
BRANCH  20  25
ATOM     21  C   UNL     1      46.447   2.243   7.749  0.00  0.00    +0.000 A 
ATOM     22  C   UNL     1      45.636   1.843   8.800  0.00  0.00    +0.000 A 
ATOM     23  C   UNL     1      44.891   2.800   9.485  0.00  0.00    +0.000 A 
ATOM     24  C   UNL     1      44.962   4.142   9.109  0.00  0.00    +0.000 A 
ATOM     25  N   UNL     1      44.295   5.139   9.769  0.00  0.00    +0.000 N 
ATOM     26  N   UNL     1      45.730   4.532   8.071  0.00  0.00    +0.000 NA
ATOM     27  C   UNL     1      46.439   3.585   7.404  0.00  0.00    +0.000 A 
ATOM     28  H   UNL     1      44.370   6.064   9.360  0.00  0.00    +0.000 HD
BRANCH  21  30
ATOM     29  O   UNL     1      48.074   1.542   6.186  0.00  0.00    +0.000 OA
ATOM     30  C   UNL     1      47.241   1.236   7.023  0.00  0.00    +0.000 C 
BRANCH  30  31
ATOM     31  O   UNL     1      46.924  -0.040   7.320  0.00  0.00    +0.000 OA
ATOM     32  H   UNL     1      46.026  -0.331   7.073  0.00  0.00    +0.000 HD
ENDBRANCH  30  31
ENDBRANCH  21  30
ENDBRANCH  20  25
ENDBRANCH   1  20
TORSDOF 9
ENDMDL
MODEL 4
REMARK VINA RESULT:    -7.506      1.693      7.664
REMARK INTER + INTRA:         -12.089
REMARK INTER:                 -10.893
REMARK INTRA:                  -1.196
REMARK UNBOUND:                -1.073
REMARK  Name = 
REMARK  9 active torsions:
REMARK  status: ('A' for Active; 'I' for Inactive)
REMARK    1  A    between atoms: C_2  and  O_3
REMARK    2  A    between atoms: C_2  and  C_4
REMARK    3  A    between atoms: N_8  and  C_9
REMARK    4  A    between atoms: C_9  and  C_10
REMARK    5  A    between atoms: C_10  and  C_13
REMARK    6  A    between atoms: C_17  and  N_18
REMARK    7  A    between atoms: C_21  and  C_22
REMARK    8  A    between atoms: C_22  and  C_23
REMARK    9  A    between atoms: C_23  and  O_24
REMARK                            x       y       z     vdW  Elec       q    Type
REMARK                         _______ _______ _______ _____ _____    ______ ____
ROOT
ATOM      1  C   UNL     1      45.794   7.703  12.200  0.00  0.00    +0.000 C 
ATOM      2  F   UNL     1      45.367   8.086  13.444  0.00  0.00    +0.000 F 
ATOM      3  F   UNL     1      45.530   8.780  11.394  0.00  0.00    +0.000 F 
ENDROOT
BRANCH   1   4
ATOM      4  C   UNL     1      45.034   6.473  11.720  0.00  0.00    +0.000 A 
ATOM      5  C   UNL     1      43.909   6.069  12.449  0.00  0.00    +0.000 A 
ATOM      6  C   UNL     1      43.142   4.987  12.028  0.00  0.00    +0.000 A 
ATOM      7  C   UNL     1      43.486   4.299  10.860  0.00  0.00    +0.000 A 
ATOM      8  C   UNL     1      44.602   4.658  10.100  0.00  0.00    +0.000 A 
ATOM      9  C   UNL     1      45.370   5.741  10.562  0.00  0.00    +0.000 A 
BRANCH   8  10
ATOM     10  N   UNL     1      44.931   4.011   8.922  0.00  0.00    +0.000 N 
ATOM     11  C   UNL     1      44.613   2.596   8.714  0.00  0.00    +0.000 C 
ATOM     12  C   UNL     1      45.897   1.780   8.570  0.00  0.00    +0.000 C 
ATOM     13  C   UNL     1      46.835   2.354   7.490  0.00  0.00    +0.000 C 
ATOM     14  C   UNL     1      47.107   3.832   7.821  0.00  0.00    +0.000 C 
ATOM     15  C   UNL     1      45.816   4.646   7.944  0.00  0.00    +0.000 C 
BRANCH  13  16
ATOM     16  C   UNL     1      46.266   2.139   6.071  0.00  0.00    +0.000 C 
BRANCH  16  17
ATOM     17  C   UNL     1      47.245   2.503   4.958  0.00  0.00    +0.000 C 
BRANCH  17  18
ATOM     18  O   UNL     1      48.522   1.940   5.238  0.00  0.00    +0.000 OA
ATOM     19  H   UNL     1      49.191   2.596   4.993  0.00  0.00    +0.000 HD
ENDBRANCH  17  18
ENDBRANCH  16  17
ENDBRANCH  13  16
ENDBRANCH   8  10
ENDBRANCH   1   4
BRANCH   1  20
ATOM     20  C   UNL     1      47.330   7.526  12.257  0.00  0.00    +0.000 C 
BRANCH  20  25
ATOM     21  C   UNL     1      47.748   4.207  16.136  0.00  0.00    +0.000 A 
ATOM     22  C   UNL     1      47.079   4.127  14.924  0.00  0.00    +0.000 A 
ATOM     23  C   UNL     1      47.129   5.210  14.049  0.00  0.00    +0.000 A 
ATOM     24  C   UNL     1      47.848   6.354  14.393  0.00  0.00    +0.000 A 
ATOM     25  N   UNL     1      47.898   7.471  13.603  0.00  0.00    +0.000 N 
ATOM     26  N   UNL     1      48.521   6.427  15.560  0.00  0.00    +0.000 NA
ATOM     27  C   UNL     1      48.475   5.358  16.395  0.00  0.00    +0.000 A 
ATOM     28  H   UNL     1      48.509   8.213  13.927  0.00  0.00    +0.000 HD
BRANCH  21  30
ATOM     29  O   UNL     1      48.620   2.279  17.186  0.00  0.00    +0.000 OA
ATOM     30  C   UNL     1      47.697   3.066  17.069  0.00  0.00    +0.000 C 
BRANCH  30  31
ATOM     31  O   UNL     1      46.528   2.940  17.727  0.00  0.00    +0.000 OA
ATOM     32  H   UNL     1      45.718   3.060  17.196  0.00  0.00    +0.000 HD
ENDBRANCH  30  31
ENDBRANCH  21  30
ENDBRANCH  20  25
ENDBRANCH   1  20
TORSDOF 9
ENDMDL
MODEL 5
REMARK VINA RESULT:    -7.159      3.390      4.477
REMARK INTER + INTRA:         -11.579
REMARK INTER:                 -10.444
REMARK INTRA:                  -1.135
REMARK UNBOUND:                -1.073
REMARK  Name = 
REMARK  9 active torsions:
REMARK  status: ('A' for Active; 'I' for Inactive)
REMARK    1  A    between atoms: C_2  and  O_3
REMARK    2  A    between atoms: C_2  and  C_4
REMARK    3  A    between atoms: N_8  and  C_9
REMARK    4  A    between atoms: C_9  and  C_10
REMARK    5  A    between atoms: C_10  and  C_13
REMARK    6  A    between atoms: C_17  and  N_18
REMARK    7  A    between atoms: C_21  and  C_22
REMARK    8  A    between atoms: C_22  and  C_23
REMARK    9  A    between atoms: C_23  and  O_24
REMARK                            x       y       z     vdW  Elec       q    Type
REMARK                         _______ _______ _______ _____ _____    ______ ____
ROOT
ATOM      1  C   UNL     1      44.772   5.859  12.183  0.00  0.00    +0.000 C 
ATOM      2  F   UNL     1      43.962   5.829  13.288  0.00  0.00    +0.000 F 
ATOM      3  F   UNL     1      45.680   4.854  12.391  0.00  0.00    +0.000 F 
ENDROOT
BRANCH   1   4
ATOM      4  C   UNL     1      45.477   7.204  12.063  0.00  0.00    +0.000 A 
ATOM      5  C   UNL     1      44.690   8.342  11.843  0.00  0.00    +0.000 A 
ATOM      6  C   UNL     1      45.271   9.604  11.780  0.00  0.00    +0.000 A 
ATOM      7  C   UNL     1      46.652   9.748  11.947  0.00  0.00    +0.000 A 
ATOM      8  C   UNL     1      47.482   8.644  12.163  0.00  0.00    +0.000 A 
ATOM      9  C   UNL     1      46.869   7.380  12.199  0.00  0.00    +0.000 A 
BRANCH   8  10
ATOM     10  N   UNL     1      48.844   8.776  12.369  0.00  0.00    +0.000 N 
ATOM     11  C   UNL     1      49.501  10.084  12.317  0.00  0.00    +0.000 C 
ATOM     12  C   UNL     1      50.494  10.133  11.157  0.00  0.00    +0.000 C 
ATOM     13  C   UNL     1      51.490   8.958  11.191  0.00  0.00    +0.000 C 
ATOM     14  C   UNL     1      50.688   7.645  11.228  0.00  0.00    +0.000 C 
ATOM     15  C   UNL     1      49.710   7.596  12.406  0.00  0.00    +0.000 C 
BRANCH  13  16
ATOM     16  C   UNL     1      52.492   9.097  12.357  0.00  0.00    +0.000 C 
BRANCH  16  17
ATOM     17  C   UNL     1      53.941   8.838  11.952  0.00  0.00    +0.000 C 
BRANCH  17  18
ATOM     18  O   UNL     1      54.199   9.431  10.685  0.00  0.00    +0.000 OA
ATOM     19  H   UNL     1      54.731  10.227  10.837  0.00  0.00    +0.000 HD
ENDBRANCH  17  18
ENDBRANCH  16  17
ENDBRANCH  13  16
ENDBRANCH   8  10
ENDBRANCH   1   4
BRANCH   1  20
ATOM     20  C   UNL     1      43.915   5.471  10.955  0.00  0.00    +0.000 C 
BRANCH  20  25
ATOM     21  C   UNL     1      46.507   2.785   7.447  0.00  0.00    +0.000 A 
ATOM     22  C   UNL     1      46.419   4.148   7.681  0.00  0.00    +0.000 A 
ATOM     23  C   UNL     1      45.610   4.608   8.719  0.00  0.00    +0.000 A 
ATOM     24  C   UNL     1      44.906   3.700   9.510  0.00  0.00    +0.000 A 
ATOM     25  N   UNL     1      44.057   4.086  10.513  0.00  0.00    +0.000 N 
ATOM     26  N   UNL     1      45.008   2.371   9.303  0.00  0.00    +0.000 NA
ATOM     27  C   UNL     1      45.812   1.939   8.297  0.00  0.00    +0.000 A 
ATOM     28  H   UNL     1      43.655   3.333  11.064  0.00  0.00    +0.000 HD
BRANCH  21  30
ATOM     29  O   UNL     1      47.977   1.244   6.424  0.00  0.00    +0.000 OA
ATOM     30  C   UNL     1      47.357   2.292   6.349  0.00  0.00    +0.000 C 
BRANCH  30  31
ATOM     31  O   UNL     1      47.434   3.123   5.291  0.00  0.00    +0.000 OA
ATOM     32  H   UNL     1      46.673   3.115   4.679  0.00  0.00    +0.000 HD
ENDBRANCH  30  31
ENDBRANCH  21  30
ENDBRANCH  20  25
ENDBRANCH   1  20
TORSDOF 9
ENDMDL
MODEL 6
REMARK VINA RESULT:    -6.452      4.012      7.906
REMARK INTER + INTRA:         -10.542
REMARK INTER:                  -8.850
REMARK INTRA:                  -1.691
REMARK UNBOUND:                -1.073
REMARK  Name = 
REMARK  9 active torsions:
REMARK  status: ('A' for Active; 'I' for Inactive)
REMARK    1  A    between atoms: C_2  and  O_3
REMARK    2  A    between atoms: C_2  and  C_4
REMARK    3  A    between atoms: N_8  and  C_9
REMARK    4  A    between atoms: C_9  and  C_10
REMARK    5  A    between atoms: C_10  and  C_13
REMARK    6  A    between atoms: C_17  and  N_18
REMARK    7  A    between atoms: C_21  and  C_22
REMARK    8  A    between atoms: C_22  and  C_23
REMARK    9  A    between atoms: C_23  and  O_24
REMARK                            x       y       z     vdW  Elec       q    Type
REMARK                         _______ _______ _______ _____ _____    ______ ____
ROOT
ATOM      1  C   UNL     1      50.730   9.069  13.968  0.00  0.00    +0.000 C 
ATOM      2  F   UNL     1      51.292  10.279  13.656  0.00  0.00    +0.000 F 
ATOM      3  F   UNL     1      51.572   8.141  13.413  0.00  0.00    +0.000 F 
ENDROOT
BRANCH   1   4
ATOM      4  C   UNL     1      49.332   8.950  13.374  0.00  0.00    +0.000 A 
ATOM      5  C   UNL     1      48.693  10.124  12.957  0.00  0.00    +0.000 A 
ATOM      6  C   UNL     1      47.439  10.072  12.355  0.00  0.00    +0.000 A 
ATOM      7  C   UNL     1      46.810   8.840  12.152  0.00  0.00    +0.000 A 
ATOM      8  C   UNL     1      47.403   7.640  12.555  0.00  0.00    +0.000 A 
ATOM      9  C   UNL     1      48.660   7.725  13.179  0.00  0.00    +0.000 A 
BRANCH   8  10
ATOM     10  N   UNL     1      46.811   6.411  12.324  0.00  0.00    +0.000 N 
ATOM     11  C   UNL     1      45.628   6.282  11.470  0.00  0.00    +0.000 C 
ATOM     12  C   UNL     1      44.434   5.794  12.289  0.00  0.00    +0.000 C 
ATOM     13  C   UNL     1      44.753   4.508  13.076  0.00  0.00    +0.000 C 
ATOM     14  C   UNL     1      45.998   4.769  13.943  0.00  0.00    +0.000 C 
ATOM     15  C   UNL     1      47.196   5.238  13.112  0.00  0.00    +0.000 C 
BRANCH  13  16
ATOM     16  C   UNL     1      44.903   3.290  12.140  0.00  0.00    +0.000 C 
BRANCH  16  17
ATOM     17  C   UNL     1      43.685   3.048  11.253  0.00  0.00    +0.000 C 
BRANCH  17  18
ATOM     18  O   UNL     1      43.013   1.866  11.671  0.00  0.00    +0.000 OA
ATOM     19  H   UNL     1      42.842   1.331  10.881  0.00  0.00    +0.000 HD
ENDBRANCH  17  18
ENDBRANCH  16  17
ENDBRANCH  13  16
ENDBRANCH   8  10
ENDBRANCH   1   4
BRANCH   1  20
ATOM     20  C   UNL     1      50.791   8.898  15.504  0.00  0.00    +0.000 C 
BRANCH  20  25
ATOM     21  C   UNL     1      48.682   4.631  17.398  0.00  0.00    +0.000 A 
ATOM     22  C   UNL     1      48.137   5.867  17.086  0.00  0.00    +0.000 A 
ATOM     23  C   UNL     1      48.967   6.869  16.587  0.00  0.00    +0.000 A 
ATOM     24  C   UNL     1      50.327   6.622  16.404  0.00  0.00    +0.000 A 
ATOM     25  N   UNL     1      51.207   7.575  15.965  0.00  0.00    +0.000 N 
ATOM     26  N   UNL     1      50.858   5.414  16.682  0.00  0.00    +0.000 NA
ATOM     27  C   UNL     1      50.033   4.443  17.152  0.00  0.00    +0.000 A 
ATOM     28  H   UNL     1      52.157   7.257  15.805  0.00  0.00    +0.000 HD
BRANCH  21  30
ATOM     29  O   UNL     1      46.780   3.230  17.370  0.00  0.00    +0.000 OA
ATOM     30  C   UNL     1      47.811   3.568  17.929  0.00  0.00    +0.000 C 
BRANCH  30  31
ATOM     31  O   UNL     1      48.219   3.050  19.104  0.00  0.00    +0.000 OA
ATOM     32  H   UNL     1      48.294   2.078  19.145  0.00  0.00    +0.000 HD
ENDBRANCH  30  31
ENDBRANCH  21  30
ENDBRANCH  20  25
ENDBRANCH   1  20
TORSDOF 9
ENDMDL
MODEL 7
REMARK VINA RESULT:    -6.265      3.316      8.297
REMARK INTER + INTRA:         -10.268
REMARK INTER:                  -9.079
REMARK INTRA:                  -1.189
REMARK UNBOUND:                -1.073
REMARK  Name = 
REMARK  9 active torsions:
REMARK  status: ('A' for Active; 'I' for Inactive)
REMARK    1  A    between atoms: C_2  and  O_3
REMARK    2  A    between atoms: C_2  and  C_4
REMARK    3  A    between atoms: N_8  and  C_9
REMARK    4  A    between atoms: C_9  and  C_10
REMARK    5  A    between atoms: C_10  and  C_13
REMARK    6  A    between atoms: C_17  and  N_18
REMARK    7  A    between atoms: C_21  and  C_22
REMARK    8  A    between atoms: C_22  and  C_23
REMARK    9  A    between atoms: C_23  and  O_24
REMARK                            x       y       z     vdW  Elec       q    Type
REMARK                         _______ _______ _______ _____ _____    ______ ____
ROOT
ATOM      1  C   UNL     1      49.592   8.753  11.888  0.00  0.00    +0.000 C 
ATOM      2  F   UNL     1      49.631   9.975  11.270  0.00  0.00    +0.000 F 
ATOM      3  F   UNL     1      50.204   7.899  11.009  0.00  0.00    +0.000 F 
ENDROOT
BRANCH   1   4
ATOM      4  C   UNL     1      48.155   8.321  12.147  0.00  0.00    +0.000 A 
ATOM      5  C   UNL     1      47.274   9.260  12.696  0.00  0.00    +0.000 A 
ATOM      6  C   UNL     1      45.935   8.941  12.903  0.00  0.00    +0.000 A 
ATOM      7  C   UNL     1      45.455   7.676  12.550  0.00  0.00    +0.000 A 
ATOM      8  C   UNL     1      46.294   6.700  12.004  0.00  0.00    +0.000 A 
ATOM      9  C   UNL     1      47.646   7.045  11.827  0.00  0.00    +0.000 A 
BRANCH   8  10
ATOM     10  N   UNL     1      45.825   5.459  11.614  0.00  0.00    +0.000 N 
ATOM     11  C   UNL     1      45.483   5.176  10.218  0.00  0.00    +0.000 C 
ATOM     12  C   UNL     1      43.990   4.881  10.087  0.00  0.00    +0.000 C 
ATOM     13  C   UNL     1      43.525   3.777  11.058  0.00  0.00    +0.000 C 
ATOM     14  C   UNL     1      43.924   4.192  12.486  0.00  0.00    +0.000 C 
ATOM     15  C   UNL     1      45.425   4.466  12.613  0.00  0.00    +0.000 C 
BRANCH  13  16
ATOM     16  C   UNL     1      44.070   2.393  10.647  0.00  0.00    +0.000 C 
BRANCH  16  17
ATOM     17  C   UNL     1      44.421   2.290   9.166  0.00  0.00    +0.000 C 
BRANCH  17  18
ATOM     18  O   UNL     1      45.580   1.481   9.002  0.00  0.00    +0.000 OA
ATOM     19  H   UNL     1      45.291   0.556   8.975  0.00  0.00    +0.000 HD
ENDBRANCH  17  18
ENDBRANCH  16  17
ENDBRANCH  13  16
ENDBRANCH   8  10
ENDBRANCH   1   4
BRANCH   1  20
ATOM     20  C   UNL     1      50.476   8.833  13.156  0.00  0.00    +0.000 C 
BRANCH  20  25
ATOM     21  C   UNL     1      48.661   7.147  17.639  0.00  0.00    +0.000 A 
ATOM     22  C   UNL     1      48.613   8.395  17.038  0.00  0.00    +0.000 A 
ATOM     23  C   UNL     1      49.215   8.573  15.794  0.00  0.00    +0.000 A 
ATOM     24  C   UNL     1      49.852   7.502  15.167  0.00  0.00    +0.000 A 
ATOM     25  N   UNL     1      50.505   7.620  13.969  0.00  0.00    +0.000 N 
ATOM     26  N   UNL     1      49.880   6.280  15.736  0.00  0.00    +0.000 NA
ATOM     27  C   UNL     1      49.275   6.119  16.941  0.00  0.00    +0.000 A 
ATOM     28  H   UNL     1      50.869   6.756  13.580  0.00  0.00    +0.000 HD
BRANCH  21  30
ATOM     29  O   UNL     1      47.347   7.815  19.486  0.00  0.00    +0.000 OA
ATOM     30  C   UNL     1      48.029   6.953  18.957  0.00  0.00    +0.000 C 
BRANCH  30  31
ATOM     31  O   UNL     1      48.320   5.775  19.543  0.00  0.00    +0.000 OA
ATOM     32  H   UNL     1      49.167   5.730  20.027  0.00  0.00    +0.000 HD
ENDBRANCH  30  31
ENDBRANCH  21  30
ENDBRANCH  20  25
ENDBRANCH   1  20
TORSDOF 9
ENDMDL
MODEL 8
REMARK VINA RESULT:    -6.242      3.299      4.902
REMARK INTER + INTRA:         -10.234
REMARK INTER:                  -9.445
REMARK INTRA:                  -0.789
REMARK UNBOUND:                -1.073
REMARK  Name = 
REMARK  9 active torsions:
REMARK  status: ('A' for Active; 'I' for Inactive)
REMARK    1  A    between atoms: C_2  and  O_3
REMARK    2  A    between atoms: C_2  and  C_4
REMARK    3  A    between atoms: N_8  and  C_9
REMARK    4  A    between atoms: C_9  and  C_10
REMARK    5  A    between atoms: C_10  and  C_13
REMARK    6  A    between atoms: C_17  and  N_18
REMARK    7  A    between atoms: C_21  and  C_22
REMARK    8  A    between atoms: C_22  and  C_23
REMARK    9  A    between atoms: C_23  and  O_24
REMARK                            x       y       z     vdW  Elec       q    Type
REMARK                         _______ _______ _______ _____ _____    ______ ____
ROOT
ATOM      1  C   UNL     1      48.454   8.266  12.149  0.00  0.00    +0.000 C 
ATOM      2  F   UNL     1      48.471   7.341  11.139  0.00  0.00    +0.000 F 
ATOM      3  F   UNL     1      48.525   9.478  11.512  0.00  0.00    +0.000 F 
ENDROOT
BRANCH   1   4
ATOM      4  C   UNL     1      49.644   8.077  13.080  0.00  0.00    +0.000 A 
ATOM      5  C   UNL     1      50.892   8.553  12.658  0.00  0.00    +0.000 A 
ATOM      6  C   UNL     1      52.005   8.459  13.488  0.00  0.00    +0.000 A 
ATOM      7  C   UNL     1      51.881   7.896  14.762  0.00  0.00    +0.000 A 
ATOM      8  C   UNL     1      50.660   7.400  15.229  0.00  0.00    +0.000 A 
ATOM      9  C   UNL     1      49.559   7.489  14.359  0.00  0.00    +0.000 A 
BRANCH   8  10
ATOM     10  N   UNL     1      50.516   6.877  16.501  0.00  0.00    +0.000 N 
ATOM     11  C   UNL     1      51.542   6.015  17.093  0.00  0.00    +0.000 C 
ATOM     12  C   UNL     1      50.983   4.613  17.332  0.00  0.00    +0.000 C 
ATOM     13  C   UNL     1      49.673   4.637  18.143  0.00  0.00    +0.000 C 
ATOM     14  C   UNL     1      48.673   5.557  17.420  0.00  0.00    +0.000 C 
ATOM     15  C   UNL     1      49.234   6.966  17.203  0.00  0.00    +0.000 C 
BRANCH  13  16
ATOM     16  C   UNL     1      49.922   5.038  19.612  0.00  0.00    +0.000 C 
BRANCH  16  17
ATOM     17  C   UNL     1      48.864   4.512  20.578  0.00  0.00    +0.000 C 
BRANCH  17  18
ATOM     18  O   UNL     1      48.399   3.242  20.136  0.00  0.00    +0.000 OA
ATOM     19  H   UNL     1      49.080   2.865  19.559  0.00  0.00    +0.000 HD
ENDBRANCH  17  18
ENDBRANCH  16  17
ENDBRANCH  13  16
ENDBRANCH   8  10
ENDBRANCH   1   4
BRANCH   1  20
ATOM     20  C   UNL     1      47.075   8.184  12.846  0.00  0.00    +0.000 C 
BRANCH  20  25
ATOM     21  C   UNL     1      44.743   3.854  11.412  0.00  0.00    +0.000 A 
ATOM     22  C   UNL     1      44.902   5.071  10.766  0.00  0.00    +0.000 A 
ATOM     23  C   UNL     1      45.585   6.099  11.414  0.00  0.00    +0.000 A 
ATOM     24  C   UNL     1      46.102   5.895  12.694  0.00  0.00    +0.000 A 
ATOM     25  N   UNL     1      46.740   6.876  13.405  0.00  0.00    +0.000 N 
ATOM     26  N   UNL     1      45.973   4.706  13.315  0.00  0.00    +0.000 NA
ATOM     27  C   UNL     1      45.318   3.709  12.664  0.00  0.00    +0.000 A 
ATOM     28  H   UNL     1      47.133   6.589  14.295  0.00  0.00    +0.000 HD
BRANCH  21  30
ATOM     29  O   UNL     1      44.214   2.480   9.564  0.00  0.00    +0.000 OA
ATOM     30  C   UNL     1      44.019   2.764  10.734  0.00  0.00    +0.000 C 
BRANCH  30  31
ATOM     31  O   UNL     1      43.090   2.156  11.497  0.00  0.00    +0.000 OA
ATOM     32  H   UNL     1      42.166   2.440  11.362  0.00  0.00    +0.000 HD
ENDBRANCH  30  31
ENDBRANCH  21  30
ENDBRANCH  20  25
ENDBRANCH   1  20
TORSDOF 9
ENDMDL
