MODEL 1
REMARK VINA RESULT:    -7.675      0.000      0.000
REMARK INTER + INTRA:         -10.742
REMARK INTER:                  -9.918
REMARK INTRA:                  -0.824
REMARK UNBOUND:                -0.824
REMARK  Name = 
REMARK  5 active torsions:
REMARK  status: ('A' for Active; 'I' for Inactive)
REMARK    1  A    between atoms: C_2  and  C_5
REMARK    2  A    between atoms: C_7  and  N_8
REMARK    3  A    between atoms: N_8  and  C_9
REMARK    4  A    between atoms: C_9  and  C_10
REMARK    5  A    between atoms: C_17  and  C_18
REMARK                            x       y       z     vdW  Elec       q    Type
REMARK                         _______ _______ _______ _____ _____    ______ ____
ROOT
ATOM      1  C   UNL     1      45.940   4.988  12.927  0.00  0.00    +0.000 A 
ATOM      2  C   UNL     1      45.428   4.117  11.962  0.00  0.00    +0.000 A 
ATOM      3  C   UNL     1      44.697   4.618  10.892  0.00  0.00    +0.000 A 
ATOM      4  N   UNL     1      44.453   5.935  10.770  0.00  0.00    +0.000 NA
ATOM      5  C   UNL     1      44.910   6.795  11.718  0.00  0.00    +0.000 A 
ATOM      6  C   UNL     1      45.657   6.351  12.805  0.00  0.00    +0.000 A 
ENDROOT
BRANCH   5   7
ATOM      7  C   UNL     1      44.568   8.211  11.513  0.00  0.00    +0.000 A 
ATOM      8  C   UNL     1      45.398   9.244  11.973  0.00  0.00    +0.000 A 
ATOM      9  C   UNL     1      45.052  10.580  11.768  0.00  0.00    +0.000 A 
ATOM     10  C   UNL     1      43.872  10.857  11.103  0.00  0.00    +0.000 A 
ATOM     11  N   UNL     1      43.037   9.905  10.639  0.00  0.00    +0.000 NA
ATOM     12  C   UNL     1      43.404   8.618  10.860  0.00  0.00    +0.000 A 
ENDBRANCH   5   7
BRANCH   1  14
ATOM     13  F   UNL     1      47.334   3.261  13.837  0.00  0.00    +0.000 F 
ATOM     14  C   UNL     1      46.806   4.497  14.053  0.00  0.00    +0.000 C 
ATOM     15  F   UNL     1      46.132   4.416  15.231  0.00  0.00    +0.000 F 
ATOM     16  F   UNL     1      47.866   5.320  14.285  0.00  0.00    +0.000 F 
ENDBRANCH   1  14
BRANCH   3  17
ATOM     17  N   UNL     1      44.288   3.726   9.907  0.00  0.00    +0.000 N 
ATOM     18  H   UNL     1      43.349   3.374  10.037  0.00  0.00    +0.000 HD
BRANCH  17  19
ATOM     19  C   UNL     1      44.707   3.944   8.535  0.00  0.00    +0.000 C 
BRANCH  19  20
ATOM     20  C   UNL     1      45.831   3.081   8.013  0.00  0.00    +0.000 A 
ATOM     21  C   UNL     1      45.827   1.718   8.346  0.00  0.00    +0.000 A 
ATOM     22  C   UNL     1      46.793   0.882   7.813  0.00  0.00    +0.000 A 
ATOM     23  N   UNL     1      47.758   1.301   6.972  0.00  0.00    +0.000 NA
ATOM     24  C   UNL     1      47.748   2.613   6.651  0.00  0.00    +0.000 A 
ATOM     25  C   UNL     1      46.818   3.527   7.130  0.00  0.00    +0.000 A 
ENDBRANCH  19  20
ENDBRANCH  17  19
ENDBRANCH   3  17
TORSDOF 5
ENDMDL
MODEL 2
REMARK VINA RESULT:    -7.642      2.913      5.234
REMARK INTER + INTRA:         -10.700
REMARK INTER:                  -9.896
REMARK INTRA:                  -0.804
REMARK UNBOUND:                -0.824
REMARK  Name = 
REMARK  5 active torsions:
REMARK  status: ('A' for Active; 'I' for Inactive)
REMARK    1  A    between atoms: C_2  and  C_5
REMARK    2  A    between atoms: C_7  and  N_8
REMARK    3  A    between atoms: N_8  and  C_9
REMARK    4  A    between atoms: C_9  and  C_10
REMARK    5  A    between atoms: C_17  and  C_18
REMARK                            x       y       z     vdW  Elec       q    Type
REMARK                         _______ _______ _______ _____ _____    ______ ____
ROOT
ATOM      1  C   UNL     1      45.970   6.223  12.587  0.00  0.00    +0.000 A 
ATOM      2  C   UNL     1      45.416   5.166  11.861  0.00  0.00    +0.000 A 
ATOM      3  C   UNL     1      45.530   3.864  12.336  0.00  0.00    +0.000 A 
ATOM      4  N   UNL     1      46.181   3.594  13.480  0.00  0.00    +0.000 NA
ATOM      5  C   UNL     1      46.760   4.604  14.181  0.00  0.00    +0.000 A 
ATOM      6  C   UNL     1      46.669   5.928  13.760  0.00  0.00    +0.000 A 
ENDROOT
BRANCH   5   7
ATOM      7  C   UNL     1      47.475   4.205  15.403  0.00  0.00    +0.000 A 
ATOM      8  C   UNL     1      47.898   2.885  15.612  0.00  0.00    +0.000 A 
ATOM      9  C   UNL     1      48.574   2.530  16.780  0.00  0.00    +0.000 A 
ATOM     10  C   UNL     1      48.812   3.512  17.724  0.00  0.00    +0.000 A 
ATOM     11  N   UNL     1      48.428   4.797  17.576  0.00  0.00    +0.000 NA
ATOM     12  C   UNL     1      47.770   5.104  16.430  0.00  0.00    +0.000 A 
ENDBRANCH   5   7
BRANCH   1  14
ATOM     13  F   UNL     1      45.290   8.461  13.124  0.00  0.00    +0.000 F 
ATOM     14  C   UNL     1      45.798   7.652  12.153  0.00  0.00    +0.000 C 
ATOM     15  F   UNL     1      44.961   7.776  11.088  0.00  0.00    +0.000 F 
ATOM     16  F   UNL     1      46.975   8.221  11.772  0.00  0.00    +0.000 F 
ENDBRANCH   1  14
BRANCH   3  17
ATOM     17  N   UNL     1      44.882   2.855  11.631  0.00  0.00    +0.000 N 
ATOM     18  H   UNL     1      44.358   2.218  12.215  0.00  0.00    +0.000 HD
BRANCH  17  19
ATOM     19  C   UNL     1      44.307   3.156  10.332  0.00  0.00    +0.000 C 
BRANCH  19  20
ATOM     20  C   UNL     1      45.177   2.913   9.122  0.00  0.00    +0.000 A 
ATOM     21  C   UNL     1      45.587   4.023   8.369  0.00  0.00    +0.000 A 
ATOM     22  C   UNL     1      46.456   3.844   7.306  0.00  0.00    +0.000 A 
ATOM     23  N   UNL     1      46.948   2.646   6.941  0.00  0.00    +0.000 NA
ATOM     24  C   UNL     1      46.555   1.584   7.678  0.00  0.00    +0.000 A 
ATOM     25  C   UNL     1      45.692   1.664   8.764  0.00  0.00    +0.000 A 
ENDBRANCH  19  20
ENDBRANCH  17  19
ENDBRANCH   3  17
TORSDOF 5
ENDMDL
MODEL 3
REMARK VINA RESULT:    -7.571      2.919      5.204
REMARK INTER + INTRA:         -10.609
REMARK INTER:                  -9.767
REMARK INTRA:                  -0.841
REMARK UNBOUND:                -0.824
REMARK  Name = 
REMARK  5 active torsions:
REMARK  status: ('A' for Active; 'I' for Inactive)
REMARK    1  A    between atoms: C_2  and  C_5
REMARK    2  A    between atoms: C_7  and  N_8
REMARK    3  A    between atoms: N_8  and  C_9
REMARK    4  A    between atoms: C_9  and  C_10
REMARK    5  A    between atoms: C_17  and  C_18
REMARK                            x       y       z     vdW  Elec       q    Type
REMARK                         _______ _______ _______ _____ _____    ______ ____
ROOT
ATOM      1  C   UNL     1      45.875   6.234  12.571  0.00  0.00    +0.000 A 
ATOM      2  C   UNL     1      45.306   5.171  11.867  0.00  0.00    +0.000 A 
ATOM      3  C   UNL     1      45.470   3.868  12.324  0.00  0.00    +0.000 A 
ATOM      4  N   UNL     1      46.186   3.603  13.430  0.00  0.00    +0.000 NA
ATOM      5  C   UNL     1      46.779   4.620  14.109  0.00  0.00    +0.000 A 
ATOM      6  C   UNL     1      46.639   5.945  13.704  0.00  0.00    +0.000 A 
ENDROOT
BRANCH   5   7
ATOM      7  C   UNL     1      47.564   4.228  15.289  0.00  0.00    +0.000 A 
ATOM      8  C   UNL     1      47.965   5.165  16.253  0.00  0.00    +0.000 A 
ATOM      9  C   UNL     1      48.711   4.769  17.363  0.00  0.00    +0.000 A 
ATOM     10  C   UNL     1      49.045   3.433  17.487  0.00  0.00    +0.000 A 
ATOM     11  N   UNL     1      48.686   2.489  16.592  0.00  0.00    +0.000 NA
ATOM     12  C   UNL     1      47.965   2.912  15.523  0.00  0.00    +0.000 A 
ENDBRANCH   5   7
BRANCH   1  14
ATOM     13  F   UNL     1      44.772   7.803  11.129  0.00  0.00    +0.000 F 
ATOM     14  C   UNL     1      45.651   7.663  12.160  0.00  0.00    +0.000 C 
ATOM     15  F   UNL     1      46.798   8.275  11.760  0.00  0.00    +0.000 F 
ATOM     16  F   UNL     1      45.158   8.421  13.177  0.00  0.00    +0.000 F 
ENDBRANCH   1  14
BRANCH   3  17
ATOM     17  N   UNL     1      44.808   2.852  11.644  0.00  0.00    +0.000 N 
ATOM     18  H   UNL     1      44.273   2.238  12.244  0.00  0.00    +0.000 HD
BRANCH  17  19
ATOM     19  C   UNL     1      44.239   3.126  10.337  0.00  0.00    +0.000 C 
BRANCH  19  20
ATOM     20  C   UNL     1      45.132   2.907   9.139  0.00  0.00    +0.000 A 
ATOM     21  C   UNL     1      45.521   4.029   8.391  0.00  0.00    +0.000 A 
ATOM     22  C   UNL     1      46.408   3.874   7.340  0.00  0.00    +0.000 A 
ATOM     23  N   UNL     1      46.939   2.689   6.982  0.00  0.00    +0.000 NA
ATOM     24  C   UNL     1      46.565   1.617   7.715  0.00  0.00    +0.000 A 
ATOM     25  C   UNL     1      45.686   1.673   8.789  0.00  0.00    +0.000 A 
ENDBRANCH  19  20
ENDBRANCH  17  19
ENDBRANCH   3  17
TORSDOF 5
ENDMDL
MODEL 4
REMARK VINA RESULT:    -7.358      2.662      3.443
REMARK INTER + INTRA:         -10.332
REMARK INTER:                  -9.622
REMARK INTRA:                  -0.710
REMARK UNBOUND:                -0.824
REMARK  Name = 
REMARK  5 active torsions:
REMARK  status: ('A' for Active; 'I' for Inactive)
REMARK    1  A    between atoms: C_2  and  C_5
REMARK    2  A    between atoms: C_7  and  N_8
REMARK    3  A    between atoms: N_8  and  C_9
REMARK    4  A    between atoms: C_9  and  C_10
REMARK    5  A    between atoms: C_17  and  C_18
REMARK                            x       y       z     vdW  Elec       q    Type
REMARK                         _______ _______ _______ _____ _____    ______ ____
ROOT
ATOM      1  C   UNL     1      44.393   5.160  12.048  0.00  0.00    +0.000 A 
ATOM      2  C   UNL     1      44.546   4.964  10.674  0.00  0.00    +0.000 A 
ATOM      3  C   UNL     1      45.632   5.521  10.010  0.00  0.00    +0.000 A 
ATOM      4  N   UNL     1      46.541   6.266  10.663  0.00  0.00    +0.000 NA
ATOM      5  C   UNL     1      46.390   6.499  11.993  0.00  0.00    +0.000 A 
ATOM      6  C   UNL     1      45.328   5.958  12.712  0.00  0.00    +0.000 A 
ENDROOT
BRANCH   5   7
ATOM      7  C   UNL     1      47.419   7.350  12.613  0.00  0.00    +0.000 A 
ATOM      8  C   UNL     1      48.738   7.375  12.137  0.00  0.00    +0.000 A 
ATOM      9  C   UNL     1      49.697   8.189  12.743  0.00  0.00    +0.000 A 
ATOM     10  C   UNL     1      49.313   8.964  13.821  0.00  0.00    +0.000 A 
ATOM     11  N   UNL     1      48.059   8.980  14.319  0.00  0.00    +0.000 NA
ATOM     12  C   UNL     1      47.155   8.173  13.708  0.00  0.00    +0.000 A 
ENDBRANCH   5   7
BRANCH   1  14
ATOM     13  F   UNL     1      43.670   4.008  14.025  0.00  0.00    +0.000 F 
ATOM     14  C   UNL     1      43.280   4.506  12.819  0.00  0.00    +0.000 C 
ATOM     15  F   UNL     1      42.723   3.464  12.145  0.00  0.00    +0.000 F 
ATOM     16  F   UNL     1      42.260   5.369  13.083  0.00  0.00    +0.000 F 
ENDBRANCH   1  14
BRANCH   3  17
ATOM     17  N   UNL     1      45.795   5.222   8.661  0.00  0.00    +0.000 N 
ATOM     18  H   UNL     1      46.717   5.429   8.303  0.00  0.00    +0.000 HD
BRANCH  17  19
ATOM     19  C   UNL     1      45.144   4.046   8.113  0.00  0.00    +0.000 C 
BRANCH  19  20
ATOM     20  C   UNL     1      46.034   2.989   7.503  0.00  0.00    +0.000 A 
ATOM     21  C   UNL     1      46.768   3.325   6.355  0.00  0.00    +0.000 A 
ATOM     22  C   UNL     1      47.659   2.410   5.822  0.00  0.00    +0.000 A 
ATOM     23  N   UNL     1      47.876   1.190   6.348  0.00  0.00    +0.000 NA
ATOM     24  C   UNL     1      47.171   0.879   7.459  0.00  0.00    +0.000 A 
ATOM     25  C   UNL     1      46.260   1.732   8.069  0.00  0.00    +0.000 A 
ENDBRANCH  19  20
ENDBRANCH  17  19
ENDBRANCH   3  17
TORSDOF 5
ENDMDL
MODEL 5
REMARK VINA RESULT:    -6.799      3.988      6.318
REMARK INTER + INTRA:          -9.610
REMARK INTER:                  -8.943
REMARK INTRA:                  -0.668
REMARK UNBOUND:                -0.824
REMARK  Name = 
REMARK  5 active torsions:
REMARK  status: ('A' for Active; 'I' for Inactive)
REMARK    1  A    between atoms: C_2  and  C_5
REMARK    2  A    between atoms: C_7  and  N_8
REMARK    3  A    between atoms: N_8  and  C_9
REMARK    4  A    between atoms: C_9  and  C_10
REMARK    5  A    between atoms: C_17  and  C_18
REMARK                            x       y       z     vdW  Elec       q    Type
REMARK                         _______ _______ _______ _____ _____    ______ ____
ROOT
ATOM      1  C   UNL     1      45.074   4.399  11.624  0.00  0.00    +0.000 A 
ATOM      2  C   UNL     1      45.552   3.680  12.722  0.00  0.00    +0.000 A 
ATOM      3  C   UNL     1      46.492   4.252  13.570  0.00  0.00    +0.000 A 
ATOM      4  N   UNL     1      46.971   5.488  13.348  0.00  0.00    +0.000 NA
ATOM      5  C   UNL     1      46.546   6.190  12.264  0.00  0.00    +0.000 A 
ATOM      6  C   UNL     1      45.598   5.672  11.386  0.00  0.00    +0.000 A 
ENDROOT
BRANCH   5   7
ATOM      7  C   UNL     1      47.149   7.521  12.089  0.00  0.00    +0.000 A 
ATOM      8  C   UNL     1      48.496   7.678  11.734  0.00  0.00    +0.000 A 
ATOM      9  C   UNL     1      49.046   8.951  11.575  0.00  0.00    +0.000 A 
ATOM     10  C   UNL     1      48.229  10.049  11.778  0.00  0.00    +0.000 A 
ATOM     11  N   UNL     1      46.928   9.956  12.120  0.00  0.00    +0.000 NA
ATOM     12  C   UNL     1      46.429   8.703  12.270  0.00  0.00    +0.000 A 
ENDBRANCH   5   7
BRANCH   1  14
ATOM     13  F   UNL     1      44.430   2.878   9.883  0.00  0.00    +0.000 F 
ATOM     14  C   UNL     1      43.995   3.851  10.731  0.00  0.00    +0.000 C 
ATOM     15  F   UNL     1      43.433   4.808   9.947  0.00  0.00    +0.000 F 
ATOM     16  F   UNL     1      42.971   3.299  11.439  0.00  0.00    +0.000 F 
ENDBRANCH   1  14
BRANCH   3  17
ATOM     17  N   UNL     1      46.869   3.537  14.702  0.00  0.00    +0.000 N 
ATOM     18  H   UNL     1      47.419   2.713  14.502  0.00  0.00    +0.000 HD
BRANCH  17  19
ATOM     19  C   UNL     1      47.213   4.258  15.914  0.00  0.00    +0.000 C 
BRANCH  19  20
ATOM     20  C   UNL     1      48.475   3.839  16.629  0.00  0.00    +0.000 A 
ATOM     21  C   UNL     1      48.872   2.497  16.538  0.00  0.00    +0.000 A 
ATOM     22  C   UNL     1      50.069   2.098  17.107  0.00  0.00    +0.000 A 
ATOM     23  N   UNL     1      50.900   2.936  17.756  0.00  0.00    +0.000 NA
ATOM     24  C   UNL     1      50.513   4.229  17.830  0.00  0.00    +0.000 A 
ATOM     25  C   UNL     1      49.335   4.724  17.287  0.00  0.00    +0.000 A 
ENDBRANCH  19  20
ENDBRANCH  17  19
ENDBRANCH   3  17
TORSDOF 5
ENDMDL
MODEL 6
REMARK VINA RESULT:    -6.638      3.628      7.229
REMARK INTER + INTRA:          -9.403
REMARK INTER:                  -8.782
REMARK INTRA:                  -0.621
REMARK UNBOUND:                -0.824
REMARK  Name = 
REMARK  5 active torsions:
REMARK  status: ('A' for Active; 'I' for Inactive)
REMARK    1  A    between atoms: C_2  and  C_5
REMARK    2  A    between atoms: C_7  and  N_8
REMARK    3  A    between atoms: N_8  and  C_9
REMARK    4  A    between atoms: C_9  and  C_10
REMARK    5  A    between atoms: C_17  and  C_18
REMARK                            x       y       z     vdW  Elec       q    Type
REMARK                         _______ _______ _______ _____ _____    ______ ____
ROOT
ATOM      1  C   UNL     1      45.321   7.949  11.908  0.00  0.00    +0.000 A 
ATOM      2  C   UNL     1      46.005   7.564  13.064  0.00  0.00    +0.000 A 
ATOM      3  C   UNL     1      46.381   6.237  13.238  0.00  0.00    +0.000 A 
ATOM      4  N   UNL     1      46.084   5.302  12.318  0.00  0.00    +0.000 NA
ATOM      5  C   UNL     1      45.387   5.650  11.204  0.00  0.00    +0.000 A 
ATOM      6  C   UNL     1      44.994   6.965  10.972  0.00  0.00    +0.000 A 
ENDROOT
BRANCH   5   7
ATOM      7  C   UNL     1      45.085   4.553  10.272  0.00  0.00    +0.000 A 
ATOM      8  C   UNL     1      45.472   4.604   8.925  0.00  0.00    +0.000 A 
ATOM      9  C   UNL     1      45.173   3.551   8.059  0.00  0.00    +0.000 A 
ATOM     10  C   UNL     1      44.486   2.462   8.562  0.00  0.00    +0.000 A 
ATOM     11  N   UNL     1      44.090   2.359   9.848  0.00  0.00    +0.000 NA
ATOM     12  C   UNL     1      44.395   3.403  10.660  0.00  0.00    +0.000 A 
ENDBRANCH   5   7
BRANCH   1  14
ATOM     13  F   UNL     1      44.090   9.554  10.617  0.00  0.00    +0.000 F 
ATOM     14  C   UNL     1      44.970   9.387  11.642  0.00  0.00    +0.000 C 
ATOM     15  F   UNL     1      46.060  10.138  11.327  0.00  0.00    +0.000 F 
ATOM     16  F   UNL     1      44.403   9.988  12.724  0.00  0.00    +0.000 F 
ENDBRANCH   1  14
BRANCH   3  17
ATOM     17  N   UNL     1      47.141   5.917  14.357  0.00  0.00    +0.000 N 
ATOM     18  H   UNL     1      47.240   6.677  15.017  0.00  0.00    +0.000 HD
BRANCH  17  19
ATOM     19  C   UNL     1      47.041   4.584  14.924  0.00  0.00    +0.000 C 
BRANCH  19  20
ATOM     20  C   UNL     1      47.722   4.349  16.252  0.00  0.00    +0.000 A 
ATOM     21  C   UNL     1      48.542   5.366  16.763  0.00  0.00    +0.000 A 
ATOM     22  C   UNL     1      49.110   5.219  18.017  0.00  0.00    +0.000 A 
ATOM     23  N   UNL     1      48.919   4.140  18.799  0.00  0.00    +0.000 NA
ATOM     24  C   UNL     1      48.119   3.171  18.302  0.00  0.00    +0.000 A 
ATOM     25  C   UNL     1      47.501   3.229  17.059  0.00  0.00    +0.000 A 
ENDBRANCH  19  20
ENDBRANCH  17  19
ENDBRANCH   3  17
TORSDOF 5
ENDMDL
MODEL 7
REMARK VINA RESULT:    -6.553      4.674      7.053
REMARK INTER + INTRA:          -9.292
REMARK INTER:                  -8.522
REMARK INTRA:                  -0.771
REMARK UNBOUND:                -0.824
REMARK  Name = 
REMARK  5 active torsions:
REMARK  status: ('A' for Active; 'I' for Inactive)
REMARK    1  A    between atoms: C_2  and  C_5
REMARK    2  A    between atoms: C_7  and  N_8
REMARK    3  A    between atoms: N_8  and  C_9
REMARK    4  A    between atoms: C_9  and  C_10
REMARK    5  A    between atoms: C_17  and  C_18
REMARK                            x       y       z     vdW  Elec       q    Type
REMARK                         _______ _______ _______ _____ _____    ______ ____
ROOT
ATOM      1  C   UNL     1      45.838   5.340  12.266  0.00  0.00    +0.000 A 
ATOM      2  C   UNL     1      45.832   4.521  13.397  0.00  0.00    +0.000 A 
ATOM      3  C   UNL     1      46.851   4.627  14.336  0.00  0.00    +0.000 A 
ATOM      4  N   UNL     1      47.864   5.495  14.171  0.00  0.00    +0.000 NA
ATOM      5  C   UNL     1      47.908   6.275  13.058  0.00  0.00    +0.000 A 
ATOM      6  C   UNL     1      46.909   6.220  12.090  0.00  0.00    +0.000 A 
ENDROOT
BRANCH   5   7
ATOM      7  C   UNL     1      49.069   7.172  12.954  0.00  0.00    +0.000 A 
ATOM      8  C   UNL     1      49.494   7.686  11.720  0.00  0.00    +0.000 A 
ATOM      9  C   UNL     1      50.599   8.535  11.645  0.00  0.00    +0.000 A 
ATOM     10  C   UNL     1      51.263   8.852  12.816  0.00  0.00    +0.000 A 
ATOM     11  N   UNL     1      50.899   8.387  14.029  0.00  0.00    +0.000 NA
ATOM     12  C   UNL     1      49.822   7.561  14.062  0.00  0.00    +0.000 A 
ENDBRANCH   5   7
BRANCH   1  14
ATOM     13  F   UNL     1      43.816   6.330  11.435  0.00  0.00    +0.000 F 
ATOM     14  C   UNL     1      44.712   5.318  11.270  0.00  0.00    +0.000 C 
ATOM     15  F   UNL     1      43.992   4.166  11.325  0.00  0.00    +0.000 F 
ATOM     16  F   UNL     1      45.157   5.419   9.986  0.00  0.00    +0.000 F 
ENDBRANCH   1  14
BRANCH   3  17
ATOM     17  N   UNL     1      46.754   3.859  15.492  0.00  0.00    +0.000 N 
ATOM     18  H   UNL     1      46.752   2.862  15.323  0.00  0.00    +0.000 HD
BRANCH  17  19
ATOM     19  C   UNL     1      47.431   4.304  16.696  0.00  0.00    +0.000 C 
BRANCH  19  20
ATOM     20  C   UNL     1      48.816   3.757  16.949  0.00  0.00    +0.000 A 
ATOM     21  C   UNL     1      49.805   4.644  17.400  0.00  0.00    +0.000 A 
ATOM     22  C   UNL     1      51.060   4.159  17.725  0.00  0.00    +0.000 A 
ATOM     23  N   UNL     1      51.401   2.860  17.638  0.00  0.00    +0.000 NA
ATOM     24  C   UNL     1      50.438   2.012  17.212  0.00  0.00    +0.000 A 
ATOM     25  C   UNL     1      49.150   2.402  16.869  0.00  0.00    +0.000 A 
ENDBRANCH  19  20
ENDBRANCH  17  19
ENDBRANCH   3  17
TORSDOF 5
ENDMDL
MODEL 8
REMARK VINA RESULT:    -6.386      3.480      6.071
REMARK INTER + INTRA:          -9.077
REMARK INTER:                  -8.421
REMARK INTRA:                  -0.656
REMARK UNBOUND:                -0.824
REMARK  Name = 
REMARK  5 active torsions:
REMARK  status: ('A' for Active; 'I' for Inactive)
REMARK    1  A    between atoms: C_2  and  C_5
REMARK    2  A    between atoms: C_7  and  N_8
REMARK    3  A    between atoms: N_8  and  C_9
REMARK    4  A    between atoms: C_9  and  C_10
REMARK    5  A    between atoms: C_17  and  C_18
REMARK                            x       y       z     vdW  Elec       q    Type
REMARK                         _______ _______ _______ _____ _____    ______ ____
ROOT
ATOM      1  C   UNL     1      44.771   5.056  11.460  0.00  0.00    +0.000 A 
ATOM      2  C   UNL     1      45.710   4.883  12.480  0.00  0.00    +0.000 A 
ATOM      3  C   UNL     1      46.203   5.988  13.164  0.00  0.00    +0.000 A 
ATOM      4  N   UNL     1      45.805   7.234  12.854  0.00  0.00    +0.000 NA
ATOM      5  C   UNL     1      44.920   7.426  11.840  0.00  0.00    +0.000 A 
ATOM      6  C   UNL     1      44.385   6.357  11.128  0.00  0.00    +0.000 A 
ENDROOT
BRANCH   5   7
ATOM      7  C   UNL     1      44.569   8.827  11.556  0.00  0.00    +0.000 A 
ATOM      8  C   UNL     1      43.529   9.161  10.677  0.00  0.00    +0.000 A 
ATOM      9  C   UNL     1      43.215  10.497  10.422  0.00  0.00    +0.000 A 
ATOM     10  C   UNL     1      43.956  11.478  11.057  0.00  0.00    +0.000 A 
ATOM     11  N   UNL     1      44.965  11.213  11.912  0.00  0.00    +0.000 NA
ATOM     12  C   UNL     1      45.245   9.904  12.132  0.00  0.00    +0.000 A 
ENDBRANCH   5   7
BRANCH   1  14
ATOM     13  F   UNL     1      43.778   4.152   9.471  0.00  0.00    +0.000 F 
ATOM     14  C   UNL     1      44.150   3.883  10.753  0.00  0.00    +0.000 C 
ATOM     15  F   UNL     1      43.031   3.430  11.381  0.00  0.00    +0.000 F 
ATOM     16  F   UNL     1      44.995   2.818  10.682  0.00  0.00    +0.000 F 
ENDBRANCH   1  14
BRANCH   3  17
ATOM     17  N   UNL     1      47.064   5.762  14.232  0.00  0.00    +0.000 N 
ATOM     18  H   UNL     1      47.231   6.578  14.804  0.00  0.00    +0.000 HD
BRANCH  17  19
ATOM     19  C   UNL     1      47.006   4.491  14.931  0.00  0.00    +0.000 C 
BRANCH  19  20
ATOM     20  C   UNL     1      47.698   4.411  16.272  0.00  0.00    +0.000 A 
ATOM     21  C   UNL     1      47.549   3.236  17.024  0.00  0.00    +0.000 A 
ATOM     22  C   UNL     1      48.240   3.096  18.215  0.00  0.00    +0.000 A 
ATOM     23  N   UNL     1      49.069   4.034  18.709  0.00  0.00    +0.000 NA
ATOM     24  C   UNL     1      49.213   5.158  17.973  0.00  0.00    +0.000 A 
ATOM     25  C   UNL     1      48.568   5.388  16.764  0.00  0.00    +0.000 A 
ENDBRANCH  19  20
ENDBRANCH  17  19
ENDBRANCH   3  17
TORSDOF 5
ENDMDL
MODEL 9
REMARK VINA RESULT:    -6.269      4.225      7.242
REMARK INTER + INTRA:          -8.925
REMARK INTER:                  -8.119
REMARK INTRA:                  -0.807
REMARK UNBOUND:                -0.824
REMARK  Name = 
REMARK  5 active torsions:
REMARK  status: ('A' for Active; 'I' for Inactive)
REMARK    1  A    between atoms: C_2  and  C_5
REMARK    2  A    between atoms: C_7  and  N_8
REMARK    3  A    between atoms: N_8  and  C_9
REMARK    4  A    between atoms: C_9  and  C_10
REMARK    5  A    between atoms: C_17  and  C_18
REMARK                            x       y       z     vdW  Elec       q    Type
REMARK                         _______ _______ _______ _____ _____    ______ ____
ROOT
ATOM      1  C   UNL     1      47.971   6.354  14.314  0.00  0.00    +0.000 A 
ATOM      2  C   UNL     1      47.972   5.489  15.411  0.00  0.00    +0.000 A 
ATOM      3  C   UNL     1      47.201   4.333  15.384  0.00  0.00    +0.000 A 
ATOM      4  N   UNL     1      46.434   4.031  14.322  0.00  0.00    +0.000 NA
ATOM      5  C   UNL     1      46.391   4.878  13.260  0.00  0.00    +0.000 A 
ATOM      6  C   UNL     1      47.149   6.045  13.228  0.00  0.00    +0.000 A 
ENDROOT
BRANCH   5   7
ATOM      7  C   UNL     1      45.500   4.478  12.160  0.00  0.00    +0.000 A 
ATOM      8  C   UNL     1      45.478   5.170  10.941  0.00  0.00    +0.000 A 
ATOM      9  C   UNL     1      44.623   4.772   9.912  0.00  0.00    +0.000 A 
ATOM     10  C   UNL     1      43.801   3.681  10.127  0.00  0.00    +0.000 A 
ATOM     11  N   UNL     1      43.781   2.979  11.278  0.00  0.00    +0.000 NA
ATOM     12  C   UNL     1      44.622   3.397  12.257  0.00  0.00    +0.000 A 
ENDBRANCH   5   7
BRANCH   1  14
ATOM     13  F   UNL     1      48.222   8.688  13.816  0.00  0.00    +0.000 F 
ATOM     14  C   UNL     1      48.854   7.570  14.268  0.00  0.00    +0.000 C 
ATOM     15  F   UNL     1      49.935   7.398  13.460  0.00  0.00    +0.000 F 
ATOM     16  F   UNL     1      49.352   7.892  15.494  0.00  0.00    +0.000 F 
ENDBRANCH   1  14
BRANCH   3  17
ATOM     17  N   UNL     1      47.306   3.455  16.458  0.00  0.00    +0.000 N 
ATOM     18  H   UNL     1      47.301   2.480  16.193  0.00  0.00    +0.000 HD
BRANCH  17  19
ATOM     19  C   UNL     1      48.152   3.810  17.583  0.00  0.00    +0.000 C 
BRANCH  19  20
ATOM     20  C   UNL     1      49.581   3.319  17.549  0.00  0.00    +0.000 A 
ATOM     21  C   UNL     1      50.590   4.193  17.980  0.00  0.00    +0.000 A 
ATOM     22  C   UNL     1      51.898   3.746  18.045  0.00  0.00    +0.000 A 
ATOM     23  N   UNL     1      52.274   2.496  17.718  0.00  0.00    +0.000 NA
ATOM     24  C   UNL     1      51.293   1.658  17.314  0.00  0.00    +0.000 A 
ATOM     25  C   UNL     1      49.953   2.013  17.221  0.00  0.00    +0.000 A 
ENDBRANCH  19  20
ENDBRANCH  17  19
ENDBRANCH   3  17
TORSDOF 5
ENDMDL
