MODEL 1
REMARK VINA RESULT:    -8.072      0.000      0.000
REMARK INTER + INTRA:         -11.894
REMARK INTER:                 -10.903
REMARK INTRA:                  -0.990
REMARK UNBOUND:                -0.990
REMARK  Name = 
REMARK  7 active torsions:
REMARK  status: ('A' for Active; 'I' for Inactive)
REMARK    1  A    between atoms: C_1  and  C_2
REMARK    2  A    between atoms: C_4  and  C_5
REMARK    3  A    between atoms: C_5  and  N_6
REMARK    4  A    between atoms: C_7  and  C_9
REMARK    5  A    between atoms: C_16  and  C_17
REMARK    6  A    between atoms: C_17  and  N_18
REMARK    7  A    between atoms: C_19  and  C_21
REMARK                            x       y       z     vdW  Elec       q    Type
REMARK                         _______ _______ _______ _____ _____    ______ ____
ROOT
ATOM      1  C   UNL     1      45.058   9.544  12.484  0.00  0.00    +0.000 C 
ATOM      2  C   UNL     1      45.520   8.138  12.213  0.00  0.00    +0.000 A 
ATOM      3  C   UNL     1      44.755   7.341  11.336  0.00  0.00    +0.000 A 
ATOM      4  C   UNL     1      45.108   6.016  11.046  0.00  0.00    +0.000 A 
ATOM      5  C   UNL     1      46.275   5.500  11.615  0.00  0.00    +0.000 A 
ATOM      6  C   UNL     1      47.037   6.274  12.499  0.00  0.00    +0.000 A 
ATOM      7  C   UNL     1      46.659   7.587  12.837  0.00  0.00    +0.000 A 
ENDROOT
BRANCH   4   8
ATOM      8  C   UNL     1      44.252   5.185  10.124  0.00  0.00    +0.000 C 
BRANCH   8   9
ATOM      9  N   UNL     1      45.047   4.517   9.122  0.00  0.00    +0.000 N 
ATOM     10  C   UNL     1      45.151   3.147   9.083  0.00  0.00    +0.000 C 
ATOM     11  O   UNL     1      44.594   2.415   9.895  0.00  0.00    +0.000 OA
ATOM     12  H   UNL     1      45.444   5.075   8.382  0.00  0.00    +0.000 HD
BRANCH  10  13
ATOM     13  C   UNL     1      45.960   2.628   8.009  0.00  0.00    +0.000 A 
ATOM     14  C   UNL     1      46.463   3.189   6.848  0.00  0.00    +0.000 A 
ATOM     15  C   UNL     1      47.188   2.159   6.223  0.00  0.00    +0.000 A 
ATOM     16  N   UNL     1      47.155   1.025   6.918  0.00  0.00    +0.000 NA
ATOM     17  N   UNL     1      46.413   1.337   7.998  0.00  0.00    +0.000 N 
ATOM     18  H   UNL     1      46.243   0.620   8.700  0.00  0.00    +0.000 HD
ENDBRANCH  10  13
ENDBRANCH   8   9
ENDBRANCH   4   8
BRANCH   7  19
ATOM     19  C   UNL     1      47.507   8.355  13.833  0.00  0.00    +0.000 C 
BRANCH  19  20
ATOM     20  N   UNL     1      47.845   7.536  14.972  0.00  0.00    +0.000 N 
ATOM     21  C   UNL     1      49.120   7.082  15.201  0.00  0.00    +0.000 C 
ATOM     22  O   UNL     1      50.061   7.366  14.464  0.00  0.00    +0.000 OA
ATOM     23  H   UNL     1      47.069   7.072  15.429  0.00  0.00    +0.000 HD
BRANCH  21  24
ATOM     24  C   UNL     1      49.315   6.298  16.432  0.00  0.00    +0.000 A 
ATOM     25  C   UNL     1      50.188   6.743  17.417  0.00  0.00    +0.000 A 
ATOM     26  S   UNL     1      50.183   5.777  18.824  0.00  0.00    +0.000 S 
ATOM     27  C   UNL     1      49.053   4.699  18.147  0.00  0.00    +0.000 A 
ATOM     28  N   UNL     1      48.592   3.630  18.850  0.00  0.00    +0.000 NA
ATOM     29  C   UNL     1      47.752   2.889  18.207  0.00  0.00    +0.000 A 
ATOM     30  N   UNL     1      47.344   3.112  16.918  0.00  0.00    +0.000 N 
ATOM     31  C   UNL     1      47.793   4.170  16.167  0.00  0.00    +0.000 A 
ATOM     32  O   UNL     1      47.426   4.324  15.006  0.00  0.00    +0.000 OA
ATOM     33  C   UNL     1      48.704   5.060  16.859  0.00  0.00    +0.000 A 
ATOM     34  H   UNL     1      46.701   2.483  16.461  0.00  0.00    +0.000 HD
ENDBRANCH  21  24
ENDBRANCH  19  20
ENDBRANCH   7  19
TORSDOF 6
ENDMDL
MODEL 2
REMARK VINA RESULT:    -7.827      1.272      1.742
REMARK INTER + INTRA:         -11.563
REMARK INTER:                 -10.419
REMARK INTRA:                  -1.144
REMARK UNBOUND:                -0.990
REMARK  Name = 
REMARK  7 active torsions:
REMARK  status: ('A' for Active; 'I' for Inactive)
REMARK    1  A    between atoms: C_1  and  C_2
REMARK    2  A    between atoms: C_4  and  C_5
REMARK    3  A    between atoms: C_5  and  N_6
REMARK    4  A    between atoms: C_7  and  C_9
REMARK    5  A    between atoms: C_16  and  C_17
REMARK    6  A    between atoms: C_17  and  N_18
REMARK    7  A    between atoms: C_19  and  C_21
REMARK                            x       y       z     vdW  Elec       q    Type
REMARK                         _______ _______ _______ _____ _____    ______ ____
ROOT
ATOM      1  C   UNL     1      48.377   7.159  11.467  0.00  0.00    +0.000 C 
ATOM      2  C   UNL     1      46.906   6.887  11.622  0.00  0.00    +0.000 A 
ATOM      3  C   UNL     1      46.331   5.861  10.844  0.00  0.00    +0.000 A 
ATOM      4  C   UNL     1      44.964   5.558  10.918  0.00  0.00    +0.000 A 
ATOM      5  C   UNL     1      44.173   6.271  11.823  0.00  0.00    +0.000 A 
ATOM      6  C   UNL     1      44.728   7.302  12.592  0.00  0.00    +0.000 A 
ATOM      7  C   UNL     1      46.087   7.648  12.483  0.00  0.00    +0.000 A 
ENDROOT
BRANCH   4   8
ATOM      8  C   UNL     1      44.378   4.472  10.052  0.00  0.00    +0.000 C 
BRANCH   8   9
ATOM      9  N   UNL     1      45.294   4.070   9.013  0.00  0.00    +0.000 N 
ATOM     10  C   UNL     1      45.399   2.759   8.614  0.00  0.00    +0.000 C 
ATOM     11  O   UNL     1      44.739   1.857   9.119  0.00  0.00    +0.000 OA
ATOM     12  H   UNL     1      45.786   4.792   8.509  0.00  0.00    +0.000 HD
BRANCH  10  13
ATOM     13  C   UNL     1      46.340   2.520   7.548  0.00  0.00    +0.000 A 
ATOM     14  C   UNL     1      46.671   3.225   6.405  0.00  0.00    +0.000 A 
ATOM     15  C   UNL     1      47.676   2.465   5.779  0.00  0.00    +0.000 A 
ATOM     16  N   UNL     1      47.967   1.358   6.458  0.00  0.00    +0.000 NA
ATOM     17  N   UNL     1      47.152   1.419   7.528  0.00  0.00    +0.000 N 
ATOM     18  H   UNL     1      47.190   0.671   8.217  0.00  0.00    +0.000 HD
ENDBRANCH  10  13
ENDBRANCH   8   9
ENDBRANCH   4   8
BRANCH   7  19
ATOM     19  C   UNL     1      46.613   8.803  13.315  0.00  0.00    +0.000 C 
BRANCH  19  20
ATOM     20  N   UNL     1      47.213   8.335  14.540  0.00  0.00    +0.000 N 
ATOM     21  C   UNL     1      48.514   8.612  14.878  0.00  0.00    +0.000 C 
ATOM     22  O   UNL     1      49.245   9.298  14.169  0.00  0.00    +0.000 OA
ATOM     23  H   UNL     1      46.740   7.563  14.997  0.00  0.00    +0.000 HD
BRANCH  21  24
ATOM     24  C   UNL     1      48.964   8.103  16.185  0.00  0.00    +0.000 A 
ATOM     25  C   UNL     1      49.544   8.963  17.109  0.00  0.00    +0.000 A 
ATOM     26  S   UNL     1      49.879   8.227  18.613  0.00  0.00    +0.000 S 
ATOM     27  C   UNL     1      49.310   6.720  18.064  0.00  0.00    +0.000 A 
ATOM     28  N   UNL     1      49.297   5.632  18.881  0.00  0.00    +0.000 NA
ATOM     29  C   UNL     1      48.854   4.553  18.328  0.00  0.00    +0.000 A 
ATOM     30  N   UNL     1      48.440   4.458  17.025  0.00  0.00    +0.000 N 
ATOM     31  C   UNL     1      48.448   5.525  16.161  0.00  0.00    +0.000 A 
ATOM     32  O   UNL     1      48.094   5.398  14.994  0.00  0.00    +0.000 OA
ATOM     33  C   UNL     1      48.893   6.774  16.747  0.00  0.00    +0.000 A 
ATOM     34  H   UNL     1      48.124   3.579  16.644  0.00  0.00    +0.000 HD
ENDBRANCH  21  24
ENDBRANCH  19  20
ENDBRANCH   7  19
TORSDOF 6
ENDMDL
MODEL 3
REMARK VINA RESULT:    -7.671      3.642      5.138
REMARK INTER + INTRA:         -11.352
REMARK INTER:                 -10.369
REMARK INTRA:                  -0.984
REMARK UNBOUND:                -0.990
REMARK  Name = 
REMARK  7 active torsions:
REMARK  status: ('A' for Active; 'I' for Inactive)
REMARK    1  A    between atoms: C_1  and  C_2
REMARK    2  A    between atoms: C_4  and  C_5
REMARK    3  A    between atoms: C_5  and  N_6
REMARK    4  A    between atoms: C_7  and  C_9
REMARK    5  A    between atoms: C_16  and  C_17
REMARK    6  A    between atoms: C_17  and  N_18
REMARK    7  A    between atoms: C_19  and  C_21
REMARK                            x       y       z     vdW  Elec       q    Type
REMARK                         _______ _______ _______ _____ _____    ______ ____
ROOT
ATOM      1  C   UNL     1      47.082   5.568  13.831  0.00  0.00    +0.000 C 
ATOM      2  C   UNL     1      45.952   5.562  12.837  0.00  0.00    +0.000 A 
ATOM      3  C   UNL     1      45.583   4.332  12.254  0.00  0.00    +0.000 A 
ATOM      4  C   UNL     1      44.553   4.245  11.308  0.00  0.00    +0.000 A 
ATOM      5  C   UNL     1      43.854   5.409  10.977  0.00  0.00    +0.000 A 
ATOM      6  C   UNL     1      44.219   6.640  11.537  0.00  0.00    +0.000 A 
ATOM      7  C   UNL     1      45.288   6.743  12.447  0.00  0.00    +0.000 A 
ENDROOT
BRANCH   4   8
ATOM      8  C   UNL     1      44.201   2.917  10.685  0.00  0.00    +0.000 C 
BRANCH   8   9
ATOM      9  N   UNL     1      45.186   2.511   9.713  0.00  0.00    +0.000 N 
ATOM     10  C   UNL     1      45.191   3.023   8.437  0.00  0.00    +0.000 C 
ATOM     11  O   UNL     1      44.360   3.836   8.045  0.00  0.00    +0.000 OA
ATOM     12  H   UNL     1      45.940   1.917  10.021  0.00  0.00    +0.000 HD
BRANCH  10  13
ATOM     13  C   UNL     1      46.252   2.539   7.590  0.00  0.00    +0.000 A 
ATOM     14  C   UNL     1      46.936   3.093   6.522  0.00  0.00    +0.000 A 
ATOM     15  C   UNL     1      47.867   2.114   6.131  0.00  0.00    +0.000 A 
ATOM     16  N   UNL     1      47.790   1.017   6.880  0.00  0.00    +0.000 NA
ATOM     17  N   UNL     1      46.812   1.303   7.760  0.00  0.00    +0.000 N 
ATOM     18  H   UNL     1      46.563   0.606   8.460  0.00  0.00    +0.000 HD
ENDBRANCH  10  13
ENDBRANCH   8   9
ENDBRANCH   4   8
BRANCH   7  19
ATOM     19  C   UNL     1      45.657   8.114  12.983  0.00  0.00    +0.000 C 
BRANCH  19  20
ATOM     20  N   UNL     1      46.783   8.668  12.271  0.00  0.00    +0.000 N 
ATOM     21  C   UNL     1      47.799   9.339  12.903  0.00  0.00    +0.000 C 
ATOM     22  O   UNL     1      47.828   9.489  14.122  0.00  0.00    +0.000 OA
ATOM     23  H   UNL     1      46.654   8.798  11.274  0.00  0.00    +0.000 HD
BRANCH  21  24
ATOM     24  C   UNL     1      48.900   9.803  12.044  0.00  0.00    +0.000 A 
ATOM     25  C   UNL     1      48.973  11.135  11.655  0.00  0.00    +0.000 A 
ATOM     26  S   UNL     1      50.386  11.515  10.774  0.00  0.00    +0.000 S 
ATOM     27  C   UNL     1      50.924   9.902  10.835  0.00  0.00    +0.000 A 
ATOM     28  N   UNL     1      52.109   9.534  10.276  0.00  0.00    +0.000 NA
ATOM     29  C   UNL     1      52.383   8.277  10.383  0.00  0.00    +0.000 A 
ATOM     30  N   UNL     1      51.572   7.350  10.985  0.00  0.00    +0.000 N 
ATOM     31  C   UNL     1      50.363   7.674  11.550  0.00  0.00    +0.000 A 
ATOM     32  O   UNL     1      49.650   6.814  12.057  0.00  0.00    +0.000 OA
ATOM     33  C   UNL     1      50.028   9.083  11.498  0.00  0.00    +0.000 A 
ATOM     34  H   UNL     1      51.831   6.376  11.017  0.00  0.00    +0.000 HD
ENDBRANCH  21  24
ENDBRANCH  19  20
ENDBRANCH   7  19
TORSDOF 6
ENDMDL
MODEL 4
REMARK VINA RESULT:    -7.452      1.979      2.446
REMARK INTER + INTRA:         -11.056
REMARK INTER:                 -10.033
REMARK INTRA:                  -1.023
REMARK UNBOUND:                -0.990
REMARK  Name = 
REMARK  7 active torsions:
REMARK  status: ('A' for Active; 'I' for Inactive)
REMARK    1  A    between atoms: C_1  and  C_2
REMARK    2  A    between atoms: C_4  and  C_5
REMARK    3  A    between atoms: C_5  and  N_6
REMARK    4  A    between atoms: C_7  and  C_9
REMARK    5  A    between atoms: C_16  and  C_17
REMARK    6  A    between atoms: C_17  and  N_18
REMARK    7  A    between atoms: C_19  and  C_21
REMARK                            x       y       z     vdW  Elec       q    Type
REMARK                         _______ _______ _______ _____ _____    ______ ____
ROOT
ATOM      1  C   UNL     1      45.553   8.747  12.119  0.00  0.00    +0.000 C 
ATOM      2  C   UNL     1      45.782   7.269  12.284  0.00  0.00    +0.000 A 
ATOM      3  C   UNL     1      44.924   6.381  11.603  0.00  0.00    +0.000 A 
ATOM      4  C   UNL     1      45.060   4.991  11.719  0.00  0.00    +0.000 A 
ATOM      5  C   UNL     1      46.106   4.488  12.498  0.00  0.00    +0.000 A 
ATOM      6  C   UNL     1      46.957   5.358  13.191  0.00  0.00    +0.000 A 
ATOM      7  C   UNL     1      46.792   6.754  13.123  0.00  0.00    +0.000 A 
ENDROOT
BRANCH   4   8
ATOM      8  C   UNL     1      44.109   4.070  10.997  0.00  0.00    +0.000 C 
BRANCH   8   9
ATOM      9  N   UNL     1      44.812   3.147  10.140  0.00  0.00    +0.000 N 
ATOM     10  C   UNL     1      45.249   3.515   8.891  0.00  0.00    +0.000 C 
ATOM     11  O   UNL     1      45.058   4.634   8.424  0.00  0.00    +0.000 OA
ATOM     12  H   UNL     1      45.070   2.250  10.521  0.00  0.00    +0.000 HD
BRANCH  10  13
ATOM     13  C   UNL     1      45.958   2.490   8.166  0.00  0.00    +0.000 A 
ATOM     14  C   UNL     1      46.794   2.519   7.064  0.00  0.00    +0.000 A 
ATOM     15  C   UNL     1      47.173   1.181   6.852  0.00  0.00    +0.000 A 
ATOM     16  N   UNL     1      46.625   0.355   7.740  0.00  0.00    +0.000 NA
ATOM     17  N   UNL     1      45.901   1.173   8.528  0.00  0.00    +0.000 N 
ATOM     18  H   UNL     1      45.379   0.770   9.304  0.00  0.00    +0.000 HD
ENDBRANCH  10  13
ENDBRANCH   8   9
ENDBRANCH   4   8
BRANCH   7  19
ATOM     19  C   UNL     1      47.723   7.637  13.932  0.00  0.00    +0.000 C 
BRANCH  19  20
ATOM     20  N   UNL     1      47.885   7.134  15.274  0.00  0.00    +0.000 N 
ATOM     21  C   UNL     1      49.100   6.734  15.771  0.00  0.00    +0.000 C 
ATOM     22  O   UNL     1      50.134   6.802  15.111  0.00  0.00    +0.000 OA
ATOM     23  H   UNL     1      47.039   6.817  15.733  0.00  0.00    +0.000 HD
BRANCH  21  24
ATOM     24  C   UNL     1      49.110   6.290  17.175  0.00  0.00    +0.000 A 
ATOM     25  C   UNL     1      49.586   5.028  17.507  0.00  0.00    +0.000 A 
ATOM     26  S   UNL     1      49.645   4.739  19.189  0.00  0.00    +0.000 S 
ATOM     27  C   UNL     1      48.987   6.271  19.531  0.00  0.00    +0.000 A 
ATOM     28  N   UNL     1      48.789   6.682  20.812  0.00  0.00    +0.000 NA
ATOM     29  C   UNL     1      48.269   7.859  20.922  0.00  0.00    +0.000 A 
ATOM     30  N   UNL     1      47.912   8.655  19.865  0.00  0.00    +0.000 N 
ATOM     31  C   UNL     1      48.081   8.276  18.556  0.00  0.00    +0.000 A 
ATOM     32  O   UNL     1      47.726   9.004  17.635  0.00  0.00    +0.000 OA
ATOM     33  C   UNL     1      48.706   6.981  18.378  0.00  0.00    +0.000 A 
ATOM     34  H   UNL     1      47.488   9.558  20.016  0.00  0.00    +0.000 HD
ENDBRANCH  21  24
ENDBRANCH  19  20
ENDBRANCH   7  19
TORSDOF 6
ENDMDL
MODEL 5
REMARK VINA RESULT:    -7.263      3.759      8.261
REMARK INTER + INTRA:         -10.801
REMARK INTER:                  -9.672
REMARK INTRA:                  -1.130
REMARK UNBOUND:                -0.990
REMARK  Name = 
REMARK  7 active torsions:
REMARK  status: ('A' for Active; 'I' for Inactive)
REMARK    1  A    between atoms: C_1  and  C_2
REMARK    2  A    between atoms: C_4  and  C_5
REMARK    3  A    between atoms: C_5  and  N_6
REMARK    4  A    between atoms: C_7  and  C_9
REMARK    5  A    between atoms: C_16  and  C_17
REMARK    6  A    between atoms: C_17  and  N_18
REMARK    7  A    between atoms: C_19  and  C_21
REMARK                            x       y       z     vdW  Elec       q    Type
REMARK                         _______ _______ _______ _____ _____    ______ ____
ROOT
ATOM      1  C   UNL     1      50.982   7.548  15.905  0.00  0.00    +0.000 C 
ATOM      2  C   UNL     1      50.007   6.453  16.244  0.00  0.00    +0.000 A 
ATOM      3  C   UNL     1      50.352   5.546  17.268  0.00  0.00    +0.000 A 
ATOM      4  C   UNL     1      49.507   4.489  17.631  0.00  0.00    +0.000 A 
ATOM      5  C   UNL     1      48.275   4.370  16.982  0.00  0.00    +0.000 A 
ATOM      6  C   UNL     1      47.925   5.255  15.954  0.00  0.00    +0.000 A 
ATOM      7  C   UNL     1      48.792   6.285  15.548  0.00  0.00    +0.000 A 
ENDROOT
BRANCH   4   8
ATOM      8  C   UNL     1      49.919   3.522  18.712  0.00  0.00    +0.000 C 
BRANCH   8   9
ATOM      9  N   UNL     1      51.236   2.985  18.470  0.00  0.00    +0.000 N 
ATOM     10  C   UNL     1      51.437   1.939  17.602  0.00  0.00    +0.000 C 
ATOM     11  O   UNL     1      50.520   1.391  16.998  0.00  0.00    +0.000 OA
ATOM     12  H   UNL     1      52.025   3.466  18.873  0.00  0.00    +0.000 HD
BRANCH  10  13
ATOM     13  C   UNL     1      52.812   1.532  17.446  0.00  0.00    +0.000 A 
ATOM     14  C   UNL     1      54.016   2.196  17.596  0.00  0.00    +0.000 A 
ATOM     15  C   UNL     1      55.006   1.239  17.308  0.00  0.00    +0.000 A 
ATOM     16  N   UNL     1      54.485   0.055  16.994  0.00  0.00    +0.000 NA
ATOM     17  N   UNL     1      53.157   0.257  17.093  0.00  0.00    +0.000 N 
ATOM     18  H   UNL     1      52.528  -0.520  16.901  0.00  0.00    +0.000 HD
ENDBRANCH  10  13
ENDBRANCH   8   9
ENDBRANCH   4   8
BRANCH   7  19
ATOM     19  C   UNL     1      48.369   7.182  14.399  0.00  0.00    +0.000 C 
BRANCH  19  20
ATOM     20  N   UNL     1      47.092   6.777  13.863  0.00  0.00    +0.000 N 
ATOM     21  C   UNL     1      46.843   6.716  12.515  0.00  0.00    +0.000 C 
ATOM     22  O   UNL     1      47.701   6.978  11.676  0.00  0.00    +0.000 OA
ATOM     23  H   UNL     1      46.309   6.821  14.505  0.00  0.00    +0.000 HD
BRANCH  21  24
ATOM     24  C   UNL     1      45.506   6.239  12.126  0.00  0.00    +0.000 A 
ATOM     25  C   UNL     1      44.570   7.123  11.604  0.00  0.00    +0.000 A 
ATOM     26  S   UNL     1      43.129   6.369  11.087  0.00  0.00    +0.000 S 
ATOM     27  C   UNL     1      43.683   4.841  11.590  0.00  0.00    +0.000 A 
ATOM     28  N   UNL     1      42.925   3.724  11.415  0.00  0.00    +0.000 NA
ATOM     29  C   UNL     1      43.463   2.638  11.859  0.00  0.00    +0.000 A 
ATOM     30  N   UNL     1      44.684   2.568  12.476  0.00  0.00    +0.000 N 
ATOM     31  C   UNL     1      45.477   3.670  12.686  0.00  0.00    +0.000 A 
ATOM     32  O   UNL     1      46.553   3.575  13.266  0.00  0.00    +0.000 OA
ATOM     33  C   UNL     1      44.939   4.910  12.164  0.00  0.00    +0.000 A 
ATOM     34  H   UNL     1      45.042   1.691  12.822  0.00  0.00    +0.000 HD
ENDBRANCH  21  24
ENDBRANCH  19  20
ENDBRANCH   7  19
TORSDOF 6
ENDMDL
MODEL 6
REMARK VINA RESULT:    -7.076      3.460      4.961
REMARK INTER + INTRA:         -10.549
REMARK INTER:                  -9.393
REMARK INTRA:                  -1.156
REMARK UNBOUND:                -0.990
REMARK  Name = 
REMARK  7 active torsions:
REMARK  status: ('A' for Active; 'I' for Inactive)
REMARK    1  A    between atoms: C_1  and  C_2
REMARK    2  A    between atoms: C_4  and  C_5
REMARK    3  A    between atoms: C_5  and  N_6
REMARK    4  A    between atoms: C_7  and  C_9
REMARK    5  A    between atoms: C_16  and  C_17
REMARK    6  A    between atoms: C_17  and  N_18
REMARK    7  A    between atoms: C_19  and  C_21
REMARK                            x       y       z     vdW  Elec       q    Type
REMARK                         _______ _______ _______ _____ _____    ______ ____
ROOT
ATOM      1  C   UNL     1      47.014   4.749  14.530  0.00  0.00    +0.000 C 
ATOM      2  C   UNL     1      46.379   5.337  13.300  0.00  0.00    +0.000 A 
ATOM      3  C   UNL     1      45.559   4.505  12.509  0.00  0.00    +0.000 A 
ATOM      4  C   UNL     1      44.946   4.972  11.338  0.00  0.00    +0.000 A 
ATOM      5  C   UNL     1      45.126   6.312  10.983  0.00  0.00    +0.000 A 
ATOM      6  C   UNL     1      45.948   7.146  11.751  0.00  0.00    +0.000 A 
ATOM      7  C   UNL     1      46.610   6.669  12.897  0.00  0.00    +0.000 A 
ENDROOT
BRANCH   4   8
ATOM      8  C   UNL     1      44.097   4.047  10.503  0.00  0.00    +0.000 C 
BRANCH   8   9
ATOM      9  N   UNL     1      44.904   3.084   9.794  0.00  0.00    +0.000 N 
ATOM     10  C   UNL     1      45.423   3.357   8.551  0.00  0.00    +0.000 C 
ATOM     11  O   UNL     1      45.224   4.417   7.967  0.00  0.00    +0.000 OA
ATOM     12  H   UNL     1      45.168   2.239  10.277  0.00  0.00    +0.000 HD
BRANCH  10  13
ATOM     13  C   UNL     1      46.229   2.305   7.983  0.00  0.00    +0.000 A 
ATOM     14  C   UNL     1      46.135   0.925   8.006  0.00  0.00    +0.000 A 
ATOM     15  C   UNL     1      47.228   0.466   7.250  0.00  0.00    +0.000 A 
ATOM     16  N   UNL     1      47.971   1.465   6.779  0.00  0.00    +0.000 NA
ATOM     17  N   UNL     1      47.341   2.567   7.230  0.00  0.00    +0.000 N 
ATOM     18  H   UNL     1      47.722   3.481   6.993  0.00  0.00    +0.000 HD
ENDBRANCH  10  13
ENDBRANCH   8   9
ENDBRANCH   4   8
BRANCH   7  19
ATOM     19  C   UNL     1      47.519   7.615  13.659  0.00  0.00    +0.000 C 
BRANCH  19  20
ATOM     20  N   UNL     1      48.882   7.515  13.198  0.00  0.00    +0.000 N 
ATOM     21  C   UNL     1      49.405   8.358  12.249  0.00  0.00    +0.000 C 
ATOM     22  O   UNL     1      48.751   9.269  11.749  0.00  0.00    +0.000 OA
ATOM     23  H   UNL     1      49.347   6.632  13.380  0.00  0.00    +0.000 HD
BRANCH  21  24
ATOM     24  C   UNL     1      50.826   8.158  11.919  0.00  0.00    +0.000 A 
ATOM     25  C   UNL     1      51.193   7.656  10.677  0.00  0.00    +0.000 A 
ATOM     26  S   UNL     1      52.882   7.619  10.426  0.00  0.00    +0.000 S 
ATOM     27  C   UNL     1      53.183   8.222  11.988  0.00  0.00    +0.000 A 
ATOM     28  N   UNL     1      54.452   8.452  12.421  0.00  0.00    +0.000 NA
ATOM     29  C   UNL     1      54.532   8.894  13.631  0.00  0.00    +0.000 A 
ATOM     30  N   UNL     1      53.459   9.111  14.455  0.00  0.00    +0.000 N 
ATOM     31  C   UNL     1      52.162   8.880  14.065  0.00  0.00    +0.000 A 
ATOM     32  O   UNL     1      51.227   9.060  14.838  0.00  0.00    +0.000 OA
ATOM     33  C   UNL     1      52.014   8.427  12.697  0.00  0.00    +0.000 A 
ATOM     34  H   UNL     1      53.588   9.437  15.401  0.00  0.00    +0.000 HD
ENDBRANCH  21  24
ENDBRANCH  19  20
ENDBRANCH   7  19
TORSDOF 6
ENDMDL
MODEL 7
REMARK VINA RESULT:    -6.973      4.762      7.236
REMARK INTER + INTRA:         -10.409
REMARK INTER:                  -9.481
REMARK INTRA:                  -0.928
REMARK UNBOUND:                -0.990
REMARK  Name = 
REMARK  7 active torsions:
REMARK  status: ('A' for Active; 'I' for Inactive)
REMARK    1  A    between atoms: C_1  and  C_2
REMARK    2  A    between atoms: C_4  and  C_5
REMARK    3  A    between atoms: C_5  and  N_6
REMARK    4  A    between atoms: C_7  and  C_9
REMARK    5  A    between atoms: C_16  and  C_17
REMARK    6  A    between atoms: C_17  and  N_18
REMARK    7  A    between atoms: C_19  and  C_21
REMARK                            x       y       z     vdW  Elec       q    Type
REMARK                         _______ _______ _______ _____ _____    ______ ____
ROOT
ATOM      1  C   UNL     1      47.350  10.841  11.784  0.00  0.00    +0.000 C 
ATOM      2  C   UNL     1      48.234   9.626  11.867  0.00  0.00    +0.000 A 
ATOM      3  C   UNL     1      49.549   9.722  11.368  0.00  0.00    +0.000 A 
ATOM      4  C   UNL     1      50.428   8.630  11.392  0.00  0.00    +0.000 A 
ATOM      5  C   UNL     1      49.988   7.436  11.970  0.00  0.00    +0.000 A 
ATOM      6  C   UNL     1      48.680   7.322  12.458  0.00  0.00    +0.000 A 
ATOM      7  C   UNL     1      47.775   8.397  12.387  0.00  0.00    +0.000 A 
ENDROOT
BRANCH   4   8
ATOM      8  C   UNL     1      51.819   8.761  10.826  0.00  0.00    +0.000 C 
BRANCH   8   9
ATOM      9  N   UNL     1      52.174   7.616  10.023  0.00  0.00    +0.000 N 
ATOM     10  C   UNL     1      52.874   7.750   8.848  0.00  0.00    +0.000 C 
ATOM     11  O   UNL     1      53.224   8.839   8.405  0.00  0.00    +0.000 OA
ATOM     12  H   UNL     1      51.987   6.698  10.397  0.00  0.00    +0.000 HD
BRANCH  10  13
ATOM     13  C   UNL     1      53.175   6.512   8.173  0.00  0.00    +0.000 A 
ATOM     14  C   UNL     1      53.937   5.410   8.515  0.00  0.00    +0.000 A 
ATOM     15  C   UNL     1      53.821   4.526   7.427  0.00  0.00    +0.000 A 
ATOM     16  N   UNL     1      53.051   5.017   6.459  0.00  0.00    +0.000 NA
ATOM     17  N   UNL     1      52.666   6.215   6.938  0.00  0.00    +0.000 N 
ATOM     18  H   UNL     1      52.052   6.796   6.370  0.00  0.00    +0.000 HD
ENDBRANCH  10  13
ENDBRANCH   8   9
ENDBRANCH   4   8
BRANCH   7  19
ATOM     19  C   UNL     1      46.360   8.192  12.894  0.00  0.00    +0.000 C 
BRANCH  19  20
ATOM     20  N   UNL     1      45.885   6.863  12.596  0.00  0.00    +0.000 N 
ATOM     21  C   UNL     1      44.840   6.628  11.738  0.00  0.00    +0.000 C 
ATOM     22  O   UNL     1      44.257   7.535  11.149  0.00  0.00    +0.000 OA
ATOM     23  H   UNL     1      46.153   6.140  13.254  0.00  0.00    +0.000 HD
BRANCH  21  24
ATOM     24  C   UNL     1      44.505   5.214  11.500  0.00  0.00    +0.000 A 
ATOM     25  C   UNL     1      43.804   4.489  12.455  0.00  0.00    +0.000 A 
ATOM     26  S   UNL     1      43.390   2.912  11.950  0.00  0.00    +0.000 S 
ATOM     27  C   UNL     1      44.179   3.123  10.457  0.00  0.00    +0.000 A 
ATOM     28  N   UNL     1      44.188   2.137   9.519  0.00  0.00    +0.000 NA
ATOM     29  C   UNL     1      44.837   2.430   8.442  0.00  0.00    +0.000 A 
ATOM     30  N   UNL     1      45.493   3.613   8.224  0.00  0.00    +0.000 N 
ATOM     31  C   UNL     1      45.522   4.630   9.146  0.00  0.00    +0.000 A 
ATOM     32  O   UNL     1      46.141   5.666   8.928  0.00  0.00    +0.000 OA
ATOM     33  C   UNL     1      44.768   4.370  10.356  0.00  0.00    +0.000 A 
ATOM     34  H   UNL     1      46.003   3.774   7.368  0.00  0.00    +0.000 HD
ENDBRANCH  21  24
ENDBRANCH  19  20
ENDBRANCH   7  19
TORSDOF 6
ENDMDL
MODEL 8
REMARK VINA RESULT:    -6.770      3.376      4.593
REMARK INTER + INTRA:         -10.135
REMARK INTER:                  -9.265
REMARK INTRA:                  -0.870
REMARK UNBOUND:                -0.990
REMARK  Name = 
REMARK  7 active torsions:
REMARK  status: ('A' for Active; 'I' for Inactive)
REMARK    1  A    between atoms: C_1  and  C_2
REMARK    2  A    between atoms: C_4  and  C_5
REMARK    3  A    between atoms: C_5  and  N_6
REMARK    4  A    between atoms: C_7  and  C_9
REMARK    5  A    between atoms: C_16  and  C_17
REMARK    6  A    between atoms: C_17  and  N_18
REMARK    7  A    between atoms: C_19  and  C_21
REMARK                            x       y       z     vdW  Elec       q    Type
REMARK                         _______ _______ _______ _____ _____    ______ ____
ROOT
ATOM      1  C   UNL     1      49.588   7.498  16.356  0.00  0.00    +0.000 C 
ATOM      2  C   UNL     1      48.646   6.602  15.600  0.00  0.00    +0.000 A 
ATOM      3  C   UNL     1      48.156   7.047  14.354  0.00  0.00    +0.000 A 
ATOM      4  C   UNL     1      47.261   6.279  13.597  0.00  0.00    +0.000 A 
ATOM      5  C   UNL     1      46.888   5.022  14.082  0.00  0.00    +0.000 A 
ATOM      6  C   UNL     1      47.356   4.573  15.324  0.00  0.00    +0.000 A 
ATOM      7  C   UNL     1      48.211   5.362  16.114  0.00  0.00    +0.000 A 
ENDROOT
BRANCH   4   8
ATOM      8  C   UNL     1      46.737   6.797  12.282  0.00  0.00    +0.000 C 
BRANCH   8   9
ATOM      9  N   UNL     1      46.378   5.720  11.392  0.00  0.00    +0.000 N 
ATOM     10  C   UNL     1      45.077   5.511  11.004  0.00  0.00    +0.000 C 
ATOM     11  O   UNL     1      44.147   6.209  11.396  0.00  0.00    +0.000 OA
ATOM     12  H   UNL     1      47.122   5.182  10.975  0.00  0.00    +0.000 HD
BRANCH  10  13
ATOM     13  C   UNL     1      44.882   4.410  10.093  0.00  0.00    +0.000 A 
ATOM     14  C   UNL     1      44.744   3.046  10.275  0.00  0.00    +0.000 A 
ATOM     15  C   UNL     1      44.571   2.516   8.983  0.00  0.00    +0.000 A 
ATOM     16  N   UNL     1      44.599   3.458   8.044  0.00  0.00    +0.000 NA
ATOM     17  N   UNL     1      44.780   4.595   8.741  0.00  0.00    +0.000 N 
ATOM     18  H   UNL     1      44.831   5.478   8.236  0.00  0.00    +0.000 HD
ENDBRANCH  10  13
ENDBRANCH   8   9
ENDBRANCH   4   8
BRANCH   7  19
ATOM     19  C   UNL     1      48.646   4.832  17.468  0.00  0.00    +0.000 C 
BRANCH  19  20
ATOM     20  N   UNL     1      50.009   4.362  17.432  0.00  0.00    +0.000 N 
ATOM     21  C   UNL     1      50.828   4.388  18.533  0.00  0.00    +0.000 C 
ATOM     22  O   UNL     1      50.444   4.792  19.628  0.00  0.00    +0.000 OA
ATOM     23  H   UNL     1      50.426   4.284  16.512  0.00  0.00    +0.000 HD
BRANCH  21  24
ATOM     24  C   UNL     1      52.177   3.828  18.348  0.00  0.00    +0.000 A 
ATOM     25  C   UNL     1      53.300   4.597  18.628  0.00  0.00    +0.000 A 
ATOM     26  S   UNL     1      54.770   3.741  18.484  0.00  0.00    +0.000 S 
ATOM     27  C   UNL     1      53.962   2.327  17.991  0.00  0.00    +0.000 A 
ATOM     28  N   UNL     1      54.646   1.183  17.720  0.00  0.00    +0.000 NA
ATOM     29  C   UNL     1      53.907   0.194  17.342  0.00  0.00    +0.000 A 
ATOM     30  N   UNL     1      52.546   0.250  17.195  0.00  0.00    +0.000 N 
ATOM     31  C   UNL     1      51.816   1.386  17.444  0.00  0.00    +0.000 A 
ATOM     32  O   UNL     1      50.601   1.408  17.275  0.00  0.00    +0.000 OA
ATOM     33  C   UNL     1      52.594   2.513  17.917  0.00  0.00    +0.000 A 
ATOM     34  H   UNL     1      52.025  -0.552  16.874  0.00  0.00    +0.000 HD
ENDBRANCH  21  24
ENDBRANCH  19  20
ENDBRANCH   7  19
TORSDOF 6
ENDMDL
MODEL 9
REMARK VINA RESULT:    -6.761      4.191      9.853
REMARK INTER + INTRA:         -10.123
REMARK INTER:                  -9.225
REMARK INTRA:                  -0.898
REMARK UNBOUND:                -0.990
REMARK  Name = 
REMARK  7 active torsions:
REMARK  status: ('A' for Active; 'I' for Inactive)
REMARK    1  A    between atoms: C_1  and  C_2
REMARK    2  A    between atoms: C_4  and  C_5
REMARK    3  A    between atoms: C_5  and  N_6
REMARK    4  A    between atoms: C_7  and  C_9
REMARK    5  A    between atoms: C_16  and  C_17
REMARK    6  A    between atoms: C_17  and  N_18
REMARK    7  A    between atoms: C_19  and  C_21
REMARK                            x       y       z     vdW  Elec       q    Type
REMARK                         _______ _______ _______ _____ _____    ______ ____
ROOT
ATOM      1  C   UNL     1      49.482   1.756  16.618  0.00  0.00    +0.000 C 
ATOM      2  C   UNL     1      49.617   3.105  17.270  0.00  0.00    +0.000 A 
ATOM      3  C   UNL     1      50.872   3.468  17.800  0.00  0.00    +0.000 A 
ATOM      4  C   UNL     1      51.075   4.699  18.438  0.00  0.00    +0.000 A 
ATOM      5  C   UNL     1      50.006   5.598  18.504  0.00  0.00    +0.000 A 
ATOM      6  C   UNL     1      48.750   5.245  17.995  0.00  0.00    +0.000 A 
ATOM      7  C   UNL     1      48.525   3.990  17.401  0.00  0.00    +0.000 A 
ENDROOT
BRANCH   4   8
ATOM      8  C   UNL     1      52.425   5.044  19.016  0.00  0.00    +0.000 C 
BRANCH   8   9
ATOM      9  N   UNL     1      53.055   3.892  19.613  0.00  0.00    +0.000 N 
ATOM     10  C   UNL     1      54.154   3.297  19.043  0.00  0.00    +0.000 C 
ATOM     11  O   UNL     1      54.655   3.694  17.995  0.00  0.00    +0.000 OA
ATOM     12  H   UNL     1      52.733   3.592  20.521  0.00  0.00    +0.000 HD
BRANCH  10  13
ATOM     13  C   UNL     1      54.685   2.171  19.772  0.00  0.00    +0.000 A 
ATOM     14  C   UNL     1      55.441   2.065  20.925  0.00  0.00    +0.000 A 
ATOM     15  C   UNL     1      55.626   0.684  21.121  0.00  0.00    +0.000 A 
ATOM     16  N   UNL     1      55.041  -0.042  20.171  0.00  0.00    +0.000 NA
ATOM     17  N   UNL     1      54.472   0.881  19.372  0.00  0.00    +0.000 N 
ATOM     18  H   UNL     1      53.948   0.568  18.557  0.00  0.00    +0.000 HD
ENDBRANCH  10  13
ENDBRANCH   8   9
ENDBRANCH   4   8
BRANCH   7  19
ATOM     19  C   UNL     1      47.129   3.657  16.909  0.00  0.00    +0.000 C 
BRANCH  19  20
ATOM     20  N   UNL     1      46.697   4.588  15.896  0.00  0.00    +0.000 N 
ATOM     21  C   UNL     1      46.767   4.305  14.554  0.00  0.00    +0.000 C 
ATOM     22  O   UNL     1      47.181   3.228  14.131  0.00  0.00    +0.000 OA
ATOM     23  H   UNL     1      46.614   5.554  16.190  0.00  0.00    +0.000 HD
BRANCH  21  24
ATOM     24  C   UNL     1      46.242   5.339  13.647  0.00  0.00    +0.000 A 
ATOM     25  C   UNL     1      47.010   6.454  13.337  0.00  0.00    +0.000 A 
ATOM     26  S   UNL     1      46.294   7.474  12.170  0.00  0.00    +0.000 S 
ATOM     27  C   UNL     1      44.910   6.489  12.077  0.00  0.00    +0.000 A 
ATOM     28  N   UNL     1      43.889   6.788  11.229  0.00  0.00    +0.000 NA
ATOM     29  C   UNL     1      42.897   5.963  11.275  0.00  0.00    +0.000 A 
ATOM     30  N   UNL     1      42.825   4.875  12.105  0.00  0.00    +0.000 N 
ATOM     31  C   UNL     1      43.825   4.543  12.985  0.00  0.00    +0.000 A 
ATOM     32  O   UNL     1      43.716   3.576  13.732  0.00  0.00    +0.000 OA
ATOM     33  C   UNL     1      44.984   5.412  12.940  0.00  0.00    +0.000 A 
ATOM     34  H   UNL     1      42.012   4.279  12.110  0.00  0.00    +0.000 HD
ENDBRANCH  21  24
ENDBRANCH  19  20
ENDBRANCH   7  19
TORSDOF 6
ENDMDL
