MODEL 1
REMARK VINA RESULT:    -8.300      0.000      0.000
REMARK INTER + INTRA:         -12.313
REMARK INTER:                 -11.212
REMARK INTRA:                  -1.102
REMARK UNBOUND:                -1.102
REMARK  Name = 
REMARK  6 active torsions:
REMARK  status: ('A' for Active; 'I' for Inactive)
REMARK    1  A    between atoms: C_2  and  C_19
REMARK    2  A    between atoms: N_3  and  C_4
REMARK    3  A    between atoms: C_4  and  C_5
REMARK    4  A    between atoms: C_8  and  C_9
REMARK    5  A    between atoms: C_9  and  N_10
REMARK    6  A    between atoms: N_10  and  C_11
REMARK                            x       y       z     vdW  Elec       q    Type
REMARK                         _______ _______ _______ _____ _____    ______ ____
ROOT
ATOM      1  C   UNL     1      46.820   8.053  13.203  0.00  0.00    +0.000 C 
ENDROOT
BRANCH   1   2
ATOM      2  C   UNL     1      46.099   7.010  12.396  0.00  0.00    +0.000 A 
ATOM      3  C   UNL     1      46.530   6.686  11.117  0.00  0.00    +0.000 A 
ATOM      4  N   UNL     1      45.919   5.748  10.353  0.00  0.00    +0.000 NA
ATOM      5  C   UNL     1      44.842   5.137  10.908  0.00  0.00    +0.000 A 
ATOM      6  C   UNL     1      44.396   5.491  12.179  0.00  0.00    +0.000 A 
ATOM      7  N   UNL     1      45.004   6.425  12.948  0.00  0.00    +0.000 NA
BRANCH   5   8
ATOM      8  C   UNL     1      44.099   4.083  10.113  0.00  0.00    +0.000 C 
BRANCH   8   9
ATOM      9  N   UNL     1      44.164   4.291   8.662  0.00  0.00    +0.000 NA
ATOM     10  H   UNL     1      44.543   5.212   8.451  0.00  0.00    +0.000 HD
BRANCH   9  11
ATOM     11  C   UNL     1      44.897   3.236   7.951  0.00  0.00    +0.000 C 
ATOM     12  C   UNL     1      45.316   2.064   8.850  0.00  0.00    +0.000 C 
ATOM     13  C   UNL     1      46.194   1.086   8.080  0.00  0.00    +0.000 C 
ATOM     14  O   UNL     1      47.336   1.749   7.542  0.00  0.00    +0.000 OA
ATOM     15  C   UNL     1      46.971   2.767   6.611  0.00  0.00    +0.000 C 
ATOM     16  C   UNL     1      46.140   3.849   7.289  0.00  0.00    +0.000 C 
ENDBRANCH   9  11
ENDBRANCH   8   9
ENDBRANCH   5   8
ENDBRANCH   1   2
BRANCH   1  19
ATOM     17  O   UNL     1      49.267   6.682  13.450  0.00  0.00    +0.000 OA
ATOM     18  C   UNL     1      48.553   6.805  14.438  0.00  0.00    +0.000 C 
ATOM     19  N   UNL     1      47.376   7.506  14.414  0.00  0.00    +0.000 N 
ATOM     20  H   UNL     1      46.801   7.577  15.240  0.00  0.00    +0.000 HD
BRANCH  18  21
ATOM     21  C   UNL     1      48.923   6.257  15.744  0.00  0.00    +0.000 A 
ATOM     22  C   UNL     1      49.954   6.821  16.477  0.00  0.00    +0.000 A 
ATOM     23  S   UNL     1      50.222   6.043  17.975  0.00  0.00    +0.000 S 
ATOM     24  C   UNL     1      48.984   4.912  17.673  0.00  0.00    +0.000 A 
ATOM     25  N   UNL     1      48.688   3.937  18.574  0.00  0.00    +0.000 NA
ATOM     26  C   UNL     1      47.734   3.145  18.211  0.00  0.00    +0.000 A 
ATOM     27  N   UNL     1      47.053   3.236  17.025  0.00  0.00    +0.000 N 
ATOM     28  C   UNL     1      47.314   4.200  16.088  0.00  0.00    +0.000 A 
ATOM     29  O   UNL     1      46.659   4.272  15.054  0.00  0.00    +0.000 OA
ATOM     30  C   UNL     1      48.372   5.127  16.455  0.00  0.00    +0.000 A 
ATOM     31  H   UNL     1      46.307   2.591  16.804  0.00  0.00    +0.000 HD
ENDBRANCH  18  21
ENDBRANCH   1  19
TORSDOF 6
ENDMDL
MODEL 2
REMARK VINA RESULT:    -7.658      2.094      3.654
REMARK INTER + INTRA:         -11.446
REMARK INTER:                 -10.630
REMARK INTRA:                  -0.817
REMARK UNBOUND:                -1.102
REMARK  Name = 
REMARK  6 active torsions:
REMARK  status: ('A' for Active; 'I' for Inactive)
REMARK    1  A    between atoms: C_2  and  C_19
REMARK    2  A    between atoms: N_3  and  C_4
REMARK    3  A    between atoms: C_4  and  C_5
REMARK    4  A    between atoms: C_8  and  C_9
REMARK    5  A    between atoms: C_9  and  N_10
REMARK    6  A    between atoms: N_10  and  C_11
REMARK                            x       y       z     vdW  Elec       q    Type
REMARK                         _______ _______ _______ _____ _____    ______ ____
ROOT
ATOM      1  C   UNL     1      46.540   4.604  14.536  0.00  0.00    +0.000 C 
ENDROOT
BRANCH   1   2
ATOM      2  C   UNL     1      45.962   4.455  13.157  0.00  0.00    +0.000 A 
ATOM      3  C   UNL     1      46.094   5.473  12.223  0.00  0.00    +0.000 A 
ATOM      4  N   UNL     1      45.597   5.384  10.965  0.00  0.00    +0.000 NA
ATOM      5  C   UNL     1      44.948   4.232  10.662  0.00  0.00    +0.000 A 
ATOM      6  C   UNL     1      44.791   3.228  11.615  0.00  0.00    +0.000 A 
ATOM      7  N   UNL     1      45.287   3.310  12.872  0.00  0.00    +0.000 NA
BRANCH   5   8
ATOM      8  C   UNL     1      44.355   4.059   9.279  0.00  0.00    +0.000 C 
BRANCH   8   9
ATOM      9  N   UNL     1      45.287   4.394   8.197  0.00  0.00    +0.000 NA
ATOM     10  H   UNL     1      46.048   4.973   8.548  0.00  0.00    +0.000 HD
BRANCH   9  11
ATOM     11  C   UNL     1      45.800   3.219   7.480  0.00  0.00    +0.000 C 
ATOM     12  C   UNL     1      46.030   1.999   8.384  0.00  0.00    +0.000 C 
ATOM     13  C   UNL     1      46.698   0.874   7.604  0.00  0.00    +0.000 C 
ATOM     14  O   UNL     1      47.923   1.318   7.027  0.00  0.00    +0.000 OA
ATOM     15  C   UNL     1      47.719   2.376   6.092  0.00  0.00    +0.000 C 
ATOM     16  C   UNL     1      47.113   3.595   6.778  0.00  0.00    +0.000 C 
ENDBRANCH   9  11
ENDBRANCH   8   9
ENDBRANCH   5   8
ENDBRANCH   1   2
BRANCH   1  19
ATOM     17  O   UNL     1      48.755   4.979  16.235  0.00  0.00    +0.000 OA
ATOM     18  C   UNL     1      48.365   5.918  15.552  0.00  0.00    +0.000 C 
ATOM     19  N   UNL     1      47.331   5.803  14.660  0.00  0.00    +0.000 N 
ATOM     20  H   UNL     1      47.021   6.598  14.123  0.00  0.00    +0.000 HD
BRANCH  18  21
ATOM     21  C   UNL     1      49.004   7.234  15.594  0.00  0.00    +0.000 A 
ATOM     22  C   UNL     1      49.068   7.947  16.780  0.00  0.00    +0.000 A 
ATOM     23  S   UNL     1      49.861   9.453  16.622  0.00  0.00    +0.000 S 
ATOM     24  C   UNL     1      50.117   9.206  14.955  0.00  0.00    +0.000 A 
ATOM     25  N   UNL     1      50.753  10.139  14.196  0.00  0.00    +0.000 NA
ATOM     26  C   UNL     1      50.869   9.824  12.949  0.00  0.00    +0.000 A 
ATOM     27  N   UNL     1      50.403   8.662  12.390  0.00  0.00    +0.000 N 
ATOM     28  C   UNL     1      49.759   7.694  13.113  0.00  0.00    +0.000 A 
ATOM     29  O   UNL     1      49.388   6.652  12.585  0.00  0.00    +0.000 OA
ATOM     30  C   UNL     1      49.613   7.994  14.528  0.00  0.00    +0.000 A 
ATOM     31  H   UNL     1      50.536   8.470  11.407  0.00  0.00    +0.000 HD
ENDBRANCH  18  21
ENDBRANCH   1  19
TORSDOF 6
ENDMDL
MODEL 3
REMARK VINA RESULT:    -7.493      1.930      2.401
REMARK INTER + INTRA:         -11.223
REMARK INTER:                 -10.504
REMARK INTRA:                  -0.719
REMARK UNBOUND:                -1.102
REMARK  Name = 
REMARK  6 active torsions:
REMARK  status: ('A' for Active; 'I' for Inactive)
REMARK    1  A    between atoms: C_2  and  C_19
REMARK    2  A    between atoms: N_3  and  C_4
REMARK    3  A    between atoms: C_4  and  C_5
REMARK    4  A    between atoms: C_8  and  C_9
REMARK    5  A    between atoms: C_9  and  N_10
REMARK    6  A    between atoms: N_10  and  C_11
REMARK                            x       y       z     vdW  Elec       q    Type
REMARK                         _______ _______ _______ _____ _____    ______ ____
ROOT
ATOM      1  C   UNL     1      47.554   6.881  13.573  0.00  0.00    +0.000 C 
ENDROOT
BRANCH   1   2
ATOM      2  C   UNL     1      46.648   6.105  12.660  0.00  0.00    +0.000 A 
ATOM      3  C   UNL     1      45.897   5.044  13.145  0.00  0.00    +0.000 A 
ATOM      4  N   UNL     1      45.060   4.318  12.364  0.00  0.00    +0.000 NA
ATOM      5  C   UNL     1      44.998   4.683  11.059  0.00  0.00    +0.000 A 
ATOM      6  C   UNL     1      45.780   5.728  10.571  0.00  0.00    +0.000 A 
ATOM      7  N   UNL     1      46.615   6.458  11.347  0.00  0.00    +0.000 NA
BRANCH   5   8
ATOM      8  C   UNL     1      44.093   3.915  10.119  0.00  0.00    +0.000 C 
BRANCH   8   9
ATOM      9  N   UNL     1      44.284   4.264   8.707  0.00  0.00    +0.000 NA
ATOM     10  H   UNL     1      44.732   5.175   8.622  0.00  0.00    +0.000 HD
BRANCH   9  11
ATOM     11  C   UNL     1      45.009   3.241   7.942  0.00  0.00    +0.000 C 
ATOM     12  C   UNL     1      45.450   2.037   8.788  0.00  0.00    +0.000 C 
ATOM     13  C   UNL     1      46.318   1.094   7.966  0.00  0.00    +0.000 C 
ATOM     14  O   UNL     1      47.447   1.783   7.434  0.00  0.00    +0.000 OA
ATOM     15  C   UNL     1      47.062   2.834   6.549  0.00  0.00    +0.000 C 
ATOM     16  C   UNL     1      46.238   3.885   7.283  0.00  0.00    +0.000 C 
ENDBRANCH   9  11
ENDBRANCH   8   9
ENDBRANCH   5   8
ENDBRANCH   1   2
BRANCH   1  19
ATOM     17  O   UNL     1      49.814   6.714  15.246  0.00  0.00    +0.000 OA
ATOM     18  C   UNL     1      48.757   6.222  15.624  0.00  0.00    +0.000 C 
ATOM     19  N   UNL     1      47.600   6.310  14.896  0.00  0.00    +0.000 N 
ATOM     20  H   UNL     1      46.748   5.881  15.225  0.00  0.00    +0.000 HD
BRANCH  18  21
ATOM     21  C   UNL     1      48.628   5.541  16.914  0.00  0.00    +0.000 A 
ATOM     22  C   UNL     1      48.718   4.161  16.991  0.00  0.00    +0.000 A 
ATOM     23  S   UNL     1      48.552   3.562  18.584  0.00  0.00    +0.000 S 
ATOM     24  C   UNL     1      48.328   5.130  19.211  0.00  0.00    +0.000 A 
ATOM     25  N   UNL     1      48.123   5.334  20.540  0.00  0.00    +0.000 NA
ATOM     26  C   UNL     1      47.960   6.571  20.873  0.00  0.00    +0.000 A 
ATOM     27  N   UNL     1      47.979   7.624  19.996  0.00  0.00    +0.000 N 
ATOM     28  C   UNL     1      48.183   7.470  18.651  0.00  0.00    +0.000 A 
ATOM     29  O   UNL     1      48.229   8.440  17.902  0.00  0.00    +0.000 OA
ATOM     30  C   UNL     1      48.386   6.095  18.225  0.00  0.00    +0.000 A 
ATOM     31  H   UNL     1      47.855   8.573  20.322  0.00  0.00    +0.000 HD
ENDBRANCH  18  21
ENDBRANCH   1  19
TORSDOF 6
ENDMDL
MODEL 4
REMARK VINA RESULT:    -7.080      2.590      3.714
REMARK INTER + INTRA:         -10.665
REMARK INTER:                 -10.131
REMARK INTRA:                  -0.534
REMARK UNBOUND:                -1.102
REMARK  Name = 
REMARK  6 active torsions:
REMARK  status: ('A' for Active; 'I' for Inactive)
REMARK    1  A    between atoms: C_2  and  C_19
REMARK    2  A    between atoms: N_3  and  C_4
REMARK    3  A    between atoms: C_4  and  C_5
REMARK    4  A    between atoms: C_8  and  C_9
REMARK    5  A    between atoms: C_9  and  N_10
REMARK    6  A    between atoms: N_10  and  C_11
REMARK                            x       y       z     vdW  Elec       q    Type
REMARK                         _______ _______ _______ _____ _____    ______ ____
ROOT
ATOM      1  C   UNL     1      46.832   5.113  14.269  0.00  0.00    +0.000 C 
ENDROOT
BRANCH   1   2
ATOM      2  C   UNL     1      46.167   4.752  12.971  0.00  0.00    +0.000 A 
ATOM      3  C   UNL     1      46.064   5.684  11.948  0.00  0.00    +0.000 A 
ATOM      4  N   UNL     1      45.480   5.406  10.757  0.00  0.00    +0.000 NA
ATOM      5  C   UNL     1      44.988   4.150  10.615  0.00  0.00    +0.000 A 
ATOM      6  C   UNL     1      45.066   3.230  11.658  0.00  0.00    +0.000 A 
ATOM      7  N   UNL     1      45.649   3.501  12.848  0.00  0.00    +0.000 NA
BRANCH   5   8
ATOM      8  C   UNL     1      44.312   3.764   9.316  0.00  0.00    +0.000 C 
BRANCH   8   9
ATOM      9  N   UNL     1      45.078   4.138   8.123  0.00  0.00    +0.000 NA
ATOM     10  H   UNL     1      45.777   4.842   8.355  0.00  0.00    +0.000 HD
BRANCH   9  11
ATOM     11  C   UNL     1      45.684   2.994   7.431  0.00  0.00    +0.000 C 
ATOM     12  C   UNL     1      46.057   1.835   8.368  0.00  0.00    +0.000 C 
ATOM     13  C   UNL     1      46.809   0.752   7.606  0.00  0.00    +0.000 C 
ATOM     14  O   UNL     1      47.969   1.292   6.977  0.00  0.00    +0.000 OA
ATOM     15  C   UNL     1      47.637   2.290   6.014  0.00  0.00    +0.000 C 
ATOM     16  C   UNL     1      46.934   3.469   6.676  0.00  0.00    +0.000 C 
ENDBRANCH   9  11
ENDBRANCH   8   9
ENDBRANCH   5   8
ENDBRANCH   1   2
BRANCH   1  19
ATOM     17  O   UNL     1      49.190   6.276  13.258  0.00  0.00    +0.000 OA
ATOM     18  C   UNL     1      48.383   6.986  13.849  0.00  0.00    +0.000 C 
ATOM     19  N   UNL     1      47.189   6.509  14.320  0.00  0.00    +0.000 N 
ATOM     20  H   UNL     1      46.551   7.113  14.818  0.00  0.00    +0.000 HD
BRANCH  18  21
ATOM     21  C   UNL     1      48.605   8.417  14.056  0.00  0.00    +0.000 A 
ATOM     22  C   UNL     1      48.709   9.276  12.974  0.00  0.00    +0.000 A 
ATOM     23  S   UNL     1      48.957  10.906  13.427  0.00  0.00    +0.000 S 
ATOM     24  C   UNL     1      48.960  10.504  15.083  0.00  0.00    +0.000 A 
ATOM     25  N   UNL     1      49.135  11.457  16.037  0.00  0.00    +0.000 NA
ATOM     26  C   UNL     1      49.123  11.009  17.249  0.00  0.00    +0.000 A 
ATOM     27  N   UNL     1      48.957   9.693  17.593  0.00  0.00    +0.000 N 
ATOM     28  C   UNL     1      48.777   8.699  16.669  0.00  0.00    +0.000 A 
ATOM     29  O   UNL     1      48.595   7.537  17.017  0.00  0.00    +0.000 OA
ATOM     30  C   UNL     1      48.768   9.153  15.289  0.00  0.00    +0.000 A 
ATOM     31  H   UNL     1      48.947   9.408  18.562  0.00  0.00    +0.000 HD
ENDBRANCH  18  21
ENDBRANCH   1  19
TORSDOF 6
ENDMDL
MODEL 5
REMARK VINA RESULT:    -7.054      1.820      2.128
REMARK INTER + INTRA:         -10.629
REMARK INTER:                  -9.767
REMARK INTRA:                  -0.862
REMARK UNBOUND:                -1.102
REMARK  Name = 
REMARK  6 active torsions:
REMARK  status: ('A' for Active; 'I' for Inactive)
REMARK    1  A    between atoms: C_2  and  C_19
REMARK    2  A    between atoms: N_3  and  C_4
REMARK    3  A    between atoms: C_4  and  C_5
REMARK    4  A    between atoms: C_8  and  C_9
REMARK    5  A    between atoms: C_9  and  N_10
REMARK    6  A    between atoms: N_10  and  C_11
REMARK                            x       y       z     vdW  Elec       q    Type
REMARK                         _______ _______ _______ _____ _____    ______ ____
ROOT
ATOM      1  C   UNL     1      48.497   6.794  13.697  0.00  0.00    +0.000 C 
ENDROOT
BRANCH   1   2
ATOM      2  C   UNL     1      47.368   6.159  12.938  0.00  0.00    +0.000 A 
ATOM      3  C   UNL     1      46.737   5.024  13.430  0.00  0.00    +0.000 A 
ATOM      4  N   UNL     1      45.710   4.418  12.787  0.00  0.00    +0.000 NA
ATOM      5  C   UNL     1      45.326   4.982  11.614  0.00  0.00    +0.000 A 
ATOM      6  C   UNL     1      45.985   6.101  11.110  0.00  0.00    +0.000 A 
ATOM      7  N   UNL     1      47.010   6.712  11.749  0.00  0.00    +0.000 NA
BRANCH   5   8
ATOM      8  C   UNL     1      44.190   4.357  10.830  0.00  0.00    +0.000 C 
BRANCH   8   9
ATOM      9  N   UNL     1      44.196   4.713   9.407  0.00  0.00    +0.000 NA
ATOM     10  H   UNL     1      44.704   5.583   9.260  0.00  0.00    +0.000 HD
BRANCH   9  11
ATOM     11  C   UNL     1      44.704   3.645   8.537  0.00  0.00    +0.000 C 
ATOM     12  C   UNL     1      44.992   2.331   9.279  0.00  0.00    +0.000 C 
ATOM     13  C   UNL     1      45.651   1.324   8.346  0.00  0.00    +0.000 C 
ATOM     14  O   UNL     1      46.845   1.863   7.785  0.00  0.00    +0.000 OA
ATOM     15  C   UNL     1      46.586   3.020   6.992  0.00  0.00    +0.000 C 
ATOM     16  C   UNL     1      45.983   4.133   7.840  0.00  0.00    +0.000 C 
ENDBRANCH   9  11
ENDBRANCH   8   9
ENDBRANCH   5   8
ENDBRANCH   1   2
BRANCH   1  19
ATOM     17  O   UNL     1      49.521   8.630  15.572  0.00  0.00    +0.000 OA
ATOM     18  C   UNL     1      48.840   7.692  15.970  0.00  0.00    +0.000 C 
ATOM     19  N   UNL     1      48.259   6.789  15.119  0.00  0.00    +0.000 N 
ATOM     20  H   UNL     1      47.717   6.017  15.477  0.00  0.00    +0.000 HD
BRANCH  18  21
ATOM     21  C   UNL     1      48.546   7.485  17.389  0.00  0.00    +0.000 A 
ATOM     22  C   UNL     1      48.097   8.535  18.173  0.00  0.00    +0.000 A 
ATOM     23  S   UNL     1      47.802   8.087  19.797  0.00  0.00    +0.000 S 
ATOM     24  C   UNL     1      48.293   6.482  19.502  0.00  0.00    +0.000 A 
ATOM     25  N   UNL     1      48.288   5.552  20.494  0.00  0.00    +0.000 NA
ATOM     26  C   UNL     1      48.693   4.380  20.130  0.00  0.00    +0.000 A 
ATOM     27  N   UNL     1      49.107   4.055  18.865  0.00  0.00    +0.000 N 
ATOM     28  C   UNL     1      49.128   4.956  17.834  0.00  0.00    +0.000 A 
ATOM     29  O   UNL     1      49.471   4.618  16.706  0.00  0.00    +0.000 OA
ATOM     30  C   UNL     1      48.668   6.288  18.187  0.00  0.00    +0.000 A 
ATOM     31  H   UNL     1      49.402   3.115  18.642  0.00  0.00    +0.000 HD
ENDBRANCH  18  21
ENDBRANCH   1  19
TORSDOF 6
ENDMDL
MODEL 6
REMARK VINA RESULT:    -6.818      2.560      3.717
REMARK INTER + INTRA:         -10.311
REMARK INTER:                  -9.404
REMARK INTRA:                  -0.907
REMARK UNBOUND:                -1.102
REMARK  Name = 
REMARK  6 active torsions:
REMARK  status: ('A' for Active; 'I' for Inactive)
REMARK    1  A    between atoms: C_2  and  C_19
REMARK    2  A    between atoms: N_3  and  C_4
REMARK    3  A    between atoms: C_4  and  C_5
REMARK    4  A    between atoms: C_8  and  C_9
REMARK    5  A    between atoms: C_9  and  N_10
REMARK    6  A    between atoms: N_10  and  C_11
REMARK                            x       y       z     vdW  Elec       q    Type
REMARK                         _______ _______ _______ _____ _____    ______ ____
ROOT
ATOM      1  C   UNL     1      47.513   4.338  15.730  0.00  0.00    +0.000 C 
ENDROOT
BRANCH   1   2
ATOM      2  C   UNL     1      46.991   4.747  14.382  0.00  0.00    +0.000 A 
ATOM      3  C   UNL     1      45.867   4.135  13.845  0.00  0.00    +0.000 A 
ATOM      4  N   UNL     1      45.353   4.473  12.637  0.00  0.00    +0.000 NA
ATOM      5  C   UNL     1      46.008   5.452  11.965  0.00  0.00    +0.000 A 
ATOM      6  C   UNL     1      47.155   6.039  12.495  0.00  0.00    +0.000 A 
ATOM      7  N   UNL     1      47.671   5.707  13.701  0.00  0.00    +0.000 NA
BRANCH   5   8
ATOM      8  C   UNL     1      45.502   5.880  10.603  0.00  0.00    +0.000 C 
BRANCH   8   9
ATOM      9  N   UNL     1      44.276   5.187  10.190  0.00  0.00    +0.000 NA
ATOM     10  H   UNL     1      43.583   5.856   9.860  0.00  0.00    +0.000 HD
BRANCH   9  11
ATOM     11  C   UNL     1      44.506   4.126   9.202  0.00  0.00    +0.000 C 
ATOM     12  C   UNL     1      44.640   2.727   9.821  0.00  0.00    +0.000 C 
ATOM     13  C   UNL     1      45.022   1.706   8.758  0.00  0.00    +0.000 C 
ATOM     14  O   UNL     1      46.228   2.089   8.100  0.00  0.00    +0.000 OA
ATOM     15  C   UNL     1      46.089   3.334   7.417  0.00  0.00    +0.000 C 
ATOM     16  C   UNL     1      45.772   4.456   8.397  0.00  0.00    +0.000 C 
ENDBRANCH   9  11
ENDBRANCH   8   9
ENDBRANCH   5   8
ENDBRANCH   1   2
BRANCH   1  19
ATOM     17  O   UNL     1      49.915   5.448  16.695  0.00  0.00    +0.000 OA
ATOM     18  C   UNL     1      48.849   5.909  17.085  0.00  0.00    +0.000 C 
ATOM     19  N   UNL     1      47.639   5.464  16.622  0.00  0.00    +0.000 N 
ATOM     20  H   UNL     1      46.777   5.852  16.973  0.00  0.00    +0.000 HD
BRANCH  18  21
ATOM     21  C   UNL     1      48.778   7.013  18.043  0.00  0.00    +0.000 A 
ATOM     22  C   UNL     1      48.985   6.785  19.394  0.00  0.00    +0.000 A 
ATOM     23  S   UNL     1      48.869   8.202  20.344  0.00  0.00    +0.000 S 
ATOM     24  C   UNL     1      48.514   9.156  18.978  0.00  0.00    +0.000 A 
ATOM     25  N   UNL     1      48.292  10.493  19.093  0.00  0.00    +0.000 NA
ATOM     26  C   UNL     1      48.025  11.088  17.978  0.00  0.00    +0.000 A 
ATOM     27  N   UNL     1      47.955  10.467  16.758  0.00  0.00    +0.000 N 
ATOM     28  C   UNL     1      48.171   9.125  16.592  0.00  0.00    +0.000 A 
ATOM     29  O   UNL     1      48.136   8.611  15.479  0.00  0.00    +0.000 OA
ATOM     30  C   UNL     1      48.490   8.410  17.817  0.00  0.00    +0.000 A 
ATOM     31  H   UNL     1      47.752  10.993  15.919  0.00  0.00    +0.000 HD
ENDBRANCH  18  21
ENDBRANCH   1  19
TORSDOF 6
ENDMDL
MODEL 7
REMARK VINA RESULT:    -6.800      3.591      5.714
REMARK INTER + INTRA:         -10.286
REMARK INTER:                  -9.526
REMARK INTRA:                  -0.760
REMARK UNBOUND:                -1.102
REMARK  Name = 
REMARK  6 active torsions:
REMARK  status: ('A' for Active; 'I' for Inactive)
REMARK    1  A    between atoms: C_2  and  C_19
REMARK    2  A    between atoms: N_3  and  C_4
REMARK    3  A    between atoms: C_4  and  C_5
REMARK    4  A    between atoms: C_8  and  C_9
REMARK    5  A    between atoms: C_9  and  N_10
REMARK    6  A    between atoms: N_10  and  C_11
REMARK                            x       y       z     vdW  Elec       q    Type
REMARK                         _______ _______ _______ _____ _____    ______ ____
ROOT
ATOM      1  C   UNL     1      48.271   3.360  17.958  0.00  0.00    +0.000 C 
ENDROOT
BRANCH   1   2
ATOM      2  C   UNL     1      47.961   4.116  16.697  0.00  0.00    +0.000 A 
ATOM      3  C   UNL     1      48.618   5.303  16.406  0.00  0.00    +0.000 A 
ATOM      4  N   UNL     1      48.380   6.018  15.279  0.00  0.00    +0.000 NA
ATOM      5  C   UNL     1      47.446   5.508  14.438  0.00  0.00    +0.000 A 
ATOM      6  C   UNL     1      46.767   4.332  14.752  0.00  0.00    +0.000 A 
ATOM      7  N   UNL     1      47.003   3.614  15.874  0.00  0.00    +0.000 NA
BRANCH   5   8
ATOM      8  C   UNL     1      47.117   6.253  13.161  0.00  0.00    +0.000 C 
BRANCH   8   9
ATOM      9  N   UNL     1      45.805   6.908  13.188  0.00  0.00    +0.000 NA
ATOM     10  H   UNL     1      45.906   7.913  13.054  0.00  0.00    +0.000 HD
BRANCH   9  11
ATOM     11  C   UNL     1      44.844   6.338  12.235  0.00  0.00    +0.000 C 
ATOM     12  C   UNL     1      43.725   5.525  12.903  0.00  0.00    +0.000 C 
ATOM     13  C   UNL     1      42.857   4.846  11.852  0.00  0.00    +0.000 C 
ATOM     14  O   UNL     1      43.649   4.020  11.001  0.00  0.00    +0.000 OA
ATOM     15  C   UNL     1      44.620   4.775  10.279  0.00  0.00    +0.000 C 
ATOM     16  C   UNL     1      45.597   5.452  11.233  0.00  0.00    +0.000 C 
ENDBRANCH   9  11
ENDBRANCH   8   9
ENDBRANCH   5   8
ENDBRANCH   1   2
BRANCH   1  19
ATOM     17  O   UNL     1      49.802   1.747  16.230  0.00  0.00    +0.000 OA
ATOM     18  C   UNL     1      50.337   2.231  17.221  0.00  0.00    +0.000 C 
ATOM     19  N   UNL     1      49.678   3.071  18.079  0.00  0.00    +0.000 N 
ATOM     20  H   UNL     1      50.140   3.441  18.897  0.00  0.00    +0.000 HD
BRANCH  18  21
ATOM     21  C   UNL     1      51.744   1.992  17.545  0.00  0.00    +0.000 A 
ATOM     22  C   UNL     1      52.219   0.701  17.706  0.00  0.00    +0.000 A 
ATOM     23  S   UNL     1      53.889   0.636  18.071  0.00  0.00    +0.000 S 
ATOM     24  C   UNL     1      54.017   2.335  18.050  0.00  0.00    +0.000 A 
ATOM     25  N   UNL     1      55.203   2.953  18.295  0.00  0.00    +0.000 NA
ATOM     26  C   UNL     1      55.152   4.243  18.255  0.00  0.00    +0.000 A 
ATOM     27  N   UNL     1      54.020   4.972  17.997  0.00  0.00    +0.000 N 
ATOM     28  C   UNL     1      52.804   4.395  17.744  0.00  0.00    +0.000 A 
ATOM     29  O   UNL     1      51.822   5.080  17.482  0.00  0.00    +0.000 OA
ATOM     30  C   UNL     1      52.811   2.942  17.763  0.00  0.00    +0.000 A 
ATOM     31  H   UNL     1      54.049   5.982  17.970  0.00  0.00    +0.000 HD
ENDBRANCH  18  21
ENDBRANCH   1  19
TORSDOF 6
ENDMDL
MODEL 8
REMARK VINA RESULT:    -6.715      3.499      7.498
REMARK INTER + INTRA:         -10.171
REMARK INTER:                  -9.218
REMARK INTRA:                  -0.954
REMARK UNBOUND:                -1.102
REMARK  Name = 
REMARK  6 active torsions:
REMARK  status: ('A' for Active; 'I' for Inactive)
REMARK    1  A    between atoms: C_2  and  C_19
REMARK    2  A    between atoms: N_3  and  C_4
REMARK    3  A    between atoms: C_4  and  C_5
REMARK    4  A    between atoms: C_8  and  C_9
REMARK    5  A    between atoms: C_9  and  N_10
REMARK    6  A    between atoms: N_10  and  C_11
REMARK                            x       y       z     vdW  Elec       q    Type
REMARK                         _______ _______ _______ _____ _____    ______ ____
ROOT
ATOM      1  C   UNL     1      47.882   8.754  14.101  0.00  0.00    +0.000 C 
ENDROOT
BRANCH   1   2
ATOM      2  C   UNL     1      48.623   8.015  15.178  0.00  0.00    +0.000 A 
ATOM      3  C   UNL     1      49.602   7.086  14.850  0.00  0.00    +0.000 A 
ATOM      4  N   UNL     1      50.303   6.398  15.784  0.00  0.00    +0.000 NA
ATOM      5  C   UNL     1      49.991   6.663  17.077  0.00  0.00    +0.000 A 
ATOM      6  C   UNL     1      48.985   7.571  17.398  0.00  0.00    +0.000 A 
ATOM      7  N   UNL     1      48.283   8.263  16.470  0.00  0.00    +0.000 NA
BRANCH   5   8
ATOM      8  C   UNL     1      50.725   5.928  18.180  0.00  0.00    +0.000 C 
BRANCH   8   9
ATOM      9  N   UNL     1      49.865   5.028  18.956  0.00  0.00    +0.000 NA
ATOM     10  H   UNL     1      48.944   5.442  19.090  0.00  0.00    +0.000 HD
BRANCH   9  11
ATOM     11  C   UNL     1      49.764   3.678  18.388  0.00  0.00    +0.000 C 
ATOM     12  C   UNL     1      51.061   3.190  17.726  0.00  0.00    +0.000 C 
ATOM     13  C   UNL     1      50.838   1.851  17.034  0.00  0.00    +0.000 C 
ATOM     14  O   UNL     1      49.783   1.947  16.080  0.00  0.00    +0.000 OA
ATOM     15  C   UNL     1      48.539   2.284  16.692  0.00  0.00    +0.000 C 
ATOM     16  C   UNL     1      48.620   3.649  17.364  0.00  0.00    +0.000 C 
ENDBRANCH   9  11
ENDBRANCH   8   9
ENDBRANCH   5   8
ENDBRANCH   1   2
BRANCH   1  19
ATOM     17  O   UNL     1      47.834   7.082  11.836  0.00  0.00    +0.000 OA
ATOM     18  C   UNL     1      46.800   7.252  12.470  0.00  0.00    +0.000 C 
ATOM     19  N   UNL     1      46.751   8.004  13.614  0.00  0.00    +0.000 N 
ATOM     20  H   UNL     1      45.881   8.140  14.107  0.00  0.00    +0.000 HD
BRANCH  18  21
ATOM     21  C   UNL     1      45.535   6.623  12.087  0.00  0.00    +0.000 A 
ATOM     22  C   UNL     1      44.522   7.374  11.513  0.00  0.00    +0.000 A 
ATOM     23  S   UNL     1      43.133   6.454  11.130  0.00  0.00    +0.000 S 
ATOM     24  C   UNL     1      43.838   5.030  11.746  0.00  0.00    +0.000 A 
ATOM     25  N   UNL     1      43.164   3.848  11.729  0.00  0.00    +0.000 NA
ATOM     26  C   UNL     1      43.815   2.855  12.236  0.00  0.00    +0.000 A 
ATOM     27  N   UNL     1      45.078   2.936  12.762  0.00  0.00    +0.000 N 
ATOM     28  C   UNL     1      45.796   4.101  12.800  0.00  0.00    +0.000 A 
ATOM     29  O   UNL     1      46.937   4.127  13.246  0.00  0.00    +0.000 OA
ATOM     30  C   UNL     1      45.112   5.249  12.229  0.00  0.00    +0.000 A 
ATOM     31  H   UNL     1      45.538   2.117  13.134  0.00  0.00    +0.000 HD
ENDBRANCH  18  21
ENDBRANCH   1  19
TORSDOF 6
ENDMDL
MODEL 9
REMARK VINA RESULT:    -6.650      2.927      4.821
REMARK INTER + INTRA:         -10.084
REMARK INTER:                  -9.100
REMARK INTRA:                  -0.984
REMARK UNBOUND:                -1.102
REMARK  Name = 
REMARK  6 active torsions:
REMARK  status: ('A' for Active; 'I' for Inactive)
REMARK    1  A    between atoms: C_2  and  C_19
REMARK    2  A    between atoms: N_3  and  C_4
REMARK    3  A    between atoms: C_4  and  C_5
REMARK    4  A    between atoms: C_8  and  C_9
REMARK    5  A    between atoms: C_9  and  N_10
REMARK    6  A    between atoms: N_10  and  C_11
REMARK                            x       y       z     vdW  Elec       q    Type
REMARK                         _______ _______ _______ _____ _____    ______ ____
ROOT
ATOM      1  C   UNL     1      47.204   5.820  14.236  0.00  0.00    +0.000 C 
ENDROOT
BRANCH   1   2
ATOM      2  C   UNL     1      46.399   5.129  13.172  0.00  0.00    +0.000 A 
ATOM      3  C   UNL     1      46.124   3.772  13.265  0.00  0.00    +0.000 A 
ATOM      4  N   UNL     1      45.396   3.105  12.336  0.00  0.00    +0.000 NA
ATOM      5  C   UNL     1      44.949   3.842  11.289  0.00  0.00    +0.000 A 
ATOM      6  C   UNL     1      45.258   5.196  11.185  0.00  0.00    +0.000 A 
ATOM      7  N   UNL     1      45.982   5.868  12.110  0.00  0.00    +0.000 NA
BRANCH   5   8
ATOM      8  C   UNL     1      44.137   3.167  10.203  0.00  0.00    +0.000 C 
BRANCH   8   9
ATOM      9  N   UNL     1      44.790   1.983   9.634  0.00  0.00    +0.000 NA
ATOM     10  H   UNL     1      44.100   1.364   9.212  0.00  0.00    +0.000 HD
BRANCH   9  11
ATOM     11  C   UNL     1      45.866   2.304   8.688  0.00  0.00    +0.000 C 
ATOM     12  C   UNL     1      45.457   3.322   7.613  0.00  0.00    +0.000 C 
ATOM     13  C   UNL     1      46.570   3.493   6.587  0.00  0.00    +0.000 C 
ATOM     14  O   UNL     1      46.910   2.240   5.998  0.00  0.00    +0.000 OA
ATOM     15  C   UNL     1      47.405   1.314   6.964  0.00  0.00    +0.000 C 
ATOM     16  C   UNL     1      46.345   1.009   8.015  0.00  0.00    +0.000 C 
ENDBRANCH   9  11
ENDBRANCH   8   9
ENDBRANCH   5   8
ENDBRANCH   1   2
BRANCH   1  19
ATOM     17  O   UNL     1      48.781   7.696  15.624  0.00  0.00    +0.000 OA
ATOM     18  C   UNL     1      48.921   7.583  14.411  0.00  0.00    +0.000 C 
ATOM     19  N   UNL     1      48.234   6.657  13.673  0.00  0.00    +0.000 N 
ATOM     20  H   UNL     1      48.358   6.598  12.673  0.00  0.00    +0.000 HD
BRANCH  18  21
ATOM     21  C   UNL     1      49.874   8.397  13.655  0.00  0.00    +0.000 A 
ATOM     22  C   UNL     1      51.228   8.336  13.936  0.00  0.00    +0.000 A 
ATOM     23  S   UNL     1      52.172   9.353  12.937  0.00  0.00    +0.000 S 
ATOM     24  C   UNL     1      50.792   9.924  12.118  0.00  0.00    +0.000 A 
ATOM     25  N   UNL     1      50.896  10.843  11.121  0.00  0.00    +0.000 NA
ATOM     26  C   UNL     1      49.768  11.192  10.595  0.00  0.00    +0.000 A 
ATOM     27  N   UNL     1      48.545  10.708  10.979  0.00  0.00    +0.000 N 
ATOM     28  C   UNL     1      48.390   9.781  11.976  0.00  0.00    +0.000 A 
ATOM     29  O   UNL     1      47.282   9.345  12.267  0.00  0.00    +0.000 OA
ATOM     30  C   UNL     1      49.632   9.345  12.592  0.00  0.00    +0.000 A 
ATOM     31  H   UNL     1      47.699  11.013  10.519  0.00  0.00    +0.000 HD
ENDBRANCH  18  21
ENDBRANCH   1  19
TORSDOF 6
ENDMDL
