MODEL 1
REMARK VINA RESULT:    -7.607      0.000      0.000
REMARK INTER + INTRA:         -12.166
REMARK INTER:                 -11.165
REMARK INTRA:                  -1.001
REMARK UNBOUND:                -1.001
REMARK  Name = 
REMARK  10 active torsions:
REMARK  status: ('A' for Active; 'I' for Inactive)
REMARK    1  A    between atoms: C_1  and  C_2
REMARK    2  A    between atoms: C_2  and  C_3
REMARK    3  A    between atoms: C_3  and  N_4
REMARK    4  A    between atoms: C_3  and  C_27
REMARK    5  A    between atoms: N_4  and  C_5
REMARK    6  A    between atoms: C_5  and  C_6
REMARK    7  A    between atoms: C_9  and  C_10
REMARK    8  A    between atoms: C_10  and  N_11
REMARK    9  A    between atoms: C_12  and  C_14
REMARK   10  A    between atoms: N_20  and  C_21
REMARK                            x       y       z     vdW  Elec       q    Type
REMARK                         _______ _______ _______ _____ _____    ______ ____
ROOT
ATOM      1  C   UNL     1      44.329   6.347  11.150  0.00  0.00    +0.000 C 
ATOM      2  C   UNL     1      44.137   6.594  12.652  0.00  0.00    +0.000 C 
ATOM      3  C   UNL     1      44.695   5.452  13.492  0.00  0.00    +0.000 C 
ATOM      4  C   UNL     1      46.191   5.225  13.218  0.00  0.00    +0.000 C 
ATOM      5  C   UNL     1      46.496   5.084  11.721  0.00  0.00    +0.000 C 
ATOM      6  C   UNL     1      45.828   6.150  10.858  0.00  0.00    +0.000 C 
ENDROOT
BRANCH   1   7
ATOM      7  C   UNL     1      43.461   5.192  10.586  0.00  0.00    +0.000 C 
BRANCH   7   8
ATOM      8  N   UNL     1      44.051   4.672   9.352  0.00  0.00    +0.000 NA
ATOM      9  H   UNL     1      43.415   4.897   8.584  0.00  0.00    +0.000 HD
BRANCH   8  10
ATOM     10  C   UNL     1      44.265   3.213   9.268  0.00  0.00    +0.000 C 
BRANCH  10  11
ATOM     11  C   UNL     1      45.491   2.955   8.369  0.00  0.00    +0.000 A 
ATOM     12  C   UNL     1      46.077   1.686   8.313  0.00  0.00    +0.000 A 
ATOM     13  N   UNL     1      47.156   1.395   7.540  0.00  0.00    +0.000 NA
ATOM     14  C   UNL     1      47.657   2.431   6.843  0.00  0.00    +0.000 A 
ATOM     15  C   UNL     1      47.096   3.701   6.898  0.00  0.00    +0.000 A 
ATOM     16  N   UNL     1      46.012   3.992   7.660  0.00  0.00    +0.000 NA
ENDBRANCH  10  11
BRANCH  10  18
ATOM     17  C   UNL     1      43.344   2.485  11.605  0.00  0.00    +0.000 C 
ATOM     18  C   UNL     1      44.484   2.448  10.598  0.00  0.00    +0.000 C 
ENDBRANCH  10  18
ENDBRANCH   8  10
ENDBRANCH   7   8
ENDBRANCH   1   7
BRANCH   4  19
ATOM     19  C   UNL     1      46.703   3.978  13.945  0.00  0.00    +0.000 C 
BRANCH  19  20
ATOM     20  N   UNL     1      47.645   4.317  14.980  0.00  0.00    +0.000 N 
ATOM     21  C   UNL     1      47.424   4.121  16.315  0.00  0.00    +0.000 C 
ATOM     22  O   UNL     1      46.434   3.546  16.754  0.00  0.00    +0.000 OA
ATOM     23  H   UNL     1      48.450   4.851  14.685  0.00  0.00    +0.000 HD
BRANCH  21  24
ATOM     24  C   UNL     1      48.500   4.595  17.187  0.00  0.00    +0.000 A 
ATOM     25  C   UNL     1      48.403   5.816  17.831  0.00  0.00    +0.000 A 
ATOM     26  S   UNL     1      49.723   6.134  18.868  0.00  0.00    +0.000 S 
ATOM     27  C   UNL     1      50.483   4.669  18.448  0.00  0.00    +0.000 A 
ATOM     28  N   UNL     1      51.668   4.304  18.999  0.00  0.00    +0.000 NA
ATOM     29  C   UNL     1      52.127   3.170  18.585  0.00  0.00    +0.000 A 
ATOM     30  N   UNL     1      51.526   2.355  17.649  0.00  0.00    +0.000 N 
ATOM     31  C   UNL     1      52.110   1.086  17.270  0.00  0.00    +0.000 C 
ATOM     32  C   UNL     1      50.317   2.702  17.059  0.00  0.00    +0.000 A 
ATOM     33  O   UNL     1      49.757   1.978  16.239  0.00  0.00    +0.000 OA
ATOM     34  C   UNL     1      49.750   3.954  17.525  0.00  0.00    +0.000 A 
ENDBRANCH  21  24
ENDBRANCH  19  20
ENDBRANCH   4  19
TORSDOF 8
ENDMDL
MODEL 2
REMARK VINA RESULT:    -7.511      3.622      8.893
REMARK INTER + INTRA:         -12.025
REMARK INTER:                 -10.568
REMARK INTRA:                  -1.456
REMARK UNBOUND:                -1.001
REMARK  Name = 
REMARK  10 active torsions:
REMARK  status: ('A' for Active; 'I' for Inactive)
REMARK    1  A    between atoms: C_1  and  C_2
REMARK    2  A    between atoms: C_2  and  C_3
REMARK    3  A    between atoms: C_3  and  N_4
REMARK    4  A    between atoms: C_3  and  C_27
REMARK    5  A    between atoms: N_4  and  C_5
REMARK    6  A    between atoms: C_5  and  C_6
REMARK    7  A    between atoms: C_9  and  C_10
REMARK    8  A    between atoms: C_10  and  N_11
REMARK    9  A    between atoms: C_12  and  C_14
REMARK   10  A    between atoms: N_20  and  C_21
REMARK                            x       y       z     vdW  Elec       q    Type
REMARK                         _______ _______ _______ _____ _____    ______ ____
ROOT
ATOM      1  C   UNL     1      49.613   7.809  13.961  0.00  0.00    +0.000 C 
ATOM      2  C   UNL     1      49.464   7.366  12.500  0.00  0.00    +0.000 C 
ATOM      3  C   UNL     1      48.003   7.196  12.103  0.00  0.00    +0.000 C 
ATOM      4  C   UNL     1      47.206   8.495  12.308  0.00  0.00    +0.000 C 
ATOM      5  C   UNL     1      47.390   9.078  13.715  0.00  0.00    +0.000 C 
ATOM      6  C   UNL     1      48.845   9.126  14.171  0.00  0.00    +0.000 C 
ENDROOT
BRANCH   1   7
ATOM      7  C   UNL     1      49.214   6.721  14.992  0.00  0.00    +0.000 C 
BRANCH   7   8
ATOM      8  N   UNL     1      49.496   7.184  16.351  0.00  0.00    +0.000 NA
ATOM      9  H   UNL     1      50.209   7.915  16.288  0.00  0.00    +0.000 HD
BRANCH   8  10
ATOM     10  C   UNL     1      50.035   6.193  17.304  0.00  0.00    +0.000 C 
BRANCH  10  11
ATOM     11  C   UNL     1      49.077   4.986  17.340  0.00  0.00    +0.000 A 
ATOM     12  C   UNL     1      47.788   5.118  17.867  0.00  0.00    +0.000 A 
ATOM     13  N   UNL     1      46.896   4.094  17.926  0.00  0.00    +0.000 NA
ATOM     14  C   UNL     1      47.349   2.914  17.466  0.00  0.00    +0.000 A 
ATOM     15  C   UNL     1      48.630   2.762  16.951  0.00  0.00    +0.000 A 
ATOM     16  N   UNL     1      49.519   3.785  16.882  0.00  0.00    +0.000 NA
ENDBRANCH  10  11
BRANCH  10  18
ATOM     17  C   UNL     1      52.490   6.657  16.530  0.00  0.00    +0.000 C 
ATOM     18  C   UNL     1      51.465   5.656  17.041  0.00  0.00    +0.000 C 
ENDBRANCH  10  18
ENDBRANCH   8  10
ENDBRANCH   7   8
ENDBRANCH   1   7
BRANCH   4  19
ATOM     19  C   UNL     1      45.711   8.271  12.059  0.00  0.00    +0.000 C 
BRANCH  19  20
ATOM     20  N   UNL     1      45.422   6.887  11.780  0.00  0.00    +0.000 N 
ATOM     21  C   UNL     1      44.209   6.428  11.348  0.00  0.00    +0.000 C 
ATOM     22  O   UNL     1      43.274   7.168  11.064  0.00  0.00    +0.000 OA
ATOM     23  H   UNL     1      46.133   6.225  12.056  0.00  0.00    +0.000 HD
BRANCH  21  24
ATOM     24  C   UNL     1      44.131   4.976  11.185  0.00  0.00    +0.000 A 
ATOM     25  C   UNL     1      43.425   4.199  12.088  0.00  0.00    +0.000 A 
ATOM     26  S   UNL     1      43.384   2.545  11.663  0.00  0.00    +0.000 S 
ATOM     27  C   UNL     1      44.350   2.814  10.286  0.00  0.00    +0.000 A 
ATOM     28  N   UNL     1      44.687   1.800   9.449  0.00  0.00    +0.000 NA
ATOM     29  C   UNL     1      45.426   2.151   8.449  0.00  0.00    +0.000 A 
ATOM     30  N   UNL     1      45.884   3.427   8.200  0.00  0.00    +0.000 N 
ATOM     31  C   UNL     1      46.687   3.723   7.033  0.00  0.00    +0.000 C 
ATOM     32  C   UNL     1      45.565   4.487   9.039  0.00  0.00    +0.000 A 
ATOM     33  O   UNL     1      45.948   5.634   8.821  0.00  0.00    +0.000 OA
ATOM     34  C   UNL     1      44.707   4.140  10.158  0.00  0.00    +0.000 A 
ENDBRANCH  21  24
ENDBRANCH  19  20
ENDBRANCH   4  19
TORSDOF 8
ENDMDL
MODEL 3
REMARK VINA RESULT:    -7.101      2.904      3.874
REMARK INTER + INTRA:         -11.422
REMARK INTER:                  -9.739
REMARK INTRA:                  -1.683
REMARK UNBOUND:                -1.001
REMARK  Name = 
REMARK  10 active torsions:
REMARK  status: ('A' for Active; 'I' for Inactive)
REMARK    1  A    between atoms: C_1  and  C_2
REMARK    2  A    between atoms: C_2  and  C_3
REMARK    3  A    between atoms: C_3  and  N_4
REMARK    4  A    between atoms: C_3  and  C_27
REMARK    5  A    between atoms: N_4  and  C_5
REMARK    6  A    between atoms: C_5  and  C_6
REMARK    7  A    between atoms: C_9  and  C_10
REMARK    8  A    between atoms: C_10  and  N_11
REMARK    9  A    between atoms: C_12  and  C_14
REMARK   10  A    between atoms: N_20  and  C_21
REMARK                            x       y       z     vdW  Elec       q    Type
REMARK                         _______ _______ _______ _____ _____    ______ ____
ROOT
ATOM      1  C   UNL     1      46.741   7.120  12.372  0.00  0.00    +0.000 C 
ATOM      2  C   UNL     1      46.411   8.418  13.119  0.00  0.00    +0.000 C 
ATOM      3  C   UNL     1      47.527   8.825  14.074  0.00  0.00    +0.000 C 
ATOM      4  C   UNL     1      48.864   9.007  13.337  0.00  0.00    +0.000 C 
ATOM      5  C   UNL     1      49.221   7.797  12.465  0.00  0.00    +0.000 C 
ATOM      6  C   UNL     1      48.063   7.301  11.604  0.00  0.00    +0.000 C 
ENDROOT
BRANCH   1   7
ATOM      7  C   UNL     1      46.751   5.858  13.274  0.00  0.00    +0.000 C 
BRANCH   7   8
ATOM      8  N   UNL     1      46.014   4.770  12.631  0.00  0.00    +0.000 NA
ATOM      9  H   UNL     1      46.656   4.295  11.992  0.00  0.00    +0.000 HD
BRANCH   8  10
ATOM     10  C   UNL     1      44.845   5.140  11.807  0.00  0.00    +0.000 C 
BRANCH  10  11
ATOM     11  C   UNL     1      44.980   4.446  10.437  0.00  0.00    +0.000 A 
ATOM     12  C   UNL     1      45.604   5.099   9.369  0.00  0.00    +0.000 A 
ATOM     13  N   UNL     1      45.755   4.542   8.138  0.00  0.00    +0.000 NA
ATOM     14  C   UNL     1      45.228   3.312   7.999  0.00  0.00    +0.000 A 
ATOM     15  C   UNL     1      44.594   2.654   9.046  0.00  0.00    +0.000 A 
ATOM     16  N   UNL     1      44.451   3.204  10.278  0.00  0.00    +0.000 NA
ENDBRANCH  10  11
BRANCH  10  18
ATOM     17  C   UNL     1      42.269   5.592  11.808  0.00  0.00    +0.000 C 
ATOM     18  C   UNL     1      43.442   4.805  12.373  0.00  0.00    +0.000 C 
ENDBRANCH  10  18
ENDBRANCH   8  10
ENDBRANCH   7   8
ENDBRANCH   1   7
BRANCH   4  19
ATOM     19  C   UNL     1      50.008   9.258  14.324  0.00  0.00    +0.000 C 
BRANCH  19  20
ATOM     20  N   UNL     1      50.405   8.047  14.995  0.00  0.00    +0.000 N 
ATOM     21  C   UNL     1      50.940   8.006  16.252  0.00  0.00    +0.000 C 
ATOM     22  O   UNL     1      51.045   8.994  16.970  0.00  0.00    +0.000 OA
ATOM     23  H   UNL     1      50.401   7.210  14.430  0.00  0.00    +0.000 HD
BRANCH  21  24
ATOM     24  C   UNL     1      51.321   6.668  16.708  0.00  0.00    +0.000 A 
ATOM     25  C   UNL     1      52.648   6.352  16.945  0.00  0.00    +0.000 A 
ATOM     26  S   UNL     1      52.863   4.772  17.557  0.00  0.00    +0.000 S 
ATOM     27  C   UNL     1      51.193   4.450  17.476  0.00  0.00    +0.000 A 
ATOM     28  N   UNL     1      50.682   3.257  17.874  0.00  0.00    +0.000 NA
ATOM     29  C   UNL     1      49.400   3.152  17.753  0.00  0.00    +0.000 A 
ATOM     30  N   UNL     1      48.561   4.125  17.253  0.00  0.00    +0.000 N 
ATOM     31  C   UNL     1      47.129   3.920  17.183  0.00  0.00    +0.000 C 
ATOM     32  C   UNL     1      49.049   5.354  16.829  0.00  0.00    +0.000 A 
ATOM     33  O   UNL     1      48.313   6.240  16.400  0.00  0.00    +0.000 OA
ATOM     34  C   UNL     1      50.483   5.524  16.981  0.00  0.00    +0.000 A 
ENDBRANCH  21  24
ENDBRANCH  19  20
ENDBRANCH   4  19
TORSDOF 8
ENDMDL
MODEL 4
REMARK VINA RESULT:    -7.089      3.333      9.082
REMARK INTER + INTRA:         -11.405
REMARK INTER:                  -9.982
REMARK INTRA:                  -1.423
REMARK UNBOUND:                -1.001
REMARK  Name = 
REMARK  10 active torsions:
REMARK  status: ('A' for Active; 'I' for Inactive)
REMARK    1  A    between atoms: C_1  and  C_2
REMARK    2  A    between atoms: C_2  and  C_3
REMARK    3  A    between atoms: C_3  and  N_4
REMARK    4  A    between atoms: C_3  and  C_27
REMARK    5  A    between atoms: N_4  and  C_5
REMARK    6  A    between atoms: C_5  and  C_6
REMARK    7  A    between atoms: C_9  and  C_10
REMARK    8  A    between atoms: C_10  and  N_11
REMARK    9  A    between atoms: C_12  and  C_14
REMARK   10  A    between atoms: N_20  and  C_21
REMARK                            x       y       z     vdW  Elec       q    Type
REMARK                         _______ _______ _______ _____ _____    ______ ____
ROOT
ATOM      1  C   UNL     1      48.989   6.228  20.500  0.00  0.00    +0.000 C 
ATOM      2  C   UNL     1      47.785   6.786  19.730  0.00  0.00    +0.000 C 
ATOM      3  C   UNL     1      47.561   6.054  18.414  0.00  0.00    +0.000 C 
ATOM      4  C   UNL     1      47.349   4.546  18.633  0.00  0.00    +0.000 C 
ATOM      5  C   UNL     1      48.452   3.920  19.497  0.00  0.00    +0.000 C 
ATOM      6  C   UNL     1      48.773   4.725  20.754  0.00  0.00    +0.000 C 
ENDROOT
BRANCH   1   7
ATOM      7  C   UNL     1      50.357   6.523  19.830  0.00  0.00    +0.000 C 
BRANCH   7   8
ATOM      8  N   UNL     1      51.090   5.277  19.606  0.00  0.00    +0.000 NA
ATOM      9  H   UNL     1      51.891   5.269  20.241  0.00  0.00    +0.000 HD
BRANCH   8  10
ATOM     10  C   UNL     1      51.656   5.059  18.259  0.00  0.00    +0.000 C 
BRANCH  10  11
ATOM     11  C   UNL     1      51.870   3.544  18.064  0.00  0.00    +0.000 A 
ATOM     12  C   UNL     1      52.981   2.906  18.625  0.00  0.00    +0.000 A 
ATOM     13  N   UNL     1      53.224   1.575  18.491  0.00  0.00    +0.000 NA
ATOM     14  C   UNL     1      52.330   0.903  17.744  0.00  0.00    +0.000 A 
ATOM     15  C   UNL     1      51.228   1.524  17.169  0.00  0.00    +0.000 A 
ATOM     16  N   UNL     1      50.977   2.849  17.310  0.00  0.00    +0.000 NA
ENDBRANCH  10  11
BRANCH  10  18
ATOM     17  C   UNL     1      51.426   6.759  16.286  0.00  0.00    +0.000 C 
ATOM     18  C   UNL     1      50.840   5.582  17.050  0.00  0.00    +0.000 C 
ENDBRANCH  10  18
ENDBRANCH   8  10
ENDBRANCH   7   8
ENDBRANCH   1   7
BRANCH   4  19
ATOM     19  C   UNL     1      47.285   3.798  17.299  0.00  0.00    +0.000 C 
BRANCH  19  20
ATOM     20  N   UNL     1      47.128   4.704  16.190  0.00  0.00    +0.000 N 
ATOM     21  C   UNL     1      47.288   4.348  14.880  0.00  0.00    +0.000 C 
ATOM     22  O   UNL     1      47.488   3.195  14.516  0.00  0.00    +0.000 OA
ATOM     23  H   UNL     1      47.026   5.679  16.430  0.00  0.00    +0.000 HD
BRANCH  21  24
ATOM     24  C   UNL     1      47.135   5.449  13.927  0.00  0.00    +0.000 A 
ATOM     25  C   UNL     1      48.164   6.349  13.714  0.00  0.00    +0.000 A 
ATOM     26  S   UNL     1      47.811   7.497  12.499  0.00  0.00    +0.000 S 
ATOM     27  C   UNL     1      46.254   6.853  12.259  0.00  0.00    +0.000 A 
ATOM     28  N   UNL     1      45.410   7.369  11.330  0.00  0.00    +0.000 NA
ATOM     29  C   UNL     1      44.261   6.783  11.261  0.00  0.00    +0.000 A 
ATOM     30  N   UNL     1      43.852   5.726  12.046  0.00  0.00    +0.000 N 
ATOM     31  C   UNL     1      42.550   5.119  11.873  0.00  0.00    +0.000 C 
ATOM     32  C   UNL     1      44.687   5.178  13.012  0.00  0.00    +0.000 A 
ATOM     33  O   UNL     1      44.347   4.222  13.707  0.00  0.00    +0.000 OA
ATOM     34  C   UNL     1      46.001   5.788  13.097  0.00  0.00    +0.000 A 
ENDBRANCH  21  24
ENDBRANCH  19  20
ENDBRANCH   4  19
TORSDOF 8
ENDMDL
MODEL 5
REMARK VINA RESULT:    -7.075      3.397      9.620
REMARK INTER + INTRA:         -11.385
REMARK INTER:                 -10.175
REMARK INTRA:                  -1.210
REMARK UNBOUND:                -1.001
REMARK  Name = 
REMARK  10 active torsions:
REMARK  status: ('A' for Active; 'I' for Inactive)
REMARK    1  A    between atoms: C_1  and  C_2
REMARK    2  A    between atoms: C_2  and  C_3
REMARK    3  A    between atoms: C_3  and  N_4
REMARK    4  A    between atoms: C_3  and  C_27
REMARK    5  A    between atoms: N_4  and  C_5
REMARK    6  A    between atoms: C_5  and  C_6
REMARK    7  A    between atoms: C_9  and  C_10
REMARK    8  A    between atoms: C_10  and  N_11
REMARK    9  A    between atoms: C_12  and  C_14
REMARK   10  A    between atoms: N_20  and  C_21
REMARK                            x       y       z     vdW  Elec       q    Type
REMARK                         _______ _______ _______ _____ _____    ______ ____
ROOT
ATOM      1  C   UNL     1      49.079   2.895  17.939  0.00  0.00    +0.000 C 
ATOM      2  C   UNL     1      49.601   4.180  18.593  0.00  0.00    +0.000 C 
ATOM      3  C   UNL     1      49.865   5.275  17.566  0.00  0.00    +0.000 C 
ATOM      4  C   UNL     1      48.599   5.611  16.760  0.00  0.00    +0.000 C 
ATOM      5  C   UNL     1      47.938   4.363  16.162  0.00  0.00    +0.000 C 
ATOM      6  C   UNL     1      47.793   3.213  17.155  0.00  0.00    +0.000 C 
ENDROOT
BRANCH   1   7
ATOM      7  C   UNL     1      50.132   2.156  17.072  0.00  0.00    +0.000 C 
BRANCH   7   8
ATOM      8  N   UNL     1      51.101   1.471  17.928  0.00  0.00    +0.000 NA
ATOM      9  H   UNL     1      51.024   1.870  18.866  0.00  0.00    +0.000 HD
BRANCH   8  10
ATOM     10  C   UNL     1      52.528   1.593  17.566  0.00  0.00    +0.000 C 
BRANCH  10  11
ATOM     11  C   UNL     1      53.133   2.758  18.374  0.00  0.00    +0.000 A 
ATOM     12  C   UNL     1      53.285   4.022  17.793  0.00  0.00    +0.000 A 
ATOM     13  N   UNL     1      53.810   5.089  18.451  0.00  0.00    +0.000 NA
ATOM     14  C   UNL     1      54.211   4.842  19.711  0.00  0.00    +0.000 A 
ATOM     15  C   UNL     1      54.080   3.590  20.299  0.00  0.00    +0.000 A 
ATOM     16  N   UNL     1      53.547   2.527  19.648  0.00  0.00    +0.000 NA
ENDBRANCH  10  11
BRANCH  10  18
ATOM     17  C   UNL     1      54.301  -0.077  16.614  0.00  0.00    +0.000 C 
ATOM     18  C   UNL     1      53.426   0.348  17.783  0.00  0.00    +0.000 C 
ENDBRANCH  10  18
ENDBRANCH   8  10
ENDBRANCH   7   8
ENDBRANCH   1   7
BRANCH   4  19
ATOM     19  C   UNL     1      48.912   6.594  15.627  0.00  0.00    +0.000 C 
BRANCH  19  20
ATOM     20  N   UNL     1      47.762   6.820  14.789  0.00  0.00    +0.000 N 
ATOM     21  C   UNL     1      47.697   6.481  13.467  0.00  0.00    +0.000 C 
ATOM     22  O   UNL     1      48.583   5.862  12.888  0.00  0.00    +0.000 OA
ATOM     23  H   UNL     1      47.027   7.383  15.193  0.00  0.00    +0.000 HD
BRANCH  21  24
ATOM     24  C   UNL     1      46.449   6.859  12.802  0.00  0.00    +0.000 A 
ATOM     25  C   UNL     1      46.221   8.168  12.415  0.00  0.00    +0.000 A 
ATOM     26  S   UNL     1      44.747   8.374  11.577  0.00  0.00    +0.000 S 
ATOM     27  C   UNL     1      44.350   6.727  11.750  0.00  0.00    +0.000 A 
ATOM     28  N   UNL     1      43.202   6.217  11.236  0.00  0.00    +0.000 NA
ATOM     29  C   UNL     1      43.032   4.955  11.447  0.00  0.00    +0.000 A 
ATOM     30  N   UNL     1      43.894   4.135  12.144  0.00  0.00    +0.000 N 
ATOM     31  C   UNL     1      43.624   2.721  12.303  0.00  0.00    +0.000 C 
ATOM     32  C   UNL     1      45.073   4.624  12.690  0.00  0.00    +0.000 A 
ATOM     33  O   UNL     1      45.863   3.903  13.296  0.00  0.00    +0.000 OA
ATOM     34  C   UNL     1      45.319   6.033  12.445  0.00  0.00    +0.000 A 
ENDBRANCH  21  24
ENDBRANCH  19  20
ENDBRANCH   4  19
TORSDOF 8
ENDMDL
MODEL 6
REMARK VINA RESULT:    -7.030      2.522      3.142
REMARK INTER + INTRA:         -11.319
REMARK INTER:                  -9.865
REMARK INTRA:                  -1.454
REMARK UNBOUND:                -1.001
REMARK  Name = 
REMARK  10 active torsions:
REMARK  status: ('A' for Active; 'I' for Inactive)
REMARK    1  A    between atoms: C_1  and  C_2
REMARK    2  A    between atoms: C_2  and  C_3
REMARK    3  A    between atoms: C_3  and  N_4
REMARK    4  A    between atoms: C_3  and  C_27
REMARK    5  A    between atoms: N_4  and  C_5
REMARK    6  A    between atoms: C_5  and  C_6
REMARK    7  A    between atoms: C_9  and  C_10
REMARK    8  A    between atoms: C_10  and  N_11
REMARK    9  A    between atoms: C_12  and  C_14
REMARK   10  A    between atoms: N_20  and  C_21
REMARK                            x       y       z     vdW  Elec       q    Type
REMARK                         _______ _______ _______ _____ _____    ______ ____
ROOT
ATOM      1  C   UNL     1      46.432   7.164  12.201  0.00  0.00    +0.000 C 
ATOM      2  C   UNL     1      46.339   8.501  12.947  0.00  0.00    +0.000 C 
ATOM      3  C   UNL     1      47.349   8.591  14.084  0.00  0.00    +0.000 C 
ATOM      4  C   UNL     1      48.790   8.409  13.576  0.00  0.00    +0.000 C 
ATOM      5  C   UNL     1      48.952   7.150  12.716  0.00  0.00    +0.000 C 
ATOM      6  C   UNL     1      47.862   6.986  11.660  0.00  0.00    +0.000 C 
ENDROOT
BRANCH   1   7
ATOM      7  C   UNL     1      45.959   5.944  13.034  0.00  0.00    +0.000 C 
BRANCH   7   8
ATOM      8  N   UNL     1      45.719   4.796  12.159  0.00  0.00    +0.000 NA
ATOM      9  H   UNL     1      46.591   4.595  11.664  0.00  0.00    +0.000 HD
BRANCH   8  10
ATOM     10  C   UNL     1      44.698   4.953  11.103  0.00  0.00    +0.000 C 
BRANCH  10  11
ATOM     11  C   UNL     1      45.160   4.163   9.862  0.00  0.00    +0.000 A 
ATOM     12  C   UNL     1      45.709   4.828   8.761  0.00  0.00    +0.000 A 
ATOM     13  N   UNL     1      46.136   4.189   7.640  0.00  0.00    +0.000 NA
ATOM     14  C   UNL     1      45.964   2.855   7.641  0.00  0.00    +0.000 A 
ATOM     15  C   UNL     1      45.408   2.180   8.721  0.00  0.00    +0.000 A 
ATOM     16  N   UNL     1      44.991   2.814   9.845  0.00  0.00    +0.000 NA
ENDBRANCH  10  11
BRANCH  10  18
ATOM     17  C   UNL     1      42.257   5.605  11.778  0.00  0.00    +0.000 C 
ATOM     18  C   UNL     1      43.252   4.507  11.439  0.00  0.00    +0.000 C 
ENDBRANCH  10  18
ENDBRANCH   8  10
ENDBRANCH   7   8
ENDBRANCH   1   7
BRANCH   4  19
ATOM     19  C   UNL     1      49.781   8.341  14.741  0.00  0.00    +0.000 C 
BRANCH  19  20
ATOM     20  N   UNL     1      49.827   7.024  15.322  0.00  0.00    +0.000 N 
ATOM     21  C   UNL     1      49.312   6.707  16.548  0.00  0.00    +0.000 C 
ATOM     22  O   UNL     1      48.673   7.498  17.233  0.00  0.00    +0.000 OA
ATOM     23  H   UNL     1      50.396   6.347  14.834  0.00  0.00    +0.000 HD
BRANCH  21  24
ATOM     24  C   UNL     1      49.524   5.318  16.957  0.00  0.00    +0.000 A 
ATOM     25  C   UNL     1      48.458   4.442  17.071  0.00  0.00    +0.000 A 
ATOM     26  S   UNL     1      48.936   2.852  17.472  0.00  0.00    +0.000 S 
ATOM     27  C   UNL     1      50.576   3.301  17.552  0.00  0.00    +0.000 A 
ATOM     28  N   UNL     1      51.545   2.395  17.840  0.00  0.00    +0.000 NA
ATOM     29  C   UNL     1      52.742   2.878  17.870  0.00  0.00    +0.000 A 
ATOM     30  N   UNL     1      53.080   4.197  17.655  0.00  0.00    +0.000 N 
ATOM     31  C   UNL     1      54.459   4.635  17.684  0.00  0.00    +0.000 C 
ATOM     32  C   UNL     1      52.114   5.152  17.366  0.00  0.00    +0.000 A 
ATOM     33  O   UNL     1      52.400   6.329  17.151  0.00  0.00    +0.000 OA
ATOM     34  C   UNL     1      50.757   4.642  17.289  0.00  0.00    +0.000 A 
ENDBRANCH  21  24
ENDBRANCH  19  20
ENDBRANCH   4  19
TORSDOF 8
ENDMDL
MODEL 7
REMARK VINA RESULT:    -6.869      3.839      8.891
REMARK INTER + INTRA:         -11.082
REMARK INTER:                  -9.446
REMARK INTRA:                  -1.636
REMARK UNBOUND:                -1.001
REMARK  Name = 
REMARK  10 active torsions:
REMARK  status: ('A' for Active; 'I' for Inactive)
REMARK    1  A    between atoms: C_1  and  C_2
REMARK    2  A    between atoms: C_2  and  C_3
REMARK    3  A    between atoms: C_3  and  N_4
REMARK    4  A    between atoms: C_3  and  C_27
REMARK    5  A    between atoms: N_4  and  C_5
REMARK    6  A    between atoms: C_5  and  C_6
REMARK    7  A    between atoms: C_9  and  C_10
REMARK    8  A    between atoms: C_10  and  N_11
REMARK    9  A    between atoms: C_12  and  C_14
REMARK   10  A    between atoms: N_20  and  C_21
REMARK                            x       y       z     vdW  Elec       q    Type
REMARK                         _______ _______ _______ _____ _____    ______ ____
ROOT
ATOM      1  C   UNL     1      48.912   5.943  20.227  0.00  0.00    +0.000 C 
ATOM      2  C   UNL     1      47.740   6.509  19.416  0.00  0.00    +0.000 C 
ATOM      3  C   UNL     1      47.644   5.877  18.034  0.00  0.00    +0.000 C 
ATOM      4  C   UNL     1      47.491   4.348  18.120  0.00  0.00    +0.000 C 
ATOM      5  C   UNL     1      48.558   3.703  19.012  0.00  0.00    +0.000 C 
ATOM      6  C   UNL     1      48.752   4.417  20.348  0.00  0.00    +0.000 C 
ENDROOT
BRANCH   1   7
ATOM      7  C   UNL     1      50.307   6.349  19.685  0.00  0.00    +0.000 C 
BRANCH   7   8
ATOM      8  N   UNL     1      51.180   5.178  19.606  0.00  0.00    +0.000 NA
ATOM      9  H   UNL     1      51.902   5.279  20.324  0.00  0.00    +0.000 HD
BRANCH   8  10
ATOM     10  C   UNL     1      51.913   4.965  18.341  0.00  0.00    +0.000 C 
BRANCH  10  11
ATOM     11  C   UNL     1      52.073   3.446  18.125  0.00  0.00    +0.000 A 
ATOM     12  C   UNL     1      53.143   2.755  18.704  0.00  0.00    +0.000 A 
ATOM     13  N   UNL     1      53.338   1.419  18.552  0.00  0.00    +0.000 NA
ATOM     14  C   UNL     1      52.439   0.795  17.770  0.00  0.00    +0.000 A 
ATOM     15  C   UNL     1      51.378   1.468  17.178  0.00  0.00    +0.000 A 
ATOM     16  N   UNL     1      51.175   2.799  17.336  0.00  0.00    +0.000 NA
ENDBRANCH  10  11
BRANCH  10  18
ATOM     17  C   UNL     1      52.075   6.686  16.379  0.00  0.00    +0.000 C 
ATOM     18  C   UNL     1      51.297   5.565  17.052  0.00  0.00    +0.000 C 
ENDBRANCH  10  18
ENDBRANCH   8  10
ENDBRANCH   7   8
ENDBRANCH   1   7
BRANCH   4  19
ATOM     19  C   UNL     1      47.557   3.708  16.730  0.00  0.00    +0.000 C 
BRANCH  19  20
ATOM     20  N   UNL     1      47.002   4.573  15.721  0.00  0.00    +0.000 N 
ATOM     21  C   UNL     1      46.916   4.250  14.396  0.00  0.00    +0.000 C 
ATOM     22  O   UNL     1      47.218   3.147  13.952  0.00  0.00    +0.000 OA
ATOM     23  H   UNL     1      46.796   5.517  16.015  0.00  0.00    +0.000 HD
BRANCH  21  24
ATOM     24  C   UNL     1      46.368   5.307  13.545  0.00  0.00    +0.000 A 
ATOM     25  C   UNL     1      45.144   5.149  12.918  0.00  0.00    +0.000 A 
ATOM     26  S   UNL     1      44.651   6.534  12.050  0.00  0.00    +0.000 S 
ATOM     27  C   UNL     1      46.082   7.367  12.447  0.00  0.00    +0.000 A 
ATOM     28  N   UNL     1      46.301   8.639  12.027  0.00  0.00    +0.000 NA
ATOM     29  C   UNL     1      47.430   9.142  12.401  0.00  0.00    +0.000 A 
ATOM     30  N   UNL     1      48.388   8.493  13.150  0.00  0.00    +0.000 N 
ATOM     31  C   UNL     1      49.614   9.157  13.541  0.00  0.00    +0.000 C 
ATOM     32  C   UNL     1      48.201   7.190  13.590  0.00  0.00    +0.000 A 
ATOM     33  O   UNL     1      49.035   6.603  14.277  0.00  0.00    +0.000 OA
ATOM     34  C   UNL     1      46.927   6.599  13.220  0.00  0.00    +0.000 A 
ENDBRANCH  21  24
ENDBRANCH  19  20
ENDBRANCH   4  19
TORSDOF 8
ENDMDL
MODEL 8
REMARK VINA RESULT:    -6.606      2.859      4.413
REMARK INTER + INTRA:         -10.696
REMARK INTER:                  -9.081
REMARK INTRA:                  -1.615
REMARK UNBOUND:                -1.001
REMARK  Name = 
REMARK  10 active torsions:
REMARK  status: ('A' for Active; 'I' for Inactive)
REMARK    1  A    between atoms: C_1  and  C_2
REMARK    2  A    between atoms: C_2  and  C_3
REMARK    3  A    between atoms: C_3  and  N_4
REMARK    4  A    between atoms: C_3  and  C_27
REMARK    5  A    between atoms: N_4  and  C_5
REMARK    6  A    between atoms: C_5  and  C_6
REMARK    7  A    between atoms: C_9  and  C_10
REMARK    8  A    between atoms: C_10  and  N_11
REMARK    9  A    between atoms: C_12  and  C_14
REMARK   10  A    between atoms: N_20  and  C_21
REMARK                            x       y       z     vdW  Elec       q    Type
REMARK                         _______ _______ _______ _____ _____    ______ ____
ROOT
ATOM      1  C   UNL     1      48.382   8.130  12.275  0.00  0.00    +0.000 C 
ATOM      2  C   UNL     1      47.886   9.096  13.360  0.00  0.00    +0.000 C 
ATOM      3  C   UNL     1      48.411   8.720  14.740  0.00  0.00    +0.000 C 
ATOM      4  C   UNL     1      49.949   8.690  14.772  0.00  0.00    +0.000 C 
ATOM      5  C   UNL     1      50.540   7.836  13.643  0.00  0.00    +0.000 C 
ATOM      6  C   UNL     1      49.921   8.116  12.277  0.00  0.00    +0.000 C 
ENDROOT
BRANCH   1   7
ATOM      7  C   UNL     1      47.777   6.705  12.378  0.00  0.00    +0.000 C 
BRANCH   7   8
ATOM      8  N   UNL     1      46.344   6.784  12.663  0.00  0.00    +0.000 NA
ATOM      9  H   UNL     1      46.113   6.023  13.307  0.00  0.00    +0.000 HD
BRANCH   8  10
ATOM     10  C   UNL     1      45.418   6.627  11.523  0.00  0.00    +0.000 C 
BRANCH  10  11
ATOM     11  C   UNL     1      44.704   5.267  11.665  0.00  0.00    +0.000 A 
ATOM     12  C   UNL     1      44.232   4.839  12.910  0.00  0.00    +0.000 A 
ATOM     13  N   UNL     1      43.594   3.654  13.100  0.00  0.00    +0.000 NA
ATOM     14  C   UNL     1      43.470   2.889  12.001  0.00  0.00    +0.000 A 
ATOM     15  C   UNL     1      43.944   3.293  10.759  0.00  0.00    +0.000 A 
ATOM     16  N   UNL     1      44.571   4.480  10.565  0.00  0.00    +0.000 NA
ENDBRANCH  10  11
BRANCH  10  18
ATOM     17  C   UNL     1      44.758   9.156  11.569  0.00  0.00    +0.000 C 
ATOM     18  C   UNL     1      44.332   7.716  11.333  0.00  0.00    +0.000 C 
ENDBRANCH  10  18
ENDBRANCH   8  10
ENDBRANCH   7   8
ENDBRANCH   1   7
BRANCH   4  19
ATOM     19  C   UNL     1      50.462   8.157  16.113  0.00  0.00    +0.000 C 
BRANCH  19  20
ATOM     20  N   UNL     1      50.234   6.741  16.244  0.00  0.00    +0.000 N 
ATOM     21  C   UNL     1      49.440   6.176  17.202  0.00  0.00    +0.000 C 
ATOM     22  O   UNL     1      48.766   6.832  17.989  0.00  0.00    +0.000 OA
ATOM     23  H   UNL     1      50.811   6.147  15.666  0.00  0.00    +0.000 HD
BRANCH  21  24
ATOM     24  C   UNL     1      49.402   4.713  17.177  0.00  0.00    +0.000 A 
ATOM     25  C   UNL     1      48.226   4.040  16.892  0.00  0.00    +0.000 A 
ATOM     26  S   UNL     1      48.422   2.345  16.826  0.00  0.00    +0.000 S 
ATOM     27  C   UNL     1      50.074   2.460  17.224  0.00  0.00    +0.000 A 
ATOM     28  N   UNL     1      50.858   1.356  17.318  0.00  0.00    +0.000 NA
ATOM     29  C   UNL     1      52.088   1.595  17.631  0.00  0.00    +0.000 A 
ATOM     30  N   UNL     1      52.625   2.841  17.878  0.00  0.00    +0.000 N 
ATOM     31  C   UNL     1      54.027   3.006  18.196  0.00  0.00    +0.000 C 
ATOM     32  C   UNL     1      51.850   3.990  17.798  0.00  0.00    +0.000 A 
ATOM     33  O   UNL     1      52.317   5.111  17.995  0.00  0.00    +0.000 OA
ATOM     34  C   UNL     1      50.468   3.768  17.415  0.00  0.00    +0.000 A 
ENDBRANCH  21  24
ENDBRANCH  19  20
ENDBRANCH   4  19
TORSDOF 8
ENDMDL
MODEL 9
REMARK VINA RESULT:    -6.565      3.356      4.217
REMARK INTER + INTRA:         -10.636
REMARK INTER:                  -9.361
REMARK INTRA:                  -1.275
REMARK UNBOUND:                -1.001
REMARK  Name = 
REMARK  10 active torsions:
REMARK  status: ('A' for Active; 'I' for Inactive)
REMARK    1  A    between atoms: C_1  and  C_2
REMARK    2  A    between atoms: C_2  and  C_3
REMARK    3  A    between atoms: C_3  and  N_4
REMARK    4  A    between atoms: C_3  and  C_27
REMARK    5  A    between atoms: N_4  and  C_5
REMARK    6  A    between atoms: C_5  and  C_6
REMARK    7  A    between atoms: C_9  and  C_10
REMARK    8  A    between atoms: C_10  and  N_11
REMARK    9  A    between atoms: C_12  and  C_14
REMARK   10  A    between atoms: N_20  and  C_21
REMARK                            x       y       z     vdW  Elec       q    Type
REMARK                         _______ _______ _______ _____ _____    ______ ____
ROOT
ATOM      1  C   UNL     1      47.247   6.547  11.961  0.00  0.00    +0.000 C 
ATOM      2  C   UNL     1      48.225   7.549  11.335  0.00  0.00    +0.000 C 
ATOM      3  C   UNL     1      48.289   8.851  12.124  0.00  0.00    +0.000 C 
ATOM      4  C   UNL     1      48.702   8.607  13.585  0.00  0.00    +0.000 C 
ATOM      5  C   UNL     1      47.849   7.527  14.262  0.00  0.00    +0.000 C 
ATOM      6  C   UNL     1      47.670   6.270  13.415  0.00  0.00    +0.000 C 
ENDROOT
BRANCH   1   7
ATOM      7  C   UNL     1      45.758   6.965  11.848  0.00  0.00    +0.000 C 
BRANCH   7   8
ATOM      8  N   UNL     1      45.165   6.400  10.635  0.00  0.00    +0.000 NA
ATOM      9  H   UNL     1      44.433   7.040  10.320  0.00  0.00    +0.000 HD
BRANCH   8  10
ATOM     10  C   UNL     1      44.508   5.082  10.755  0.00  0.00    +0.000 C 
BRANCH  10  11
ATOM     11  C   UNL     1      45.071   4.160   9.654  0.00  0.00    +0.000 A 
ATOM     12  C   UNL     1      44.946   2.771   9.758  0.00  0.00    +0.000 A 
ATOM     13  N   UNL     1      45.419   1.906   8.823  0.00  0.00    +0.000 NA
ATOM     14  C   UNL     1      46.055   2.478   7.785  0.00  0.00    +0.000 A 
ATOM     15  C   UNL     1      46.198   3.856   7.671  0.00  0.00    +0.000 A 
ATOM     16  N   UNL     1      45.718   4.721   8.598  0.00  0.00    +0.000 NA
ENDBRANCH  10  11
BRANCH  10  18
ATOM     17  C   UNL     1      43.366   4.146  12.913  0.00  0.00    +0.000 C 
ATOM     18  C   UNL     1      44.642   4.340  12.109  0.00  0.00    +0.000 C 
ENDBRANCH  10  18
ENDBRANCH   8  10
ENDBRANCH   7   8
ENDBRANCH   1   7
BRANCH   4  19
ATOM     19  C   UNL     1      48.609   9.896  14.407  0.00  0.00    +0.000 C 
BRANCH  19  20
ATOM     20  N   UNL     1      48.206   9.631  15.764  0.00  0.00    +0.000 N 
ATOM     21  C   UNL     1      49.019   9.788  16.851  0.00  0.00    +0.000 C 
ATOM     22  O   UNL     1      50.147  10.264  16.783  0.00  0.00    +0.000 OA
ATOM     23  H   UNL     1      47.311   9.178  15.877  0.00  0.00    +0.000 HD
BRANCH  21  24
ATOM     24  C   UNL     1      48.413   9.404  18.127  0.00  0.00    +0.000 A 
ATOM     25  C   UNL     1      47.807  10.349  18.936  0.00  0.00    +0.000 A 
ATOM     26  S   UNL     1      47.085   9.676  20.330  0.00  0.00    +0.000 S 
ATOM     27  C   UNL     1      47.606   8.109  19.916  0.00  0.00    +0.000 A 
ATOM     28  N   UNL     1      47.306   7.036  20.691  0.00  0.00    +0.000 NA
ATOM     29  C   UNL     1      47.769   5.911  20.255  0.00  0.00    +0.000 A 
ATOM     30  N   UNL     1      48.526   5.744  19.115  0.00  0.00    +0.000 N 
ATOM     31  C   UNL     1      48.976   4.433  18.697  0.00  0.00    +0.000 C 
ATOM     32  C   UNL     1      48.857   6.820  18.303  0.00  0.00    +0.000 A 
ATOM     33  O   UNL     1      49.514   6.686  17.272  0.00  0.00    +0.000 OA
ATOM     34  C   UNL     1      48.326   8.099  18.740  0.00  0.00    +0.000 A 
ENDBRANCH  21  24
ENDBRANCH  19  20
ENDBRANCH   4  19
TORSDOF 8
ENDMDL
