MODEL 1
REMARK VINA RESULT:    -6.989      0.000      0.000
REMARK INTER + INTRA:         -10.961
REMARK INTER:                 -10.462
REMARK INTRA:                  -0.500
REMARK UNBOUND:                -0.500
REMARK  Name = 
REMARK  9 active torsions:
REMARK  status: ('A' for Active; 'I' for Inactive)
REMARK    1  A    between atoms: N_1  and  C_2
REMARK    2  A    between atoms: C_2  and  C_3
REMARK    3  A    between atoms: C_3  and  C_4
REMARK    4  A    between atoms: C_4  and  N_5
REMARK    5  A    between atoms: N_5  and  C_6
REMARK    6  A    between atoms: C_6  and  C_7
REMARK    7  A    between atoms: C_10  and  C_11
REMARK    8  A    between atoms: C_12  and  C_13
REMARK    9  A    between atoms: C_16  and  C_17
REMARK                            x       y       z     vdW  Elec       q    Type
REMARK                         _______ _______ _______ _____ _____    ______ ____
ROOT
ATOM      1  C   UNL     1      44.898   4.259  10.022  0.00  0.00    +0.000 A 
ATOM      2  C   UNL     1      45.601   5.435  10.272  0.00  0.00    +0.000 A 
ATOM      3  C   UNL     1      46.036   5.699  11.567  0.00  0.00    +0.000 A 
ATOM      4  C   UNL     1      45.745   4.802  12.596  0.00  0.00    +0.000 A 
ATOM      5  C   UNL     1      45.059   3.642  12.245  0.00  0.00    +0.000 A 
ATOM      6  N   UNL     1      44.630   3.351  10.993  0.00  0.00    +0.000 NA
ENDROOT
BRANCH   4   7
ATOM      7  C   UNL     1      46.195   5.006  13.979  0.00  0.00    +0.000 C 
ATOM      8  C   UNL     1      47.128   4.244  14.572  0.00  0.00    +0.000 C 
BRANCH   8   9
ATOM      9  C   UNL     1      47.562   4.383  15.970  0.00  0.00    +0.000 A 
ATOM     10  C   UNL     1      47.409   3.354  16.909  0.00  0.00    +0.000 A 
ATOM     11  C   UNL     1      47.914   3.490  18.203  0.00  0.00    +0.000 A 
ATOM     12  C   UNL     1      48.598   4.651  18.584  0.00  0.00    +0.000 A 
ATOM     13  C   UNL     1      48.750   5.682  17.646  0.00  0.00    +0.000 A 
ATOM     14  C   UNL     1      48.240   5.546  16.352  0.00  0.00    +0.000 A 
BRANCH  12  15
ATOM     15  C   UNL     1      49.183   4.794  19.966  0.00  0.00    +0.000 C 
ATOM     16  F   UNL     1      50.521   4.542  20.022  0.00  0.00    +0.000 F 
ATOM     17  F   UNL     1      49.021   6.048  20.472  0.00  0.00    +0.000 F 
ATOM     18  F   UNL     1      48.607   3.951  20.868  0.00  0.00    +0.000 F 
ENDBRANCH  12  15
ENDBRANCH   8   9
ENDBRANCH   4   7
BRANCH   1  19
ATOM     19  C   UNL     1      44.456   3.926   8.610  0.00  0.00    +0.000 C 
BRANCH  19  20
ATOM     20  N   UNL     1      45.503   3.299   7.783  0.00  0.00    +0.000 NA
ATOM     21  H   UNL     1      45.139   3.188   6.838  0.00  0.00    +0.000 HD
BRANCH  20  22
ATOM     22  C   UNL     1      45.872   1.979   8.307  0.00  0.00    +0.000 C 
BRANCH  22  23
ATOM     23  C   UNL     1      46.957   1.358   7.430  0.00  0.00    +0.000 C 
BRANCH  23  24
ATOM     24  C   UNL     1      47.748   2.452   6.714  0.00  0.00    +0.000 C 
BRANCH  24  25
ATOM     25  N   UNL     1      48.569   1.879   5.655  0.00  0.00    +0.000 NA
ATOM     26  H   UNL     1      49.551   2.075   5.847  0.00  0.00    +0.000 HD
ATOM     27  H   UNL     1      48.354   2.337   4.771  0.00  0.00    +0.000 HD
ENDBRANCH  24  25
ENDBRANCH  23  24
ENDBRANCH  22  23
ENDBRANCH  20  22
ENDBRANCH  19  20
ENDBRANCH   1  19
TORSDOF 9
ENDMDL
MODEL 2
REMARK VINA RESULT:    -5.704      6.140      9.875
REMARK INTER + INTRA:          -9.037
REMARK INTER:                  -8.072
REMARK INTRA:                  -0.966
REMARK UNBOUND:                -0.500
REMARK  Name = 
REMARK  9 active torsions:
REMARK  status: ('A' for Active; 'I' for Inactive)
REMARK    1  A    between atoms: N_1  and  C_2
REMARK    2  A    between atoms: C_2  and  C_3
REMARK    3  A    between atoms: C_3  and  C_4
REMARK    4  A    between atoms: C_4  and  N_5
REMARK    5  A    between atoms: N_5  and  C_6
REMARK    6  A    between atoms: C_6  and  C_7
REMARK    7  A    between atoms: C_10  and  C_11
REMARK    8  A    between atoms: C_12  and  C_13
REMARK    9  A    between atoms: C_16  and  C_17
REMARK                            x       y       z     vdW  Elec       q    Type
REMARK                         _______ _______ _______ _____ _____    ______ ____
ROOT
ATOM      1  C   UNL     1      49.230   4.896  19.040  0.00  0.00    +0.000 A 
ATOM      2  C   UNL     1      48.648   3.641  18.881  0.00  0.00    +0.000 A 
ATOM      3  C   UNL     1      47.973   3.354  17.699  0.00  0.00    +0.000 A 
ATOM      4  C   UNL     1      47.867   4.327  16.703  0.00  0.00    +0.000 A 
ATOM      5  C   UNL     1      48.502   5.543  16.942  0.00  0.00    +0.000 A 
ATOM      6  N   UNL     1      49.173   5.851  18.078  0.00  0.00    +0.000 NA
ENDROOT
BRANCH   4   7
ATOM      7  C   UNL     1      47.192   4.082  15.422  0.00  0.00    +0.000 C 
ATOM      8  C   UNL     1      47.115   4.996  14.442  0.00  0.00    +0.000 C 
BRANCH   8   9
ATOM      9  C   UNL     1      46.399   4.807  13.172  0.00  0.00    +0.000 A 
ATOM     10  C   UNL     1      46.302   5.818  12.207  0.00  0.00    +0.000 A 
ATOM     11  C   UNL     1      45.692   5.572  10.975  0.00  0.00    +0.000 A 
ATOM     12  C   UNL     1      45.178   4.304  10.674  0.00  0.00    +0.000 A 
ATOM     13  C   UNL     1      45.273   3.292  11.640  0.00  0.00    +0.000 A 
ATOM     14  C   UNL     1      45.881   3.541  12.874  0.00  0.00    +0.000 A 
BRANCH  12  15
ATOM     15  C   UNL     1      44.553   4.014   9.333  0.00  0.00    +0.000 C 
ATOM     16  F   UNL     1      43.425   4.737   9.088  0.00  0.00    +0.000 F 
ATOM     17  F   UNL     1      45.398   4.282   8.299  0.00  0.00    +0.000 F 
ATOM     18  F   UNL     1      44.197   2.707   9.195  0.00  0.00    +0.000 F 
ENDBRANCH  12  15
ENDBRANCH   8   9
ENDBRANCH   4   7
BRANCH   1  19
ATOM     19  C   UNL     1      50.012   5.215  20.299  0.00  0.00    +0.000 C 
BRANCH  19  20
ATOM     20  N   UNL     1      51.211   4.379  20.491  0.00  0.00    +0.000 NA
ATOM     21  H   UNL     1      51.322   4.206  21.489  0.00  0.00    +0.000 HD
BRANCH  20  22
ATOM     22  C   UNL     1      52.413   5.055  19.992  0.00  0.00    +0.000 C 
BRANCH  22  23
ATOM     23  C   UNL     1      52.624   4.714  18.517  0.00  0.00    +0.000 C 
BRANCH  23  24
ATOM     24  C   UNL     1      52.577   3.202  18.312  0.00  0.00    +0.000 C 
BRANCH  24  25
ATOM     25  N   UNL     1      53.311   2.520  19.371  0.00  0.00    +0.000 NA
ATOM     26  H   UNL     1      53.921   3.187  19.843  0.00  0.00    +0.000 HD
ATOM     27  H   UNL     1      53.923   1.815  18.962  0.00  0.00    +0.000 HD
ENDBRANCH  24  25
ENDBRANCH  23  24
ENDBRANCH  22  23
ENDBRANCH  20  22
ENDBRANCH  19  20
ENDBRANCH   1  19
TORSDOF 9
ENDMDL
MODEL 3
REMARK VINA RESULT:    -5.435      2.278      3.125
REMARK INTER + INTRA:          -8.635
REMARK INTER:                  -7.918
REMARK INTRA:                  -0.717
REMARK UNBOUND:                -0.500
REMARK  Name = 
REMARK  9 active torsions:
REMARK  status: ('A' for Active; 'I' for Inactive)
REMARK    1  A    between atoms: N_1  and  C_2
REMARK    2  A    between atoms: C_2  and  C_3
REMARK    3  A    between atoms: C_3  and  C_4
REMARK    4  A    between atoms: C_4  and  N_5
REMARK    5  A    between atoms: N_5  and  C_6
REMARK    6  A    between atoms: C_6  and  C_7
REMARK    7  A    between atoms: C_10  and  C_11
REMARK    8  A    between atoms: C_12  and  C_13
REMARK    9  A    between atoms: C_16  and  C_17
REMARK                            x       y       z     vdW  Elec       q    Type
REMARK                         _______ _______ _______ _____ _____    ______ ____
ROOT
ATOM      1  C   UNL     1      44.997   4.354  10.239  0.00  0.00    +0.000 A 
ATOM      2  C   UNL     1      44.966   3.840  11.533  0.00  0.00    +0.000 A 
ATOM      3  C   UNL     1      45.591   4.547  12.555  0.00  0.00    +0.000 A 
ATOM      4  C   UNL     1      46.256   5.741  12.272  0.00  0.00    +0.000 A 
ATOM      5  C   UNL     1      46.212   6.188  10.954  0.00  0.00    +0.000 A 
ATOM      6  N   UNL     1      45.606   5.528   9.937  0.00  0.00    +0.000 NA
ENDROOT
BRANCH   4   7
ATOM      7  C   UNL     1      46.913   6.549  13.307  0.00  0.00    +0.000 C 
ATOM      8  C   UNL     1      47.891   6.082  14.098  0.00  0.00    +0.000 C 
BRANCH   8   9
ATOM      9  C   UNL     1      48.531   6.844  15.181  0.00  0.00    +0.000 A 
ATOM     10  C   UNL     1      48.580   8.244  15.187  0.00  0.00    +0.000 A 
ATOM     11  C   UNL     1      49.116   8.934  16.276  0.00  0.00    +0.000 A 
ATOM     12  C   UNL     1      49.601   8.240  17.392  0.00  0.00    +0.000 A 
ATOM     13  C   UNL     1      49.553   6.839  17.387  0.00  0.00    +0.000 A 
ATOM     14  C   UNL     1      49.020   6.149  16.294  0.00  0.00    +0.000 A 
BRANCH  12  15
ATOM     15  C   UNL     1      50.145   8.974  18.591  0.00  0.00    +0.000 C 
ATOM     16  F   UNL     1      49.386   8.825  19.713  0.00  0.00    +0.000 F 
ATOM     17  F   UNL     1      51.396   8.556  18.931  0.00  0.00    +0.000 F 
ATOM     18  F   UNL     1      50.244  10.316  18.382  0.00  0.00    +0.000 F 
ENDBRANCH  12  15
ENDBRANCH   8   9
ENDBRANCH   4   7
BRANCH   1  19
ATOM     19  C   UNL     1      44.283   3.626   9.116  0.00  0.00    +0.000 C 
BRANCH  19  20
ATOM     20  N   UNL     1      44.713   2.228   8.937  0.00  0.00    +0.000 NA
ATOM     21  H   UNL     1      44.737   1.782   9.853  0.00  0.00    +0.000 HD
BRANCH  20  22
ATOM     22  C   UNL     1      46.052   2.157   8.341  0.00  0.00    +0.000 C 
BRANCH  22  23
ATOM     23  C   UNL     1      46.106   3.027   7.086  0.00  0.00    +0.000 C 
BRANCH  23  24
ATOM     24  C   UNL     1      47.192   2.520   6.139  0.00  0.00    +0.000 C 
BRANCH  24  25
ATOM     25  N   UNL     1      48.019   1.518   6.799  0.00  0.00    +0.000 NA
ATOM     26  H   UNL     1      48.441   0.913   6.095  0.00  0.00    +0.000 HD
ATOM     27  H   UNL     1      47.431   0.917   7.375  0.00  0.00    +0.000 HD
ENDBRANCH  24  25
ENDBRANCH  23  24
ENDBRANCH  22  23
ENDBRANCH  20  22
ENDBRANCH  19  20
ENDBRANCH   1  19
TORSDOF 9
ENDMDL
MODEL 4
REMARK VINA RESULT:    -5.352      1.762      2.790
REMARK INTER + INTRA:          -8.511
REMARK INTER:                  -7.799
REMARK INTRA:                  -0.711
REMARK UNBOUND:                -0.500
REMARK  Name = 
REMARK  9 active torsions:
REMARK  status: ('A' for Active; 'I' for Inactive)
REMARK    1  A    between atoms: N_1  and  C_2
REMARK    2  A    between atoms: C_2  and  C_3
REMARK    3  A    between atoms: C_3  and  C_4
REMARK    4  A    between atoms: C_4  and  N_5
REMARK    5  A    between atoms: N_5  and  C_6
REMARK    6  A    between atoms: C_6  and  C_7
REMARK    7  A    between atoms: C_10  and  C_11
REMARK    8  A    between atoms: C_12  and  C_13
REMARK    9  A    between atoms: C_16  and  C_17
REMARK                            x       y       z     vdW  Elec       q    Type
REMARK                         _______ _______ _______ _____ _____    ______ ____
ROOT
ATOM      1  C   UNL     1      45.243   4.991  11.451  0.00  0.00    +0.000 A 
ATOM      2  C   UNL     1      45.368   4.064  12.483  0.00  0.00    +0.000 A 
ATOM      3  C   UNL     1      46.231   4.341  13.539  0.00  0.00    +0.000 A 
ATOM      4  C   UNL     1      46.974   5.523  13.539  0.00  0.00    +0.000 A 
ATOM      5  C   UNL     1      46.765   6.398  12.478  0.00  0.00    +0.000 A 
ATOM      6  N   UNL     1      45.926   6.163  11.440  0.00  0.00    +0.000 NA
ENDROOT
BRANCH   4   7
ATOM      7  C   UNL     1      47.884   5.889  14.633  0.00  0.00    +0.000 C 
ATOM      8  C   UNL     1      47.995   5.182  15.769  0.00  0.00    +0.000 C 
BRANCH   8   9
ATOM      9  C   UNL     1      48.851   5.550  16.906  0.00  0.00    +0.000 A 
ATOM     10  C   UNL     1      50.122   6.114  16.738  0.00  0.00    +0.000 A 
ATOM     11  C   UNL     1      50.868   6.533  17.841  0.00  0.00    +0.000 A 
ATOM     12  C   UNL     1      50.352   6.412  19.138  0.00  0.00    +0.000 A 
ATOM     13  C   UNL     1      49.081   5.846  19.309  0.00  0.00    +0.000 A 
ATOM     14  C   UNL     1      48.338   5.423  18.203  0.00  0.00    +0.000 A 
BRANCH  12  15
ATOM     15  C   UNL     1      51.130   6.898  20.335  0.00  0.00    +0.000 C 
ATOM     16  F   UNL     1      50.426   7.744  21.138  0.00  0.00    +0.000 F 
ATOM     17  F   UNL     1      51.537   5.876  21.139  0.00  0.00    +0.000 F 
ATOM     18  F   UNL     1      52.262   7.570  19.985  0.00  0.00    +0.000 F 
ENDBRANCH  12  15
ENDBRANCH   8   9
ENDBRANCH   4   7
BRANCH   1  19
ATOM     19  C   UNL     1      44.273   4.733  10.315  0.00  0.00    +0.000 C 
BRANCH  19  20
ATOM     20  N   UNL     1      43.785   3.344  10.243  0.00  0.00    +0.000 NA
ATOM     21  H   UNL     1      43.868   2.930  11.170  0.00  0.00    +0.000 HD
BRANCH  20  22
ATOM     22  C   UNL     1      44.579   2.552   9.298  0.00  0.00    +0.000 C 
BRANCH  22  23
ATOM     23  C   UNL     1      44.861   3.374   8.042  0.00  0.00    +0.000 C 
BRANCH  23  24
ATOM     24  C   UNL     1      46.254   3.056   7.503  0.00  0.00    +0.000 C 
BRANCH  24  25
ATOM     25  N   UNL     1      46.791   4.194   6.768  0.00  0.00    +0.000 NA
ATOM     26  H   UNL     1      47.747   4.373   7.075  0.00  0.00    +0.000 HD
ATOM     27  H   UNL     1      46.256   5.031   6.998  0.00  0.00    +0.000 HD
ENDBRANCH  24  25
ENDBRANCH  23  24
ENDBRANCH  22  23
ENDBRANCH  20  22
ENDBRANCH  19  20
ENDBRANCH   1  19
TORSDOF 9
ENDMDL
MODEL 5
REMARK VINA RESULT:    -5.157      3.707      4.440
REMARK INTER + INTRA:          -8.219
REMARK INTER:                  -7.554
REMARK INTRA:                  -0.665
REMARK UNBOUND:                -0.500
REMARK  Name = 
REMARK  9 active torsions:
REMARK  status: ('A' for Active; 'I' for Inactive)
REMARK    1  A    between atoms: N_1  and  C_2
REMARK    2  A    between atoms: C_2  and  C_3
REMARK    3  A    between atoms: C_3  and  C_4
REMARK    4  A    between atoms: C_4  and  N_5
REMARK    5  A    between atoms: N_5  and  C_6
REMARK    6  A    between atoms: C_6  and  C_7
REMARK    7  A    between atoms: C_10  and  C_11
REMARK    8  A    between atoms: C_12  and  C_13
REMARK    9  A    between atoms: C_16  and  C_17
REMARK                            x       y       z     vdW  Elec       q    Type
REMARK                         _______ _______ _______ _____ _____    ______ ____
ROOT
ATOM      1  C   UNL     1      44.961   4.483  11.345  0.00  0.00    +0.000 A 
ATOM      2  C   UNL     1      45.326   3.825  12.517  0.00  0.00    +0.000 A 
ATOM      3  C   UNL     1      46.285   4.401  13.344  0.00  0.00    +0.000 A 
ATOM      4  C   UNL     1      46.883   5.609  12.982  0.00  0.00    +0.000 A 
ATOM      5  C   UNL     1      46.436   6.204  11.805  0.00  0.00    +0.000 A 
ATOM      6  N   UNL     1      45.499   5.674  10.982  0.00  0.00    +0.000 NA
ENDROOT
BRANCH   4   7
ATOM      7  C   UNL     1      47.883   6.284  13.820  0.00  0.00    +0.000 C 
ATOM      8  C   UNL     1      48.946   6.934  13.322  0.00  0.00    +0.000 C 
BRANCH   8   9
ATOM      9  C   UNL     1      49.996   7.571  14.131  0.00  0.00    +0.000 A 
ATOM     10  C   UNL     1      50.224   7.227  15.470  0.00  0.00    +0.000 A 
ATOM     11  C   UNL     1      51.288   7.788  16.179  0.00  0.00    +0.000 A 
ATOM     12  C   UNL     1      52.158   8.695  15.560  0.00  0.00    +0.000 A 
ATOM     13  C   UNL     1      51.931   9.041  14.220  0.00  0.00    +0.000 A 
ATOM     14  C   UNL     1      50.862   8.481  13.513  0.00  0.00    +0.000 A 
BRANCH  12  15
ATOM     15  C   UNL     1      53.334   9.277  16.302  0.00  0.00    +0.000 C 
ATOM     16  F   UNL     1      54.540   8.842  15.841  0.00  0.00    +0.000 F 
ATOM     17  F   UNL     1      53.375  10.636  16.223  0.00  0.00    +0.000 F 
ATOM     18  F   UNL     1      53.313   8.980  17.631  0.00  0.00    +0.000 F 
ENDBRANCH  12  15
ENDBRANCH   8   9
ENDBRANCH   4   7
BRANCH   1  19
ATOM     19  C   UNL     1      43.883   3.899  10.452  0.00  0.00    +0.000 C 
BRANCH  19  20
ATOM     20  N   UNL     1      44.002   2.445  10.237  0.00  0.00    +0.000 NA
ATOM     21  H   UNL     1      44.406   2.032  11.076  0.00  0.00    +0.000 HD
BRANCH  20  22
ATOM     22  C   UNL     1      44.875   2.148   9.096  0.00  0.00    +0.000 C 
BRANCH  22  23
ATOM     23  C   UNL     1      44.832   3.304   8.097  0.00  0.00    +0.000 C 
BRANCH  23  24
ATOM     24  C   UNL     1      46.110   3.326   7.261  0.00  0.00    +0.000 C 
BRANCH  24  25
ATOM     25  N   UNL     1      46.909   2.134   7.516  0.00  0.00    +0.000 NA
ATOM     26  H   UNL     1      46.566   1.368   6.937  0.00  0.00    +0.000 HD
ATOM     27  H   UNL     1      46.782   1.839   8.483  0.00  0.00    +0.000 HD
ENDBRANCH  24  25
ENDBRANCH  23  24
ENDBRANCH  22  23
ENDBRANCH  20  22
ENDBRANCH  19  20
ENDBRANCH   1  19
TORSDOF 9
ENDMDL
MODEL 6
REMARK VINA RESULT:    -4.932     10.391     11.761
REMARK INTER + INTRA:          -7.882
REMARK INTER:                  -7.034
REMARK INTRA:                  -0.847
REMARK UNBOUND:                -0.500
REMARK  Name = 
REMARK  9 active torsions:
REMARK  status: ('A' for Active; 'I' for Inactive)
REMARK    1  A    between atoms: N_1  and  C_2
REMARK    2  A    between atoms: C_2  and  C_3
REMARK    3  A    between atoms: C_3  and  C_4
REMARK    4  A    between atoms: C_4  and  N_5
REMARK    5  A    between atoms: N_5  and  C_6
REMARK    6  A    between atoms: C_6  and  C_7
REMARK    7  A    between atoms: C_10  and  C_11
REMARK    8  A    between atoms: C_12  and  C_13
REMARK    9  A    between atoms: C_16  and  C_17
REMARK                            x       y       z     vdW  Elec       q    Type
REMARK                         _______ _______ _______ _____ _____    ______ ____
ROOT
ATOM      1  C   UNL     1      38.634  -0.863  17.471  0.00  0.00    +0.000 A 
ATOM      2  C   UNL     1      39.279  -0.869  16.236  0.00  0.00    +0.000 A 
ATOM      3  C   UNL     1      40.384  -1.695  16.056  0.00  0.00    +0.000 A 
ATOM      4  C   UNL     1      40.845  -2.483  17.111  0.00  0.00    +0.000 A 
ATOM      5  C   UNL     1      40.121  -2.429  18.299  0.00  0.00    +0.000 A 
ATOM      6  N   UNL     1      39.037  -1.643  18.505  0.00  0.00    +0.000 NA
ENDROOT
BRANCH   4   7
ATOM      7  C   UNL     1      41.989  -3.396  16.982  0.00  0.00    +0.000 C 
ATOM      8  C   UNL     1      42.445  -4.155  17.990  0.00  0.00    +0.000 C 
BRANCH   8   9
ATOM      9  C   UNL     1      43.621  -5.035  17.913  0.00  0.00    +0.000 A 
ATOM     10  C   UNL     1      43.628  -6.213  17.155  0.00  0.00    +0.000 A 
ATOM     11  C   UNL     1      44.791  -6.976  17.034  0.00  0.00    +0.000 A 
ATOM     12  C   UNL     1      45.979  -6.568  17.655  0.00  0.00    +0.000 A 
ATOM     13  C   UNL     1      45.973  -5.390  18.414  0.00  0.00    +0.000 A 
ATOM     14  C   UNL     1      44.806  -4.630  18.538  0.00  0.00    +0.000 A 
BRANCH  12  15
ATOM     15  C   UNL     1      47.252  -7.360  17.498  0.00  0.00    +0.000 C 
ATOM     16  F   UNL     1      47.213  -8.582  18.099  0.00  0.00    +0.000 F 
ATOM     17  F   UNL     1      47.558  -7.598  16.193  0.00  0.00    +0.000 F 
ATOM     18  F   UNL     1      48.334  -6.721  18.024  0.00  0.00    +0.000 F 
ENDBRANCH  12  15
ENDBRANCH   8   9
ENDBRANCH   4   7
BRANCH   1  19
ATOM     19  C   UNL     1      37.399  -0.008  17.676  0.00  0.00    +0.000 C 
BRANCH  19  20
ATOM     20  N   UNL     1      37.666   1.442  17.688  0.00  0.00    +0.000 NA
ATOM     21  H   UNL     1      37.411   1.805  18.606  0.00  0.00    +0.000 HD
BRANCH  20  22
ATOM     22  C   UNL     1      36.873   2.135  16.668  0.00  0.00    +0.000 C 
BRANCH  22  23
ATOM     23  C   UNL     1      37.157   3.636  16.722  0.00  0.00    +0.000 C 
BRANCH  23  24
ATOM     24  C   UNL     1      38.296   3.923  17.697  0.00  0.00    +0.000 C 
BRANCH  24  25
ATOM     25  N   UNL     1      39.585   3.790  17.031  0.00  0.00    +0.000 NA
ATOM     26  H   UNL     1      40.332   3.883  17.719  0.00  0.00    +0.000 HD
ATOM     27  H   UNL     1      39.709   4.557  16.371  0.00  0.00    +0.000 HD
ENDBRANCH  24  25
ENDBRANCH  23  24
ENDBRANCH  22  23
ENDBRANCH  20  22
ENDBRANCH  19  20
ENDBRANCH   1  19
TORSDOF 9
ENDMDL
MODEL 7
REMARK VINA RESULT:    -4.686      6.197     10.194
REMARK INTER + INTRA:          -7.514
REMARK INTER:                  -6.744
REMARK INTRA:                  -0.771
REMARK UNBOUND:                -0.500
REMARK  Name = 
REMARK  9 active torsions:
REMARK  status: ('A' for Active; 'I' for Inactive)
REMARK    1  A    between atoms: N_1  and  C_2
REMARK    2  A    between atoms: C_2  and  C_3
REMARK    3  A    between atoms: C_3  and  C_4
REMARK    4  A    between atoms: C_4  and  N_5
REMARK    5  A    between atoms: N_5  and  C_6
REMARK    6  A    between atoms: C_6  and  C_7
REMARK    7  A    between atoms: C_10  and  C_11
REMARK    8  A    between atoms: C_12  and  C_13
REMARK    9  A    between atoms: C_16  and  C_17
REMARK                            x       y       z     vdW  Elec       q    Type
REMARK                         _______ _______ _______ _____ _____    ______ ____
ROOT
ATOM      1  C   UNL     1      48.952   4.993  19.152  0.00  0.00    +0.000 A 
ATOM      2  C   UNL     1      49.152   3.727  18.608  0.00  0.00    +0.000 A 
ATOM      3  C   UNL     1      48.550   3.410  17.394  0.00  0.00    +0.000 A 
ATOM      4  C   UNL     1      47.740   4.348  16.752  0.00  0.00    +0.000 A 
ATOM      5  C   UNL     1      47.619   5.595  17.360  0.00  0.00    +0.000 A 
ATOM      6  N   UNL     1      48.199   5.938  18.536  0.00  0.00    +0.000 NA
ENDROOT
BRANCH   4   7
ATOM      7  C   UNL     1      47.096   4.089  15.458  0.00  0.00    +0.000 C 
ATOM      8  C   UNL     1      47.026   4.998  14.473  0.00  0.00    +0.000 C 
BRANCH   8   9
ATOM      9  C   UNL     1      46.339   4.793  13.189  0.00  0.00    +0.000 A 
ATOM     10  C   UNL     1      46.270   5.790  12.208  0.00  0.00    +0.000 A 
ATOM     11  C   UNL     1      45.689   5.529  10.966  0.00  0.00    +0.000 A 
ATOM     12  C   UNL     1      45.177   4.259  10.670  0.00  0.00    +0.000 A 
ATOM     13  C   UNL     1      45.245   3.260  11.652  0.00  0.00    +0.000 A 
ATOM     14  C   UNL     1      45.824   3.525  12.897  0.00  0.00    +0.000 A 
BRANCH  12  15
ATOM     15  C   UNL     1      44.584   3.952   9.319  0.00  0.00    +0.000 C 
ATOM     16  F   UNL     1      43.560   4.780   8.971  0.00  0.00    +0.000 F 
ATOM     17  F   UNL     1      45.499   4.052   8.315  0.00  0.00    +0.000 F 
ATOM     18  F   UNL     1      44.083   2.687   9.243  0.00  0.00    +0.000 F 
ENDBRANCH  12  15
ENDBRANCH   8   9
ENDBRANCH   4   7
BRANCH   1  19
ATOM     19  C   UNL     1      49.637   5.378  20.449  0.00  0.00    +0.000 C 
BRANCH  19  20
ATOM     20  N   UNL     1      49.299   6.730  20.929  0.00  0.00    +0.000 NA
ATOM     21  H   UNL     1      48.719   7.183  20.224  0.00  0.00    +0.000 HD
BRANCH  20  22
ATOM     22  C   UNL     1      50.507   7.536  21.138  0.00  0.00    +0.000 C 
BRANCH  22  23
ATOM     23  C   UNL     1      51.454   7.365  19.952  0.00  0.00    +0.000 C 
BRANCH  23  24
ATOM     24  C   UNL     1      51.095   8.351  18.842  0.00  0.00    +0.000 C 
BRANCH  24  25
ATOM     25  N   UNL     1      51.173   9.722  19.332  0.00  0.00    +0.000 NA
ATOM     26  H   UNL     1      52.152   9.995  19.416  0.00  0.00    +0.000 HD
ATOM     27  H   UNL     1      50.782   9.771  20.271  0.00  0.00    +0.000 HD
ENDBRANCH  24  25
ENDBRANCH  23  24
ENDBRANCH  22  23
ENDBRANCH  20  22
ENDBRANCH  19  20
ENDBRANCH   1  19
TORSDOF 9
ENDMDL
MODEL 8
REMARK VINA RESULT:    -4.657      4.666      6.104
REMARK INTER + INTRA:          -7.470
REMARK INTER:                  -6.600
REMARK INTRA:                  -0.869
REMARK UNBOUND:                -0.500
REMARK  Name = 
REMARK  9 active torsions:
REMARK  status: ('A' for Active; 'I' for Inactive)
REMARK    1  A    between atoms: N_1  and  C_2
REMARK    2  A    between atoms: C_2  and  C_3
REMARK    3  A    between atoms: C_3  and  C_4
REMARK    4  A    between atoms: C_4  and  N_5
REMARK    5  A    between atoms: N_5  and  C_6
REMARK    6  A    between atoms: C_6  and  C_7
REMARK    7  A    between atoms: C_10  and  C_11
REMARK    8  A    between atoms: C_12  and  C_13
REMARK    9  A    between atoms: C_16  and  C_17
REMARK                            x       y       z     vdW  Elec       q    Type
REMARK                         _______ _______ _______ _____ _____    ______ ____
ROOT
ATOM      1  C   UNL     1      45.541   9.144  12.064  0.00  0.00    +0.000 A 
ATOM      2  C   UNL     1      45.194   7.806  12.232  0.00  0.00    +0.000 A 
ATOM      3  C   UNL     1      46.044   6.973  12.953  0.00  0.00    +0.000 A 
ATOM      4  C   UNL     1      47.237   7.477  13.474  0.00  0.00    +0.000 A 
ATOM      5  C   UNL     1      47.487   8.832  13.275  0.00  0.00    +0.000 A 
ATOM      6  N   UNL     1      46.676   9.671  12.586  0.00  0.00    +0.000 NA
ENDROOT
BRANCH   4   7
ATOM      7  C   UNL     1      48.167   6.660  14.265  0.00  0.00    +0.000 C 
ATOM      8  C   UNL     1      48.657   7.043  15.454  0.00  0.00    +0.000 C 
BRANCH   8   9
ATOM      9  C   UNL     1      49.633   6.279  16.246  0.00  0.00    +0.000 A 
ATOM     10  C   UNL     1      49.284   5.121  16.953  0.00  0.00    +0.000 A 
ATOM     11  C   UNL     1      50.255   4.372  17.619  0.00  0.00    +0.000 A 
ATOM     12  C   UNL     1      51.602   4.755  17.580  0.00  0.00    +0.000 A 
ATOM     13  C   UNL     1      51.953   5.914  16.873  0.00  0.00    +0.000 A 
ATOM     14  C   UNL     1      50.978   6.665  16.211  0.00  0.00    +0.000 A 
BRANCH  12  15
ATOM     15  C   UNL     1      52.667   3.933  18.261  0.00  0.00    +0.000 C 
ATOM     16  F   UNL     1      52.791   4.194  19.592  0.00  0.00    +0.000 F 
ATOM     17  F   UNL     1      52.429   2.595  18.166  0.00  0.00    +0.000 F 
ATOM     18  F   UNL     1      53.903   4.131  17.724  0.00  0.00    +0.000 F 
ENDBRANCH  12  15
ENDBRANCH   8   9
ENDBRANCH   4   7
BRANCH   1  19
ATOM     19  C   UNL     1      44.607  10.082  11.324  0.00  0.00    +0.000 C 
BRANCH  19  20
ATOM     20  N   UNL     1      43.651   9.400  10.433  0.00  0.00    +0.000 NA
ATOM     21  H   UNL     1      44.166   9.040   9.630  0.00  0.00    +0.000 HD
BRANCH  20  22
ATOM     22  C   UNL     1      42.618  10.326   9.956  0.00  0.00    +0.000 C 
BRANCH  22  23
ATOM     23  C   UNL     1      42.125  11.192  11.114  0.00  0.00    +0.000 C 
BRANCH  23  24
ATOM     24  C   UNL     1      40.706  10.789  11.509  0.00  0.00    +0.000 C 
BRANCH  24  25
ATOM     25  N   UNL     1      40.547   9.343  11.436  0.00  0.00    +0.000 NA
ATOM     26  H   UNL     1      40.998   8.996  10.590  0.00  0.00    +0.000 HD
ATOM     27  H   UNL     1      39.558   9.113  11.346  0.00  0.00    +0.000 HD
ENDBRANCH  24  25
ENDBRANCH  23  24
ENDBRANCH  22  23
ENDBRANCH  20  22
ENDBRANCH  19  20
ENDBRANCH   1  19
TORSDOF 9
ENDMDL
MODEL 9
REMARK VINA RESULT:    -4.635      5.940      9.557
REMARK INTER + INTRA:          -7.438
REMARK INTER:                  -6.402
REMARK INTRA:                  -1.036
REMARK UNBOUND:                -0.500
REMARK  Name = 
REMARK  9 active torsions:
REMARK  status: ('A' for Active; 'I' for Inactive)
REMARK    1  A    between atoms: N_1  and  C_2
REMARK    2  A    between atoms: C_2  and  C_3
REMARK    3  A    between atoms: C_3  and  C_4
REMARK    4  A    between atoms: C_4  and  N_5
REMARK    5  A    between atoms: N_5  and  C_6
REMARK    6  A    between atoms: C_6  and  C_7
REMARK    7  A    between atoms: C_10  and  C_11
REMARK    8  A    between atoms: C_12  and  C_13
REMARK    9  A    between atoms: C_16  and  C_17
REMARK                            x       y       z     vdW  Elec       q    Type
REMARK                         _______ _______ _______ _____ _____    ______ ____
ROOT
ATOM      1  C   UNL     1      50.507   6.230  18.896  0.00  0.00    +0.000 A 
ATOM      2  C   UNL     1      50.402   4.848  18.762  0.00  0.00    +0.000 A 
ATOM      3  C   UNL     1      49.514   4.325  17.827  0.00  0.00    +0.000 A 
ATOM      4  C   UNL     1      48.727   5.183  17.058  0.00  0.00    +0.000 A 
ATOM      5  C   UNL     1      48.919   6.549  17.245  0.00  0.00    +0.000 A 
ATOM      6  N   UNL     1      49.780   7.090  18.140  0.00  0.00    +0.000 NA
ENDROOT
BRANCH   4   7
ATOM      7  C   UNL     1      47.789   4.700  16.036  0.00  0.00    +0.000 C 
ATOM      8  C   UNL     1      47.557   5.345  14.883  0.00  0.00    +0.000 C 
BRANCH   8   9
ATOM      9  C   UNL     1      46.584   4.922  13.865  0.00  0.00    +0.000 A 
ATOM     10  C   UNL     1      45.823   5.837  13.126  0.00  0.00    +0.000 A 
ATOM     11  C   UNL     1      44.976   5.402  12.106  0.00  0.00    +0.000 A 
ATOM     12  C   UNL     1      44.882   4.040  11.789  0.00  0.00    +0.000 A 
ATOM     13  C   UNL     1      45.642   3.122  12.528  0.00  0.00    +0.000 A 
ATOM     14  C   UNL     1      46.487   3.560  13.552  0.00  0.00    +0.000 A 
BRANCH  12  15
ATOM     15  C   UNL     1      44.003   3.560  10.663  0.00  0.00    +0.000 C 
ATOM     16  F   UNL     1      44.615   2.673   9.831  0.00  0.00    +0.000 F 
ATOM     17  F   UNL     1      42.880   2.933  11.113  0.00  0.00    +0.000 F 
ATOM     18  F   UNL     1      43.568   4.578   9.869  0.00  0.00    +0.000 F 
ENDBRANCH  12  15
ENDBRANCH   8   9
ENDBRANCH   4   7
BRANCH   1  19
ATOM     19  C   UNL     1      51.502   6.824  19.874  0.00  0.00    +0.000 C 
BRANCH  19  20
ATOM     20  N   UNL     1      52.912   6.601  19.506  0.00  0.00    +0.000 NA
ATOM     21  H   UNL     1      53.489   6.800  20.322  0.00  0.00    +0.000 HD
BRANCH  20  22
ATOM     22  C   UNL     1      53.321   7.487  18.411  0.00  0.00    +0.000 C 
BRANCH  22  23
ATOM     23  C   UNL     1      53.649   6.659  17.169  0.00  0.00    +0.000 C 
BRANCH  23  24
ATOM     24  C   UNL     1      53.184   7.388  15.910  0.00  0.00    +0.000 C 
BRANCH  24  25
ATOM     25  N   UNL     1      51.824   6.994  15.565  0.00  0.00    +0.000 NA
ATOM     26  H   UNL     1      51.571   7.407  14.667  0.00  0.00    +0.000 HD
ATOM     27  H   UNL     1      51.173   7.379  16.248  0.00  0.00    +0.000 HD
ENDBRANCH  24  25
ENDBRANCH  23  24
ENDBRANCH  22  23
ENDBRANCH  20  22
ENDBRANCH  19  20
ENDBRANCH   1  19
TORSDOF 9
ENDMDL
