MODEL 1
REMARK VINA RESULT:    -8.120      0.000      0.000
REMARK INTER + INTRA:         -11.704
REMARK INTER:                 -10.968
REMARK INTRA:                  -0.736
REMARK UNBOUND:                -0.736
REMARK  Name = 
REMARK  7 active torsions:
REMARK  status: ('A' for Active; 'I' for Inactive)
REMARK    1  A    between atoms: C_1  and  S_2
REMARK    2  A    between atoms: S_2  and  C_5
REMARK    3  A    between atoms: C_8  and  C_9
REMARK    4  A    between atoms: C_13  and  C_14
REMARK    5  A    between atoms: C_14  and  O_15
REMARK    6  A    between atoms: O_15  and  C_16
REMARK    7  A    between atoms: C_19  and  C_20
REMARK                            x       y       z     vdW  Elec       q    Type
REMARK                         _______ _______ _______ _____ _____    ______ ____
ROOT
ATOM      1  C   UNL     1      46.329   5.738  13.623  0.00  0.00    +0.000 A 
ATOM      2  C   UNL     1      46.240   6.977  12.978  0.00  0.00    +0.000 A 
ATOM      3  C   UNL     1      45.359   7.131  11.917  0.00  0.00    +0.000 A 
ATOM      4  N   UNL     1      44.560   6.150  11.455  0.00  0.00    +0.000 NA
ATOM      5  C   UNL     1      44.629   4.954  12.081  0.00  0.00    +0.000 A 
ATOM      6  C   UNL     1      45.487   4.719  13.154  0.00  0.00    +0.000 A 
ENDROOT
BRANCH   1  10
ATOM      7  C   UNL     1      49.032   5.067  16.903  0.00  0.00    +0.000 A 
ATOM      8  C   UNL     1      49.173   6.205  16.112  0.00  0.00    +0.000 A 
ATOM      9  C   UNL     1      48.309   6.402  15.032  0.00  0.00    +0.000 A 
ATOM     10  C   UNL     1      47.289   5.480  14.722  0.00  0.00    +0.000 A 
ATOM     11  C   UNL     1      47.197   4.325  15.523  0.00  0.00    +0.000 A 
ATOM     12  C   UNL     1      48.061   4.114  16.602  0.00  0.00    +0.000 A 
BRANCH   7  14
ATOM     13  C   UNL     1      51.152   3.448  17.718  0.00  0.00    +0.000 C 
ATOM     14  S   UNL     1      50.141   4.799  18.263  0.00  0.00    +0.000 S 
ATOM     15  O   UNL     1      49.346   4.342  19.386  0.00  0.00    +0.000 OA
ATOM     16  O   UNL     1      50.983   5.975  18.376  0.00  0.00    +0.000 OA
ENDBRANCH   7  14
ENDBRANCH   1  10
BRANCH   5  17
ATOM     17  C   UNL     1      43.774   3.829  11.550  0.00  0.00    +0.000 C 
BRANCH  17  18
ATOM     18  O   UNL     1      43.527   3.998  10.151  0.00  0.00    +0.000 OA
BRANCH  18  19
ATOM     19  C   UNL     1      44.483   3.484   9.321  0.00  0.00    +0.000 A 
ATOM     20  C   UNL     1      44.906   2.152   9.297  0.00  0.00    +0.000 A 
ATOM     21  C   UNL     1      45.888   1.757   8.393  0.00  0.00    +0.000 A 
ATOM     22  C   UNL     1      46.423   2.704   7.536  0.00  0.00    +0.000 A 
ATOM     23  N   UNL     1      46.039   4.012   7.524  0.00  0.00    +0.000 NA
ATOM     24  C   UNL     1      45.081   4.360   8.419  0.00  0.00    +0.000 A 
BRANCH  22  25
ATOM     25  C   UNL     1      47.483   2.290   6.567  0.00  0.00    +0.000 C 
ATOM     26  N   UNL     1      47.527   2.995   5.395  0.00  0.00    +0.000 N 
ATOM     27  O   UNL     1      48.272   1.381   6.799  0.00  0.00    +0.000 OA
ATOM     28  H   UNL     1      46.871   3.753   5.244  0.00  0.00    +0.000 HD
ATOM     29  H   UNL     1      48.233   2.776   4.709  0.00  0.00    +0.000 HD
ENDBRANCH  22  25
ENDBRANCH  18  19
ENDBRANCH  17  18
ENDBRANCH   5  17
TORSDOF 6
ENDMDL
MODEL 2
REMARK VINA RESULT:    -7.946      2.723      3.154
REMARK INTER + INTRA:         -11.470
REMARK INTER:                 -10.662
REMARK INTRA:                  -0.808
REMARK UNBOUND:                -0.736
REMARK  Name = 
REMARK  7 active torsions:
REMARK  status: ('A' for Active; 'I' for Inactive)
REMARK    1  A    between atoms: C_1  and  S_2
REMARK    2  A    between atoms: S_2  and  C_5
REMARK    3  A    between atoms: C_8  and  C_9
REMARK    4  A    between atoms: C_13  and  C_14
REMARK    5  A    between atoms: C_14  and  O_15
REMARK    6  A    between atoms: O_15  and  C_16
REMARK    7  A    between atoms: C_19  and  C_20
REMARK                            x       y       z     vdW  Elec       q    Type
REMARK                         _______ _______ _______ _____ _____    ______ ____
ROOT
ATOM      1  C   UNL     1      46.033   6.543  12.225  0.00  0.00    +0.000 A 
ATOM      2  C   UNL     1      45.035   7.450  11.847  0.00  0.00    +0.000 A 
ATOM      3  C   UNL     1      43.813   6.970  11.397  0.00  0.00    +0.000 A 
ATOM      4  N   UNL     1      43.510   5.661  11.299  0.00  0.00    +0.000 NA
ATOM      5  C   UNL     1      44.463   4.778  11.676  0.00  0.00    +0.000 A 
ATOM      6  C   UNL     1      45.713   5.180  12.139  0.00  0.00    +0.000 A 
ENDROOT
BRANCH   1  10
ATOM      7  C   UNL     1      49.893   7.939  13.515  0.00  0.00    +0.000 A 
ATOM      8  C   UNL     1      49.477   8.168  12.206  0.00  0.00    +0.000 A 
ATOM      9  C   UNL     1      48.234   7.687  11.786  0.00  0.00    +0.000 A 
ATOM     10  C   UNL     1      47.381   6.979  12.657  0.00  0.00    +0.000 A 
ATOM     11  C   UNL     1      47.848   6.737  13.964  0.00  0.00    +0.000 A 
ATOM     12  C   UNL     1      49.095   7.207  14.393  0.00  0.00    +0.000 A 
BRANCH   7  14
ATOM     13  C   UNL     1      51.912   7.427  15.370  0.00  0.00    +0.000 C 
ATOM     14  S   UNL     1      51.481   8.527  14.048  0.00  0.00    +0.000 S 
ATOM     15  O   UNL     1      51.287   9.850  14.608  0.00  0.00    +0.000 OA
ATOM     16  O   UNL     1      52.413   8.309  12.959  0.00  0.00    +0.000 OA
ENDBRANCH   7  14
ENDBRANCH   1  10
BRANCH   5  17
ATOM     17  C   UNL     1      44.158   3.307  11.532  0.00  0.00    +0.000 C 
BRANCH  17  18
ATOM     18  O   UNL     1      43.653   3.020  10.224  0.00  0.00    +0.000 OA
BRANCH  18  19
ATOM     19  C   UNL     1      44.595   2.929   9.239  0.00  0.00    +0.000 A 
ATOM     20  C   UNL     1      44.979   3.965   8.385  0.00  0.00    +0.000 A 
ATOM     21  C   UNL     1      45.961   3.739   7.424  0.00  0.00    +0.000 A 
ATOM     22  C   UNL     1      46.534   2.481   7.343  0.00  0.00    +0.000 A 
ATOM     23  N   UNL     1      46.191   1.442   8.156  0.00  0.00    +0.000 NA
ATOM     24  C   UNL     1      45.231   1.700   9.078  0.00  0.00    +0.000 A 
BRANCH  22  25
ATOM     25  C   UNL     1      47.584   2.227   6.310  0.00  0.00    +0.000 C 
ATOM     26  N   UNL     1      47.619   3.111   5.267  0.00  0.00    +0.000 N 
ATOM     27  O   UNL     1      48.373   1.291   6.386  0.00  0.00    +0.000 OA
ATOM     28  H   UNL     1      46.964   3.884   5.245  0.00  0.00    +0.000 HD
ATOM     29  H   UNL     1      48.319   3.004   4.548  0.00  0.00    +0.000 HD
ENDBRANCH  22  25
ENDBRANCH  18  19
ENDBRANCH  17  18
ENDBRANCH   5  17
TORSDOF 6
ENDMDL
MODEL 3
REMARK VINA RESULT:    -7.897      3.176      3.981
REMARK INTER + INTRA:         -11.404
REMARK INTER:                 -10.591
REMARK INTRA:                  -0.812
REMARK UNBOUND:                -0.736
REMARK  Name = 
REMARK  7 active torsions:
REMARK  status: ('A' for Active; 'I' for Inactive)
REMARK    1  A    between atoms: C_1  and  S_2
REMARK    2  A    between atoms: S_2  and  C_5
REMARK    3  A    between atoms: C_8  and  C_9
REMARK    4  A    between atoms: C_13  and  C_14
REMARK    5  A    between atoms: C_14  and  O_15
REMARK    6  A    between atoms: O_15  and  C_16
REMARK    7  A    between atoms: C_19  and  C_20
REMARK                            x       y       z     vdW  Elec       q    Type
REMARK                         _______ _______ _______ _____ _____    ______ ____
ROOT
ATOM      1  C   UNL     1      47.108   5.934  12.715  0.00  0.00    +0.000 A 
ATOM      2  C   UNL     1      47.005   4.932  13.688  0.00  0.00    +0.000 A 
ATOM      3  C   UNL     1      45.917   4.072  13.666  0.00  0.00    +0.000 A 
ATOM      4  N   UNL     1      44.930   4.129  12.751  0.00  0.00    +0.000 NA
ATOM      5  C   UNL     1      45.029   5.085  11.799  0.00  0.00    +0.000 A 
ATOM      6  C   UNL     1      46.090   5.986  11.752  0.00  0.00    +0.000 A 
ENDROOT
BRANCH   1  10
ATOM      7  C   UNL     1      50.389   8.717  12.646  0.00  0.00    +0.000 A 
ATOM      8  C   UNL     1      50.198   7.901  13.759  0.00  0.00    +0.000 A 
ATOM      9  C   UNL     1      49.114   7.020  13.785  0.00  0.00    +0.000 A 
ATOM     10  C   UNL     1      48.207   6.928  12.710  0.00  0.00    +0.000 A 
ATOM     11  C   UNL     1      48.412   7.792  11.616  0.00  0.00    +0.000 A 
ATOM     12  C   UNL     1      49.489   8.683  11.582  0.00  0.00    +0.000 A 
BRANCH   7  14
ATOM     13  C   UNL     1      53.110   8.868  12.052  0.00  0.00    +0.000 C 
ATOM     14  S   UNL     1      51.750   9.856  12.616  0.00  0.00    +0.000 S 
ATOM     15  O   UNL     1      52.016  10.248  13.986  0.00  0.00    +0.000 OA
ATOM     16  O   UNL     1      51.464  10.850  11.599  0.00  0.00    +0.000 OA
ENDBRANCH   7  14
ENDBRANCH   1  10
BRANCH   5  17
ATOM     17  C   UNL     1      43.912   5.194  10.790  0.00  0.00    +0.000 C 
BRANCH  17  18
ATOM     18  O   UNL     1      43.613   3.914  10.224  0.00  0.00    +0.000 OA
BRANCH  18  19
ATOM     19  C   UNL     1      44.546   3.426   9.355  0.00  0.00    +0.000 A 
ATOM     20  C   UNL     1      45.046   2.121   9.349  0.00  0.00    +0.000 A 
ATOM     21  C   UNL     1      45.994   1.750   8.400  0.00  0.00    +0.000 A 
ATOM     22  C   UNL     1      46.418   2.694   7.479  0.00  0.00    +0.000 A 
ATOM     23  N   UNL     1      45.956   3.975   7.446  0.00  0.00    +0.000 NA
ATOM     24  C   UNL     1      45.034   4.300   8.387  0.00  0.00    +0.000 A 
BRANCH  22  25
ATOM     25  C   UNL     1      47.440   2.306   6.460  0.00  0.00    +0.000 C 
ATOM     26  N   UNL     1      47.424   3.026   5.297  0.00  0.00    +0.000 N 
ATOM     27  O   UNL     1      48.250   1.404   6.646  0.00  0.00    +0.000 OA
ATOM     28  H   UNL     1      46.753   3.777   5.183  0.00  0.00    +0.000 HD
ATOM     29  H   UNL     1      48.104   2.824   4.578  0.00  0.00    +0.000 HD
ENDBRANCH  22  25
ENDBRANCH  18  19
ENDBRANCH  17  18
ENDBRANCH   5  17
TORSDOF 6
ENDMDL
MODEL 4
REMARK VINA RESULT:    -6.960      4.525      8.805
REMARK INTER + INTRA:         -10.137
REMARK INTER:                  -9.350
REMARK INTRA:                  -0.787
REMARK UNBOUND:                -0.736
REMARK  Name = 
REMARK  7 active torsions:
REMARK  status: ('A' for Active; 'I' for Inactive)
REMARK    1  A    between atoms: C_1  and  S_2
REMARK    2  A    between atoms: S_2  and  C_5
REMARK    3  A    between atoms: C_8  and  C_9
REMARK    4  A    between atoms: C_13  and  C_14
REMARK    5  A    between atoms: C_14  and  O_15
REMARK    6  A    between atoms: O_15  and  C_16
REMARK    7  A    between atoms: C_19  and  C_20
REMARK                            x       y       z     vdW  Elec       q    Type
REMARK                         _______ _______ _______ _____ _____    ______ ____
ROOT
ATOM      1  C   UNL     1      48.465   6.716  13.832  0.00  0.00    +0.000 A 
ATOM      2  C   UNL     1      49.424   7.483  13.158  0.00  0.00    +0.000 A 
ATOM      3  C   UNL     1      50.476   8.038  13.873  0.00  0.00    +0.000 A 
ATOM      4  N   UNL     1      50.648   7.884  15.200  0.00  0.00    +0.000 NA
ATOM      5  C   UNL     1      49.734   7.133  15.856  0.00  0.00    +0.000 A 
ATOM      6  C   UNL     1      48.650   6.542  15.211  0.00  0.00    +0.000 A 
ENDROOT
BRANCH   1  10
ATOM      7  C   UNL     1      44.943   5.150  11.920  0.00  0.00    +0.000 A 
ATOM      8  C   UNL     1      45.341   4.645  13.155  0.00  0.00    +0.000 A 
ATOM      9  C   UNL     1      46.502   5.139  13.756  0.00  0.00    +0.000 A 
ATOM     10  C   UNL     1      47.281   6.144  13.148  0.00  0.00    +0.000 A 
ATOM     11  C   UNL     1      46.866   6.608  11.885  0.00  0.00    +0.000 A 
ATOM     12  C   UNL     1      45.710   6.115  11.270  0.00  0.00    +0.000 A 
BRANCH   7  14
ATOM     13  C   UNL     1      43.349   2.865  11.786  0.00  0.00    +0.000 C 
ATOM     14  S   UNL     1      43.482   4.510  11.139  0.00  0.00    +0.000 S 
ATOM     15  O   UNL     1      43.759   4.414   9.718  0.00  0.00    +0.000 OA
ATOM     16  O   UNL     1      42.355   5.279  11.627  0.00  0.00    +0.000 OA
ENDBRANCH   7  14
ENDBRANCH   1  10
BRANCH   5  17
ATOM     17  C   UNL     1      49.884   6.985  17.350  0.00  0.00    +0.000 C 
BRANCH  17  18
ATOM     18  O   UNL     1      49.278   5.770  17.802  0.00  0.00    +0.000 OA
BRANCH  18  19
ATOM     19  C   UNL     1      50.091   4.672  17.794  0.00  0.00    +0.000 A 
ATOM     20  C   UNL     1      51.429   4.649  18.195  0.00  0.00    +0.000 A 
ATOM     21  C   UNL     1      52.145   3.457  18.142  0.00  0.00    +0.000 A 
ATOM     22  C   UNL     1      51.504   2.316  17.689  0.00  0.00    +0.000 A 
ATOM     23  N   UNL     1      50.201   2.291  17.290  0.00  0.00    +0.000 NA
ATOM     24  C   UNL     1      49.536   3.472  17.354  0.00  0.00    +0.000 A 
BRANCH  22  25
ATOM     25  C   UNL     1      52.267   1.032  17.623  0.00  0.00    +0.000 C 
ATOM     26  N   UNL     1      51.672  -0.045  18.220  0.00  0.00    +0.000 N 
ATOM     27  O   UNL     1      53.355   0.938  17.067  0.00  0.00    +0.000 OA
ATOM     28  H   UNL     1      50.762   0.063  18.655  0.00  0.00    +0.000 HD
ATOM     29  H   UNL     1      52.128  -0.945  18.191  0.00  0.00    +0.000 HD
ENDBRANCH  22  25
ENDBRANCH  18  19
ENDBRANCH  17  18
ENDBRANCH   5  17
TORSDOF 6
ENDMDL
MODEL 5
REMARK VINA RESULT:    -6.607      1.496      1.985
REMARK INTER + INTRA:          -9.661
REMARK INTER:                  -9.010
REMARK INTRA:                  -0.651
REMARK UNBOUND:                -0.736
REMARK  Name = 
REMARK  7 active torsions:
REMARK  status: ('A' for Active; 'I' for Inactive)
REMARK    1  A    between atoms: C_1  and  S_2
REMARK    2  A    between atoms: S_2  and  C_5
REMARK    3  A    between atoms: C_8  and  C_9
REMARK    4  A    between atoms: C_13  and  C_14
REMARK    5  A    between atoms: C_14  and  O_15
REMARK    6  A    between atoms: O_15  and  C_16
REMARK    7  A    between atoms: C_19  and  C_20
REMARK                            x       y       z     vdW  Elec       q    Type
REMARK                         _______ _______ _______ _____ _____    ______ ____
ROOT
ATOM      1  C   UNL     1      46.662   6.002  13.320  0.00  0.00    +0.000 A 
ATOM      2  C   UNL     1      47.330   6.923  12.503  0.00  0.00    +0.000 A 
ATOM      3  C   UNL     1      46.709   7.391  11.355  0.00  0.00    +0.000 A 
ATOM      4  N   UNL     1      45.475   7.017  10.961  0.00  0.00    +0.000 NA
ATOM      5  C   UNL     1      44.817   6.139  11.752  0.00  0.00    +0.000 A 
ATOM      6  C   UNL     1      45.372   5.624  12.921  0.00  0.00    +0.000 A 
ENDROOT
BRANCH   1  10
ATOM      7  C   UNL     1      48.577   4.232  16.742  0.00  0.00    +0.000 A 
ATOM      8  C   UNL     1      47.673   3.484  15.992  0.00  0.00    +0.000 A 
ATOM      9  C   UNL     1      47.034   4.074  14.899  0.00  0.00    +0.000 A 
ATOM     10  C   UNL     1      47.284   5.411  14.528  0.00  0.00    +0.000 A 
ATOM     11  C   UNL     1      48.179   6.148  15.328  0.00  0.00    +0.000 A 
ATOM     12  C   UNL     1      48.819   5.569  16.430  0.00  0.00    +0.000 A 
BRANCH   7  14
ATOM     13  C   UNL     1      50.503   4.750  18.693  0.00  0.00    +0.000 C 
ATOM     14  S   UNL     1      49.375   3.496  18.147  0.00  0.00    +0.000 S 
ATOM     15  O   UNL     1      50.152   2.371  17.663  0.00  0.00    +0.000 OA
ATOM     16  O   UNL     1      48.368   3.317  19.175  0.00  0.00    +0.000 OA
ENDBRANCH   7  14
ENDBRANCH   1  10
BRANCH   5  17
ATOM     17  C   UNL     1      43.452   5.675  11.306  0.00  0.00    +0.000 C 
BRANCH  17  18
ATOM     18  O   UNL     1      43.433   4.254  11.133  0.00  0.00    +0.000 OA
BRANCH  18  19
ATOM     19  C   UNL     1      44.197   3.778  10.106  0.00  0.00    +0.000 A 
ATOM     20  C   UNL     1      44.442   4.442   8.901  0.00  0.00    +0.000 A 
ATOM     21  C   UNL     1      45.249   3.845   7.936  0.00  0.00    +0.000 A 
ATOM     22  C   UNL     1      45.790   2.598   8.201  0.00  0.00    +0.000 A 
ATOM     23  N   UNL     1      45.580   1.916   9.362  0.00  0.00    +0.000 NA
ATOM     24  C   UNL     1      44.788   2.529  10.277  0.00  0.00    +0.000 A 
BRANCH  22  25
ATOM     25  C   UNL     1      46.653   1.947   7.168  0.00  0.00    +0.000 C 
ATOM     26  N   UNL     1      47.011   0.651   7.423  0.00  0.00    +0.000 N 
ATOM     27  O   UNL     1      47.017   2.526   6.151  0.00  0.00    +0.000 OA
ATOM     28  H   UNL     1      46.676   0.197   8.265  0.00  0.00    +0.000 HD
ATOM     29  H   UNL     1      47.575   0.151   6.753  0.00  0.00    +0.000 HD
ENDBRANCH  22  25
ENDBRANCH  18  19
ENDBRANCH  17  18
ENDBRANCH   5  17
TORSDOF 6
ENDMDL
MODEL 6
REMARK VINA RESULT:    -6.543      4.235      8.524
REMARK INTER + INTRA:          -9.574
REMARK INTER:                  -8.709
REMARK INTRA:                  -0.865
REMARK UNBOUND:                -0.736
REMARK  Name = 
REMARK  7 active torsions:
REMARK  status: ('A' for Active; 'I' for Inactive)
REMARK    1  A    between atoms: C_1  and  S_2
REMARK    2  A    between atoms: S_2  and  C_5
REMARK    3  A    between atoms: C_8  and  C_9
REMARK    4  A    between atoms: C_13  and  C_14
REMARK    5  A    between atoms: C_14  and  O_15
REMARK    6  A    between atoms: O_15  and  C_16
REMARK    7  A    between atoms: C_19  and  C_20
REMARK                            x       y       z     vdW  Elec       q    Type
REMARK                         _______ _______ _______ _____ _____    ______ ____
ROOT
ATOM      1  C   UNL     1      48.249   7.613  12.689  0.00  0.00    +0.000 A 
ATOM      2  C   UNL     1      48.232   8.891  12.115  0.00  0.00    +0.000 A 
ATOM      3  C   UNL     1      49.204   9.812  12.477  0.00  0.00    +0.000 A 
ATOM      4  N   UNL     1      50.190   9.559  13.359  0.00  0.00    +0.000 NA
ATOM      5  C   UNL     1      50.223   8.323  13.907  0.00  0.00    +0.000 A 
ATOM      6  C   UNL     1      49.284   7.342  13.596  0.00  0.00    +0.000 A 
ENDROOT
BRANCH   1  10
ATOM      7  C   UNL     1      45.135   4.745  11.922  0.00  0.00    +0.000 A 
ATOM      8  C   UNL     1      45.879   4.661  13.097  0.00  0.00    +0.000 A 
ATOM      9  C   UNL     1      46.907   5.578  13.326  0.00  0.00    +0.000 A 
ATOM     10  C   UNL     1      47.210   6.597  12.400  0.00  0.00    +0.000 A 
ATOM     11  C   UNL     1      46.459   6.633  11.209  0.00  0.00    +0.000 A 
ATOM     12  C   UNL     1      45.432   5.714  10.965  0.00  0.00    +0.000 A 
BRANCH   7  14
ATOM     13  C   UNL     1      44.409   2.690  10.181  0.00  0.00    +0.000 C 
ATOM     14  S   UNL     1      43.843   3.568  11.614  0.00  0.00    +0.000 S 
ATOM     15  O   UNL     1      42.656   4.315  11.244  0.00  0.00    +0.000 OA
ATOM     16  O   UNL     1      43.822   2.642  12.730  0.00  0.00    +0.000 OA
ENDBRANCH   7  14
ENDBRANCH   1  10
BRANCH   5  17
ATOM     17  C   UNL     1      51.293   8.033  14.931  0.00  0.00    +0.000 C 
BRANCH  17  18
ATOM     18  O   UNL     1      50.768   8.142  16.258  0.00  0.00    +0.000 OA
BRANCH  18  19
ATOM     19  C   UNL     1      50.129   7.031  16.728  0.00  0.00    +0.000 A 
ATOM     20  C   UNL     1      48.816   6.990  17.205  0.00  0.00    +0.000 A 
ATOM     21  C   UNL     1      48.282   5.785  17.652  0.00  0.00    +0.000 A 
ATOM     22  C   UNL     1      49.075   4.650  17.610  0.00  0.00    +0.000 A 
ATOM     23  N   UNL     1      50.359   4.643  17.152  0.00  0.00    +0.000 NA
ATOM     24  C   UNL     1      50.845   5.836  16.726  0.00  0.00    +0.000 A 
BRANCH  22  25
ATOM     25  C   UNL     1      48.512   3.352  18.094  0.00  0.00    +0.000 C 
ATOM     26  N   UNL     1      48.403   3.220  19.451  0.00  0.00    +0.000 N 
ATOM     27  O   UNL     1      48.162   2.459  17.331  0.00  0.00    +0.000 OA
ATOM     28  H   UNL     1      48.685   3.986  20.052  0.00  0.00    +0.000 HD
ATOM     29  H   UNL     1      48.011   2.374  19.838  0.00  0.00    +0.000 HD
ENDBRANCH  22  25
ENDBRANCH  18  19
ENDBRANCH  17  18
ENDBRANCH   5  17
TORSDOF 6
ENDMDL
MODEL 7
REMARK VINA RESULT:    -5.546      5.030      8.397
REMARK INTER + INTRA:          -8.227
REMARK INTER:                  -7.464
REMARK INTRA:                  -0.764
REMARK UNBOUND:                -0.736
REMARK  Name = 
REMARK  7 active torsions:
REMARK  status: ('A' for Active; 'I' for Inactive)
REMARK    1  A    between atoms: C_1  and  S_2
REMARK    2  A    between atoms: S_2  and  C_5
REMARK    3  A    between atoms: C_8  and  C_9
REMARK    4  A    between atoms: C_13  and  C_14
REMARK    5  A    between atoms: C_14  and  O_15
REMARK    6  A    between atoms: O_15  and  C_16
REMARK    7  A    between atoms: C_19  and  C_20
REMARK                            x       y       z     vdW  Elec       q    Type
REMARK                         _______ _______ _______ _____ _____    ______ ____
ROOT
ATOM      1  C   UNL     1      47.352   6.501  12.830  0.00  0.00    +0.000 A 
ATOM      2  C   UNL     1      46.193   6.154  12.124  0.00  0.00    +0.000 A 
ATOM      3  C   UNL     1      45.403   5.111  12.583  0.00  0.00    +0.000 A 
ATOM      4  N   UNL     1      45.674   4.392  13.689  0.00  0.00    +0.000 NA
ATOM      5  C   UNL     1      46.783   4.729  14.386  0.00  0.00    +0.000 A 
ATOM      6  C   UNL     1      47.628   5.764  13.992  0.00  0.00    +0.000 A 
ENDROOT
BRANCH   1  10
ATOM      7  C   UNL     1      50.013   9.541  11.352  0.00  0.00    +0.000 A 
ATOM      8  C   UNL     1      50.492   8.252  11.576  0.00  0.00    +0.000 A 
ATOM      9  C   UNL     1      49.629   7.278  12.083  0.00  0.00    +0.000 A 
ATOM     10  C   UNL     1      48.278   7.561  12.369  0.00  0.00    +0.000 A 
ATOM     11  C   UNL     1      47.836   8.882  12.161  0.00  0.00    +0.000 A 
ATOM     12  C   UNL     1      48.694   9.869  11.661  0.00  0.00    +0.000 A 
BRANCH   7  14
ATOM     13  C   UNL     1      52.411   9.861   9.963  0.00  0.00    +0.000 C 
ATOM     14  S   UNL     1      51.111  10.790  10.730  0.00  0.00    +0.000 S 
ATOM     15  O   UNL     1      51.669  11.483  11.876  0.00  0.00    +0.000 OA
ATOM     16  O   UNL     1      50.403  11.516   9.694  0.00  0.00    +0.000 OA
ENDBRANCH   7  14
ENDBRANCH   1  10
BRANCH   5  17
ATOM     17  C   UNL     1      47.128   3.907  15.604  0.00  0.00    +0.000 C 
BRANCH  17  18
ATOM     18  O   UNL     1      47.765   4.717  16.597  0.00  0.00    +0.000 OA
BRANCH  18  19
ATOM     19  C   UNL     1      49.008   4.302  16.983  0.00  0.00    +0.000 A 
ATOM     20  C   UNL     1      49.375   2.980  17.248  0.00  0.00    +0.000 A 
ATOM     21  C   UNL     1      50.683   2.691  17.629  0.00  0.00    +0.000 A 
ATOM     22  C   UNL     1      51.589   3.732  17.735  0.00  0.00    +0.000 A 
ATOM     23  N   UNL     1      51.275   5.035  17.486  0.00  0.00    +0.000 NA
ATOM     24  C   UNL     1      49.992   5.277  17.118  0.00  0.00    +0.000 A 
BRANCH  22  25
ATOM     25  C   UNL     1      52.994   3.432  18.150  0.00  0.00    +0.000 C 
ATOM     26  N   UNL     1      53.148   2.384  19.015  0.00  0.00    +0.000 N 
ATOM     27  O   UNL     1      53.955   4.075  17.742  0.00  0.00    +0.000 OA
ATOM     28  H   UNL     1      52.333   1.862  19.318  0.00  0.00    +0.000 HD
ATOM     29  H   UNL     1      54.074   2.119  19.316  0.00  0.00    +0.000 HD
ENDBRANCH  22  25
ENDBRANCH  18  19
ENDBRANCH  17  18
ENDBRANCH   5  17
TORSDOF 6
ENDMDL
MODEL 8
REMARK VINA RESULT:    -5.242      4.818      9.270
REMARK INTER + INTRA:          -7.817
REMARK INTER:                  -7.044
REMARK INTRA:                  -0.773
REMARK UNBOUND:                -0.736
REMARK  Name = 
REMARK  7 active torsions:
REMARK  status: ('A' for Active; 'I' for Inactive)
REMARK    1  A    between atoms: C_1  and  S_2
REMARK    2  A    between atoms: S_2  and  C_5
REMARK    3  A    between atoms: C_8  and  C_9
REMARK    4  A    between atoms: C_13  and  C_14
REMARK    5  A    between atoms: C_14  and  O_15
REMARK    6  A    between atoms: O_15  and  C_16
REMARK    7  A    between atoms: C_19  and  C_20
REMARK                            x       y       z     vdW  Elec       q    Type
REMARK                         _______ _______ _______ _____ _____    ______ ____
ROOT
ATOM      1  C   UNL     1      48.473   8.041  13.466  0.00  0.00    +0.000 A 
ATOM      2  C   UNL     1      48.514   9.333  12.927  0.00  0.00    +0.000 A 
ATOM      3  C   UNL     1      49.468  10.232  13.384  0.00  0.00    +0.000 A 
ATOM      4  N   UNL     1      50.382   9.942  14.329  0.00  0.00    +0.000 NA
ATOM      5  C   UNL     1      50.359   8.692  14.846  0.00  0.00    +0.000 A 
ATOM      6  C   UNL     1      49.434   7.733  14.440  0.00  0.00    +0.000 A 
ENDROOT
BRANCH   1  10
ATOM      7  C   UNL     1      45.413   5.194  12.445  0.00  0.00    +0.000 A 
ATOM      8  C   UNL     1      46.447   4.821  13.300  0.00  0.00    +0.000 A 
ATOM      9  C   UNL     1      47.452   5.742  13.605  0.00  0.00    +0.000 A 
ATOM     10  C   UNL     1      47.446   7.048  13.074  0.00  0.00    +0.000 A 
ATOM     11  C   UNL     1      46.403   7.380  12.187  0.00  0.00    +0.000 A 
ATOM     12  C   UNL     1      45.395   6.463  11.869  0.00  0.00    +0.000 A 
BRANCH   7  14
ATOM     13  C   UNL     1      42.772   5.036  11.561  0.00  0.00    +0.000 C 
ATOM     14  S   UNL     1      44.146   4.020  12.035  0.00  0.00    +0.000 S 
ATOM     15  O   UNL     1      43.790   3.324  13.257  0.00  0.00    +0.000 OA
ATOM     16  O   UNL     1      44.591   3.290  10.865  0.00  0.00    +0.000 OA
ENDBRANCH   7  14
ENDBRANCH   1  10
BRANCH   5  17
ATOM     17  C   UNL     1      51.346   8.361  15.938  0.00  0.00    +0.000 C 
BRANCH  17  18
ATOM     18  O   UNL     1      52.212   7.296  15.532  0.00  0.00    +0.000 OA
BRANCH  18  19
ATOM     19  C   UNL     1      52.344   6.274  16.429  0.00  0.00    +0.000 A 
ATOM     20  C   UNL     1      51.291   5.579  17.029  0.00  0.00    +0.000 A 
ATOM     21  C   UNL     1      51.565   4.550  17.925  0.00  0.00    +0.000 A 
ATOM     22  C   UNL     1      52.888   4.242  18.198  0.00  0.00    +0.000 A 
ATOM     23  N   UNL     1      53.946   4.891  17.635  0.00  0.00    +0.000 NA
ATOM     24  C   UNL     1      53.638   5.889  16.768  0.00  0.00    +0.000 A 
BRANCH  22  25
ATOM     25  C   UNL     1      53.192   3.143  19.164  0.00  0.00    +0.000 C 
ATOM     26  N   UNL     1      53.036   1.870  18.687  0.00  0.00    +0.000 N 
ATOM     27  O   UNL     1      53.565   3.357  20.313  0.00  0.00    +0.000 OA
ATOM     28  H   UNL     1      52.744   1.729  17.726  0.00  0.00    +0.000 HD
ATOM     29  H   UNL     1      53.246   1.085  19.285  0.00  0.00    +0.000 HD
ENDBRANCH  22  25
ENDBRANCH  18  19
ENDBRANCH  17  18
ENDBRANCH   5  17
TORSDOF 6
ENDMDL
