MODEL 1
REMARK VINA RESULT:    -7.637      0.000      0.000
REMARK INTER + INTRA:          -9.995
REMARK INTER:                  -9.423
REMARK INTRA:                  -0.572
REMARK UNBOUND:                -0.572
REMARK  Name = 
REMARK  5 active torsions:
REMARK  status: ('A' for Active; 'I' for Inactive)
REMARK    1  A    between atoms: C_1  and  C_2
REMARK    2  A    between atoms: C_2  and  C_3
REMARK    3  A    between atoms: C_2  and  C_14
REMARK    4  A    between atoms: C_3  and  N_4
REMARK    5  A    between atoms: C_8  and  C_9
REMARK                            x       y       z     vdW  Elec       q    Type
REMARK                         _______ _______ _______ _____ _____    ______ ____
ROOT
ATOM      1  N   UNL     1      43.810   3.390  10.412  0.00  0.00    +0.000 N 
ATOM      2  C   UNL     1      44.740   3.155   9.385  0.00  0.00    +0.000 A 
ATOM      3  C   UNL     1      45.121   1.841   9.069  0.00  0.00    +0.000 A 
ATOM      4  N   UNL     1      46.012   1.513   8.093  0.00  0.00    +0.000 NA
ATOM      5  C   UNL     1      46.533   2.582   7.433  0.00  0.00    +0.000 A 
ATOM      6  C   UNL     1      46.185   3.885   7.741  0.00  0.00    +0.000 A 
ATOM      7  N   UNL     1      45.293   4.192   8.719  0.00  0.00    +0.000 NA
ATOM      8  H   UNL     1      42.961   2.861  10.226  0.00  0.00    +0.000 HD
ENDROOT
BRANCH   5   9
ATOM      9  C   UNL     1      47.509   2.331   6.337  0.00  0.00    +0.000 C 
ATOM     10  N   UNL     1      47.419   3.156   5.249  0.00  0.00    +0.000 N 
ATOM     11  O   UNL     1      48.351   1.445   6.404  0.00  0.00    +0.000 OA
ATOM     12  H   UNL     1      46.713   3.882   5.216  0.00  0.00    +0.000 HD
ATOM     13  H   UNL     1      48.058   3.030   4.479  0.00  0.00    +0.000 HD
ENDBRANCH   5   9
BRANCH   1  14
ATOM     14  C   UNL     1      43.507   4.805  10.612  0.00  0.00    +0.000 C 
BRANCH  14  16
ATOM     15  C   UNL     1      42.854   5.219  13.067  0.00  0.00    +0.000 C 
ATOM     16  C   UNL     1      43.915   5.152  12.012  0.00  0.00    +0.000 C 
BRANCH  16  17
ATOM     17  C   UNL     1      45.281   5.599  12.322  0.00  0.00    +0.000 A 
ATOM     18  C   UNL     1      45.982   6.468  11.475  0.00  0.00    +0.000 A 
ATOM     19  C   UNL     1      47.288   6.865  11.782  0.00  0.00    +0.000 A 
ATOM     20  C   UNL     1      47.905   6.406  12.943  0.00  0.00    +0.000 A 
ATOM     21  C   UNL     1      47.219   5.548  13.796  0.00  0.00    +0.000 A 
ATOM     22  C   UNL     1      45.920   5.143  13.484  0.00  0.00    +0.000 A 
ENDBRANCH  16  17
ENDBRANCH  14  16
ENDBRANCH   1  14
TORSDOF 4
ENDMDL
MODEL 2
REMARK VINA RESULT:    -7.091      3.141      6.369
REMARK INTER + INTRA:          -9.321
REMARK INTER:                  -8.967
REMARK INTRA:                  -0.354
REMARK UNBOUND:                -0.572
REMARK  Name = 
REMARK  5 active torsions:
REMARK  status: ('A' for Active; 'I' for Inactive)
REMARK    1  A    between atoms: C_1  and  C_2
REMARK    2  A    between atoms: C_2  and  C_3
REMARK    3  A    between atoms: C_2  and  C_14
REMARK    4  A    between atoms: C_3  and  N_4
REMARK    5  A    between atoms: C_8  and  C_9
REMARK                            x       y       z     vdW  Elec       q    Type
REMARK                         _______ _______ _______ _____ _____    ______ ____
ROOT
ATOM      1  N   UNL     1      43.801   4.764  10.227  0.00  0.00    +0.000 N 
ATOM      2  C   UNL     1      44.681   5.487  11.050  0.00  0.00    +0.000 A 
ATOM      3  C   UNL     1      44.327   5.769  12.380  0.00  0.00    +0.000 A 
ATOM      4  N   UNL     1      45.112   6.460  13.253  0.00  0.00    +0.000 NA
ATOM      5  C   UNL     1      46.293   6.881  12.727  0.00  0.00    +0.000 A 
ATOM      6  C   UNL     1      46.652   6.628  11.415  0.00  0.00    +0.000 A 
ATOM      7  N   UNL     1      45.856   5.938  10.559  0.00  0.00    +0.000 NA
ATOM      8  H   UNL     1      43.566   3.882  10.676  0.00  0.00    +0.000 HD
ENDROOT
BRANCH   5   9
ATOM      9  C   UNL     1      47.230   7.636  13.605  0.00  0.00    +0.000 C 
ATOM     10  N   UNL     1      46.785   8.847  14.060  0.00  0.00    +0.000 N 
ATOM     11  O   UNL     1      48.333   7.200  13.910  0.00  0.00    +0.000 OA
ATOM     12  H   UNL     1      45.868   9.187  13.793  0.00  0.00    +0.000 HD
ATOM     13  H   UNL     1      47.378   9.398  14.660  0.00  0.00    +0.000 HD
ENDBRANCH   5   9
BRANCH   1  14
ATOM     14  C   UNL     1      44.315   4.541   8.878  0.00  0.00    +0.000 C 
BRANCH  14  16
ATOM     15  C   UNL     1      44.271   2.156   9.845  0.00  0.00    +0.000 C 
ATOM     16  C   UNL     1      44.768   3.114   8.806  0.00  0.00    +0.000 C 
BRANCH  16  17
ATOM     17  C   UNL     1      45.813   2.690   7.862  0.00  0.00    +0.000 A 
ATOM     18  C   UNL     1      46.188   3.487   6.772  0.00  0.00    +0.000 A 
ATOM     19  C   UNL     1      47.173   3.055   5.877  0.00  0.00    +0.000 A 
ATOM     20  C   UNL     1      47.802   1.827   6.067  0.00  0.00    +0.000 A 
ATOM     21  C   UNL     1      47.444   1.029   7.149  0.00  0.00    +0.000 A 
ATOM     22  C   UNL     1      46.454   1.455   8.035  0.00  0.00    +0.000 A 
ENDBRANCH  16  17
ENDBRANCH  14  16
ENDBRANCH   1  14
TORSDOF 4
ENDMDL
MODEL 3
REMARK VINA RESULT:    -6.689      3.545      5.926
REMARK INTER + INTRA:          -8.825
REMARK INTER:                  -8.274
REMARK INTRA:                  -0.551
REMARK UNBOUND:                -0.572
REMARK  Name = 
REMARK  5 active torsions:
REMARK  status: ('A' for Active; 'I' for Inactive)
REMARK    1  A    between atoms: C_1  and  C_2
REMARK    2  A    between atoms: C_2  and  C_3
REMARK    3  A    between atoms: C_2  and  C_14
REMARK    4  A    between atoms: C_3  and  N_4
REMARK    5  A    between atoms: C_8  and  C_9
REMARK                            x       y       z     vdW  Elec       q    Type
REMARK                         _______ _______ _______ _____ _____    ______ ____
ROOT
ATOM      1  N   UNL     1      45.069   4.848  12.654  0.00  0.00    +0.000 N 
ATOM      2  C   UNL     1      46.265   5.586  12.664  0.00  0.00    +0.000 A 
ATOM      3  C   UNL     1      47.141   5.489  13.758  0.00  0.00    +0.000 A 
ATOM      4  N   UNL     1      48.320   6.162  13.859  0.00  0.00    +0.000 NA
ATOM      5  C   UNL     1      48.593   6.970  12.800  0.00  0.00    +0.000 A 
ATOM      6  C   UNL     1      47.736   7.093  11.721  0.00  0.00    +0.000 A 
ATOM      7  N   UNL     1      46.563   6.413  11.639  0.00  0.00    +0.000 NA
ATOM      8  H   UNL     1      45.279   3.862  12.792  0.00  0.00    +0.000 HD
ENDROOT
BRANCH   5   9
ATOM      9  C   UNL     1      49.866   7.742  12.807  0.00  0.00    +0.000 C 
ATOM     10  N   UNL     1      50.757   7.445  11.812  0.00  0.00    +0.000 N 
ATOM     11  O   UNL     1      50.106   8.599  13.649  0.00  0.00    +0.000 OA
ATOM     12  H   UNL     1      50.538   6.730  11.127  0.00  0.00    +0.000 HD
ATOM     13  H   UNL     1      51.634   7.939  11.769  0.00  0.00    +0.000 HD
ENDBRANCH   5   9
BRANCH   1  14
ATOM     14  C   UNL     1      44.273   5.045  11.445  0.00  0.00    +0.000 C 
BRANCH  14  16
ATOM     15  C   UNL     1      43.363   2.638  11.406  0.00  0.00    +0.000 C 
ATOM     16  C   UNL     1      44.173   3.718  10.757  0.00  0.00    +0.000 C 
BRANCH  16  17
ATOM     17  C   UNL     1      44.990   3.407   9.574  0.00  0.00    +0.000 A 
ATOM     18  C   UNL     1      45.498   4.415   8.743  0.00  0.00    +0.000 A 
ATOM     19  C   UNL     1      46.258   4.094   7.614  0.00  0.00    +0.000 A 
ATOM     20  C   UNL     1      46.527   2.763   7.306  0.00  0.00    +0.000 A 
ATOM     21  C   UNL     1      46.035   1.752   8.126  0.00  0.00    +0.000 A 
ATOM     22  C   UNL     1      45.268   2.072   9.247  0.00  0.00    +0.000 A 
ENDBRANCH  16  17
ENDBRANCH  14  16
ENDBRANCH   1  14
TORSDOF 4
ENDMDL
MODEL 4
REMARK VINA RESULT:    -6.457      4.423      7.231
REMARK INTER + INTRA:          -8.538
REMARK INTER:                  -8.172
REMARK INTRA:                  -0.366
REMARK UNBOUND:                -0.572
REMARK  Name = 
REMARK  5 active torsions:
REMARK  status: ('A' for Active; 'I' for Inactive)
REMARK    1  A    between atoms: C_1  and  C_2
REMARK    2  A    between atoms: C_2  and  C_3
REMARK    3  A    between atoms: C_2  and  C_14
REMARK    4  A    between atoms: C_3  and  N_4
REMARK    5  A    between atoms: C_8  and  C_9
REMARK                            x       y       z     vdW  Elec       q    Type
REMARK                         _______ _______ _______ _____ _____    ______ ____
ROOT
ATOM      1  N   UNL     1      46.079   5.252  12.784  0.00  0.00    +0.000 N 
ATOM      2  C   UNL     1      46.761   5.113  14.005  0.00  0.00    +0.000 A 
ATOM      3  C   UNL     1      47.816   5.984  14.324  0.00  0.00    +0.000 A 
ATOM      4  N   UNL     1      48.534   5.930  15.479  0.00  0.00    +0.000 NA
ATOM      5  C   UNL     1      48.155   4.934  16.325  0.00  0.00    +0.000 A 
ATOM      6  C   UNL     1      47.131   4.055  16.022  0.00  0.00    +0.000 A 
ATOM      7  N   UNL     1      46.426   4.125  14.863  0.00  0.00    +0.000 NA
ATOM      8  H   UNL     1      45.728   6.203  12.700  0.00  0.00    +0.000 HD
ENDROOT
BRANCH   5   9
ATOM      9  C   UNL     1      48.871   4.797  17.623  0.00  0.00    +0.000 C 
ATOM     10  N   UNL     1      48.129   4.330  18.674  0.00  0.00    +0.000 N 
ATOM     11  O   UNL     1      50.056   5.076  17.748  0.00  0.00    +0.000 OA
ATOM     12  H   UNL     1      47.148   4.106  18.546  0.00  0.00    +0.000 HD
ATOM     13  H   UNL     1      48.565   4.216  19.575  0.00  0.00    +0.000 HD
ENDBRANCH   5   9
BRANCH   1  14
ATOM     14  C   UNL     1      45.002   4.281  12.605  0.00  0.00    +0.000 C 
BRANCH  14  16
ATOM     15  C   UNL     1      43.080   5.253  11.196  0.00  0.00    +0.000 C 
ATOM     16  C   UNL     1      44.394   4.536  11.259  0.00  0.00    +0.000 C 
BRANCH  16  17
ATOM     17  C   UNL     1      44.964   3.946  10.038  0.00  0.00    +0.000 A 
ATOM     18  C   UNL     1      45.529   4.739   9.031  0.00  0.00    +0.000 A 
ATOM     19  C   UNL     1      46.049   4.156   7.870  0.00  0.00    +0.000 A 
ATOM     20  C   UNL     1      46.019   2.773   7.707  0.00  0.00    +0.000 A 
ATOM     21  C   UNL     1      45.467   1.973   8.702  0.00  0.00    +0.000 A 
ATOM     22  C   UNL     1      44.938   2.556   9.855  0.00  0.00    +0.000 A 
ENDBRANCH  16  17
ENDBRANCH  14  16
ENDBRANCH   1  14
TORSDOF 4
ENDMDL
MODEL 5
REMARK VINA RESULT:    -6.249      4.407      6.323
REMARK INTER + INTRA:          -8.282
REMARK INTER:                  -7.917
REMARK INTRA:                  -0.366
REMARK UNBOUND:                -0.572
REMARK  Name = 
REMARK  5 active torsions:
REMARK  status: ('A' for Active; 'I' for Inactive)
REMARK    1  A    between atoms: C_1  and  C_2
REMARK    2  A    between atoms: C_2  and  C_3
REMARK    3  A    between atoms: C_2  and  C_14
REMARK    4  A    between atoms: C_3  and  N_4
REMARK    5  A    between atoms: C_8  and  C_9
REMARK                            x       y       z     vdW  Elec       q    Type
REMARK                         _______ _______ _______ _____ _____    ______ ____
ROOT
ATOM      1  N   UNL     1      47.403   5.161  15.226  0.00  0.00    +0.000 N 
ATOM      2  C   UNL     1      46.749   5.056  13.987  0.00  0.00    +0.000 A 
ATOM      3  C   UNL     1      46.903   6.066  13.023  0.00  0.00    +0.000 A 
ATOM      4  N   UNL     1      46.312   6.054  11.796  0.00  0.00    +0.000 NA
ATOM      5  C   UNL     1      45.527   4.967  11.567  0.00  0.00    +0.000 A 
ATOM      6  C   UNL     1      45.348   3.970  12.509  0.00  0.00    +0.000 A 
ATOM      7  N   UNL     1      45.946   4.000  13.728  0.00  0.00    +0.000 NA
ATOM      8  H   UNL     1      48.401   5.287  15.071  0.00  0.00    +0.000 HD
ENDROOT
BRANCH   5   9
ATOM      9  C   UNL     1      44.845   4.852  10.249  0.00  0.00    +0.000 C 
ATOM     10  N   UNL     1      45.555   5.286   9.162  0.00  0.00    +0.000 N 
ATOM     11  O   UNL     1      43.716   4.390  10.136  0.00  0.00    +0.000 OA
ATOM     12  H   UNL     1      46.487   5.666   9.281  0.00  0.00    +0.000 HD
ATOM     13  H   UNL     1      45.140   5.229   8.246  0.00  0.00    +0.000 HD
ENDBRANCH   5   9
BRANCH   1  14
ATOM     14  C   UNL     1      47.154   4.028  16.114  0.00  0.00    +0.000 C 
BRANCH  14  16
ATOM     15  C   UNL     1      47.551   5.198  18.372  0.00  0.00    +0.000 C 
ATOM     16  C   UNL     1      48.006   4.222  17.331  0.00  0.00    +0.000 C 
BRANCH  16  17
ATOM     17  C   UNL     1      49.344   3.619  17.431  0.00  0.00    +0.000 A 
ATOM     18  C   UNL     1      49.586   2.294  17.042  0.00  0.00    +0.000 A 
ATOM     19  C   UNL     1      50.863   1.737  17.163  0.00  0.00    +0.000 A 
ATOM     20  C   UNL     1      51.916   2.498  17.665  0.00  0.00    +0.000 A 
ATOM     21  C   UNL     1      51.691   3.817  18.048  0.00  0.00    +0.000 A 
ATOM     22  C   UNL     1      50.414   4.369  17.938  0.00  0.00    +0.000 A 
ENDBRANCH  16  17
ENDBRANCH  14  16
ENDBRANCH   1  14
TORSDOF 4
ENDMDL
MODEL 6
REMARK VINA RESULT:    -6.053      5.192      7.963
REMARK INTER + INTRA:          -8.040
REMARK INTER:                  -7.716
REMARK INTRA:                  -0.324
REMARK UNBOUND:                -0.572
REMARK  Name = 
REMARK  5 active torsions:
REMARK  status: ('A' for Active; 'I' for Inactive)
REMARK    1  A    between atoms: C_1  and  C_2
REMARK    2  A    between atoms: C_2  and  C_3
REMARK    3  A    between atoms: C_2  and  C_14
REMARK    4  A    between atoms: C_3  and  N_4
REMARK    5  A    between atoms: C_8  and  C_9
REMARK                            x       y       z     vdW  Elec       q    Type
REMARK                         _______ _______ _______ _____ _____    ______ ____
ROOT
ATOM      1  N   UNL     1      46.940   5.251  13.883  0.00  0.00    +0.000 N 
ATOM      2  C   UNL     1      47.474   4.935  15.144  0.00  0.00    +0.000 A 
ATOM      3  C   UNL     1      48.252   5.879  15.834  0.00  0.00    +0.000 A 
ATOM      4  N   UNL     1      48.811   5.667  17.058  0.00  0.00    +0.000 NA
ATOM      5  C   UNL     1      48.565   4.433  17.576  0.00  0.00    +0.000 A 
ATOM      6  C   UNL     1      47.816   3.483  16.904  0.00  0.00    +0.000 A 
ATOM      7  N   UNL     1      47.268   3.714  15.684  0.00  0.00    +0.000 NA
ATOM      8  H   UNL     1      46.394   6.107  13.952  0.00  0.00    +0.000 HD
ENDROOT
BRANCH   5   9
ATOM      9  C   UNL     1      49.122   4.105  18.917  0.00  0.00    +0.000 C 
ATOM     10  N   UNL     1      48.359   3.283  19.701  0.00  0.00    +0.000 N 
ATOM     11  O   UNL     1      50.202   4.536  19.299  0.00  0.00    +0.000 OA
ATOM     12  H   UNL     1      47.466   2.940  19.364  0.00  0.00    +0.000 HD
ATOM     13  H   UNL     1      48.690   3.028  20.618  0.00  0.00    +0.000 HD
ENDBRANCH   5   9
BRANCH   1  14
ATOM     14  C   UNL     1      46.146   4.173  13.300  0.00  0.00    +0.000 C 
BRANCH  14  16
ATOM     15  C   UNL     1      44.271   5.852  12.764  0.00  0.00    +0.000 C 
ATOM     16  C   UNL     1      45.222   4.794  12.297  0.00  0.00    +0.000 C 
BRANCH  16  17
ATOM     17  C   UNL     1      45.110   4.264  10.929  0.00  0.00    +0.000 A 
ATOM     18  C   UNL     1      44.602   2.982  10.675  0.00  0.00    +0.000 A 
ATOM     19  C   UNL     1      44.521   2.493   9.368  0.00  0.00    +0.000 A 
ATOM     20  C   UNL     1      44.938   3.281   8.297  0.00  0.00    +0.000 A 
ATOM     21  C   UNL     1      45.437   4.558   8.534  0.00  0.00    +0.000 A 
ATOM     22  C   UNL     1      45.528   5.042   9.840  0.00  0.00    +0.000 A 
ENDBRANCH  16  17
ENDBRANCH  14  16
ENDBRANCH   1  14
TORSDOF 4
ENDMDL
MODEL 7
REMARK VINA RESULT:    -5.688      3.891      6.122
REMARK INTER + INTRA:          -7.590
REMARK INTER:                  -7.092
REMARK INTRA:                  -0.498
REMARK UNBOUND:                -0.572
REMARK  Name = 
REMARK  5 active torsions:
REMARK  status: ('A' for Active; 'I' for Inactive)
REMARK    1  A    between atoms: C_1  and  C_2
REMARK    2  A    between atoms: C_2  and  C_3
REMARK    3  A    between atoms: C_2  and  C_14
REMARK    4  A    between atoms: C_3  and  N_4
REMARK    5  A    between atoms: C_8  and  C_9
REMARK                            x       y       z     vdW  Elec       q    Type
REMARK                         _______ _______ _______ _____ _____    ______ ____
ROOT
ATOM      1  N   UNL     1      47.252   7.114  13.899  0.00  0.00    +0.000 N 
ATOM      2  C   UNL     1      46.419   6.127  13.346  0.00  0.00    +0.000 A 
ATOM      3  C   UNL     1      45.136   6.466  12.887  0.00  0.00    +0.000 A 
ATOM      4  N   UNL     1      44.259   5.582  12.335  0.00  0.00    +0.000 NA
ATOM      5  C   UNL     1      44.722   4.305  12.270  0.00  0.00    +0.000 A 
ATOM      6  C   UNL     1      45.975   3.947  12.733  0.00  0.00    +0.000 A 
ATOM      7  N   UNL     1      46.836   4.844  13.279  0.00  0.00    +0.000 NA
ATOM      8  H   UNL     1      47.355   7.879  13.236  0.00  0.00    +0.000 HD
ENDROOT
BRANCH   5   9
ATOM      9  C   UNL     1      43.843   3.263  11.672  0.00  0.00    +0.000 C 
ATOM     10  N   UNL     1      43.608   2.157  12.444  0.00  0.00    +0.000 N 
ATOM     11  O   UNL     1      43.350   3.385  10.558  0.00  0.00    +0.000 OA
ATOM     12  H   UNL     1      44.028   2.078  13.363  0.00  0.00    +0.000 HD
ATOM     13  H   UNL     1      43.018   1.422  12.088  0.00  0.00    +0.000 HD
ENDBRANCH   5   9
BRANCH   1  14
ATOM     14  C   UNL     1      48.556   6.609  14.318  0.00  0.00    +0.000 C 
BRANCH  14  16
ATOM     15  C   UNL     1      48.834   7.984  16.475  0.00  0.00    +0.000 C 
ATOM     16  C   UNL     1      48.594   6.662  15.815  0.00  0.00    +0.000 C 
BRANCH  16  17
ATOM     17  C   UNL     1      48.582   5.433  16.624  0.00  0.00    +0.000 A 
ATOM     18  C   UNL     1      47.463   4.589  16.666  0.00  0.00    +0.000 A 
ATOM     19  C   UNL     1      47.469   3.435  17.456  0.00  0.00    +0.000 A 
ATOM     20  C   UNL     1      48.595   3.106  18.207  0.00  0.00    +0.000 A 
ATOM     21  C   UNL     1      49.715   3.931  18.169  0.00  0.00    +0.000 A 
ATOM     22  C   UNL     1      49.705   5.088  17.389  0.00  0.00    +0.000 A 
ENDBRANCH  16  17
ENDBRANCH  14  16
ENDBRANCH   1  14
TORSDOF 4
ENDMDL
MODEL 8
REMARK VINA RESULT:    -5.416      6.096      8.790
REMARK INTER + INTRA:          -7.254
REMARK INTER:                  -6.810
REMARK INTRA:                  -0.444
REMARK UNBOUND:                -0.572
REMARK  Name = 
REMARK  5 active torsions:
REMARK  status: ('A' for Active; 'I' for Inactive)
REMARK    1  A    between atoms: C_1  and  C_2
REMARK    2  A    between atoms: C_2  and  C_3
REMARK    3  A    between atoms: C_2  and  C_14
REMARK    4  A    between atoms: C_3  and  N_4
REMARK    5  A    between atoms: C_8  and  C_9
REMARK                            x       y       z     vdW  Elec       q    Type
REMARK                         _______ _______ _______ _____ _____    ______ ____
ROOT
ATOM      1  N   UNL     1      46.613   4.346  15.832  0.00  0.00    +0.000 N 
ATOM      2  C   UNL     1      47.596   4.599  16.803  0.00  0.00    +0.000 A 
ATOM      3  C   UNL     1      47.220   4.998  18.097  0.00  0.00    +0.000 A 
ATOM      4  N   UNL     1      48.097   5.265  19.103  0.00  0.00    +0.000 NA
ATOM      5  C   UNL     1      49.404   5.126  18.754  0.00  0.00    +0.000 A 
ATOM      6  C   UNL     1      49.796   4.753  17.482  0.00  0.00    +0.000 A 
ATOM      7  N   UNL     1      48.906   4.490  16.490  0.00  0.00    +0.000 NA
ATOM      8  H   UNL     1      45.957   3.653  16.188  0.00  0.00    +0.000 HD
ENDROOT
BRANCH   5   9
ATOM      9  C   UNL     1      50.444   5.384  19.789  0.00  0.00    +0.000 C 
ATOM     10  N   UNL     1      50.566   4.437  20.770  0.00  0.00    +0.000 N 
ATOM     11  O   UNL     1      51.157   6.379  19.764  0.00  0.00    +0.000 OA
ATOM     12  H   UNL     1      49.963   3.622  20.770  0.00  0.00    +0.000 HD
ATOM     13  H   UNL     1      51.256   4.562  21.493  0.00  0.00    +0.000 HD
ENDBRANCH   5   9
BRANCH   1  14
ATOM     14  C   UNL     1      47.160   3.930  14.543  0.00  0.00    +0.000 C 
BRANCH  14  16
ATOM     15  C   UNL     1      47.416   6.194  13.347  0.00  0.00    +0.000 C 
ATOM     16  C   UNL     1      46.671   4.906  13.517  0.00  0.00    +0.000 C 
BRANCH  16  17
ATOM     17  C   UNL     1      45.393   4.704  12.818  0.00  0.00    +0.000 A 
ATOM     18  C   UNL     1      44.486   5.754  12.623  0.00  0.00    +0.000 A 
ATOM     19  C   UNL     1      43.268   5.535  11.970  0.00  0.00    +0.000 A 
ATOM     20  C   UNL     1      42.947   4.265  11.496  0.00  0.00    +0.000 A 
ATOM     21  C   UNL     1      43.842   3.215  11.675  0.00  0.00    +0.000 A 
ATOM     22  C   UNL     1      45.051   3.432  12.337  0.00  0.00    +0.000 A 
ENDBRANCH  16  17
ENDBRANCH  14  16
ENDBRANCH   1  14
TORSDOF 4
ENDMDL
MODEL 9
REMARK VINA RESULT:    -5.323      4.888      7.214
REMARK INTER + INTRA:          -7.139
REMARK INTER:                  -6.807
REMARK INTRA:                  -0.332
REMARK UNBOUND:                -0.572
REMARK  Name = 
REMARK  5 active torsions:
REMARK  status: ('A' for Active; 'I' for Inactive)
REMARK    1  A    between atoms: C_1  and  C_2
REMARK    2  A    between atoms: C_2  and  C_3
REMARK    3  A    between atoms: C_2  and  C_14
REMARK    4  A    between atoms: C_3  and  N_4
REMARK    5  A    between atoms: C_8  and  C_9
REMARK                            x       y       z     vdW  Elec       q    Type
REMARK                         _______ _______ _______ _____ _____    ______ ____
ROOT
ATOM      1  N   UNL     1      46.650   5.910  13.648  0.00  0.00    +0.000 N 
ATOM      2  C   UNL     1      47.897   6.435  14.026  0.00  0.00    +0.000 A 
ATOM      3  C   UNL     1      48.403   6.188  15.313  0.00  0.00    +0.000 A 
ATOM      4  N   UNL     1      49.599   6.653  15.770  0.00  0.00    +0.000 NA
ATOM      5  C   UNL     1      50.285   7.407  14.869  0.00  0.00    +0.000 A 
ATOM      6  C   UNL     1      49.796   7.677  13.604  0.00  0.00    +0.000 A 
ATOM      7  N   UNL     1      48.601   7.204  13.166  0.00  0.00    +0.000 NA
ATOM      8  H   UNL     1      46.652   4.902  13.789  0.00  0.00    +0.000 HD
ENDROOT
BRANCH   5   9
ATOM      9  C   UNL     1      51.611   7.953  15.267  0.00  0.00    +0.000 C 
ATOM     10  N   UNL     1      52.678   7.106  15.130  0.00  0.00    +0.000 N 
ATOM     11  O   UNL     1      51.748   9.095  15.687  0.00  0.00    +0.000 OA
ATOM     12  H   UNL     1      52.540   6.164  14.781  0.00  0.00    +0.000 HD
ATOM     13  H   UNL     1      53.599   7.426  15.383  0.00  0.00    +0.000 HD
ENDBRANCH   5   9
BRANCH   1  14
ATOM     14  C   UNL     1      46.268   6.243  12.278  0.00  0.00    +0.000 C 
BRANCH  14  16
ATOM     15  C   UNL     1      43.992   5.237  12.935  0.00  0.00    +0.000 C 
ATOM     16  C   UNL     1      45.088   5.388  11.926  0.00  0.00    +0.000 C 
BRANCH  16  17
ATOM     17  C   UNL     1      45.076   4.568  10.705  0.00  0.00    +0.000 A 
ATOM     18  C   UNL     1      45.580   5.049   9.489  0.00  0.00    +0.000 A 
ATOM     19  C   UNL     1      45.542   4.256   8.337  0.00  0.00    +0.000 A 
ATOM     20  C   UNL     1      45.009   2.970   8.389  0.00  0.00    +0.000 A 
ATOM     21  C   UNL     1      44.512   2.477   9.591  0.00  0.00    +0.000 A 
ATOM     22  C   UNL     1      44.540   3.273  10.738  0.00  0.00    +0.000 A 
ENDBRANCH  16  17
ENDBRANCH  14  16
ENDBRANCH   1  14
TORSDOF 4
ENDMDL
