MODEL 1
REMARK VINA RESULT:    -6.462      0.000      0.000
REMARK INTER + INTRA:          -8.673
REMARK INTER:                  -8.162
REMARK INTRA:                  -0.510
REMARK UNBOUND:                -0.510
REMARK  Name = 
REMARK  5 active torsions:
REMARK  status: ('A' for Active; 'I' for Inactive)
REMARK    1  A    between atoms: N_1  and  C_2
REMARK    2  A    between atoms: C_2  and  C_3
REMARK    3  A    between atoms: C_10  and  C_11
REMARK    4  A    between atoms: N_15  and  C_16
REMARK    5  A    between atoms: C_16  and  C_17
REMARK                            x       y       z     vdW  Elec       q    Type
REMARK                         _______ _______ _______ _____ _____    ______ ____
ROOT
ATOM      1  C   UNL     1      47.657   5.431  14.529  0.00  0.00    +0.000 C 
ATOM      2  C   UNL     1      46.451   4.618  14.182  0.00  0.00    +0.000 C 
ATOM      3  N   UNL     1      45.733   4.670  13.098  0.00  0.00    +0.000 NA
ATOM      4  C   UNL     1      46.037   5.630  12.154  0.00  0.00    +0.000 C 
ATOM      5  C   UNL     1      47.156   6.538  12.498  0.00  0.00    +0.000 C 
ATOM      6  C   UNL     1      48.092   6.251  13.560  0.00  0.00    +0.000 C 
ATOM      7  C   UNL     1      47.081   7.827  12.108  0.00  0.00    +0.000 C 
ATOM      8  C   UNL     1      45.761   8.353  11.766  0.00  0.00    +0.000 C 
ATOM      9  C   UNL     1      44.854   7.476  11.289  0.00  0.00    +0.000 C 
ATOM     10  N   UNL     1      45.156   6.103  11.130  0.00  0.00    +0.000 N 
ENDROOT
BRANCH   8  11
ATOM     11  C   UNL     1      45.465   9.743  12.217  0.00  0.00    +0.000 C 
ATOM     12  N   UNL     1      44.199  10.044  12.585  0.00  0.00    +0.000 N 
ATOM     13  O   UNL     1      46.349  10.592  12.302  0.00  0.00    +0.000 OA
ATOM     14  H   UNL     1      43.444   9.378  12.639  0.00  0.00    +0.000 HD
ATOM     15  H   UNL     1      44.058  10.968  12.974  0.00  0.00    +0.000 HD
ENDBRANCH   8  11
BRANCH   1  16
ATOM     16  C   UNL     1      48.165   5.484  15.933  0.00  0.00    +0.000 C 
BRANCH  16  17
ATOM     17  N   UNL     1      47.225   4.955  16.906  0.00  0.00    +0.000 NA
ATOM     18  H   UNL     1      46.374   5.516  16.862  0.00  0.00    +0.000 HD
ATOM     19  H   UNL     1      47.600   5.108  17.840  0.00  0.00    +0.000 HD
ENDBRANCH  16  17
ENDBRANCH   1  16
BRANCH  10  20
ATOM     20  C   UNL     1      45.597   5.726   9.747  0.00  0.00    +0.000 C 
BRANCH  20  21
ATOM     21  C   UNL     1      45.273   4.311   9.313  0.00  0.00    +0.000 A 
ATOM     22  C   UNL     1      46.024   3.671   8.313  0.00  0.00    +0.000 A 
ATOM     23  C   UNL     1      45.828   2.313   8.044  0.00  0.00    +0.000 A 
ATOM     24  C   UNL     1      44.877   1.637   8.780  0.00  0.00    +0.000 A 
ATOM     25  N   UNL     1      44.102   2.222   9.725  0.00  0.00    +0.000 NA
ATOM     26  C   UNL     1      44.325   3.538   9.970  0.00  0.00    +0.000 A 
ENDBRANCH  20  21
ENDBRANCH  10  20
TORSDOF 5
ENDMDL
MODEL 2
REMARK VINA RESULT:    -6.253      2.405      5.800
REMARK INTER + INTRA:          -8.408
REMARK INTER:                  -7.770
REMARK INTRA:                  -0.637
REMARK UNBOUND:                -0.510
REMARK  Name = 
REMARK  5 active torsions:
REMARK  status: ('A' for Active; 'I' for Inactive)
REMARK    1  A    between atoms: N_1  and  C_2
REMARK    2  A    between atoms: C_2  and  C_3
REMARK    3  A    between atoms: C_10  and  C_11
REMARK    4  A    between atoms: N_15  and  C_16
REMARK    5  A    between atoms: C_16  and  C_17
REMARK                            x       y       z     vdW  Elec       q    Type
REMARK                         _______ _______ _______ _____ _____    ______ ____
ROOT
ATOM      1  C   UNL     1      44.287   4.548  10.358  0.00  0.00    +0.000 C 
ATOM      2  C   UNL     1      43.224   5.391  10.988  0.00  0.00    +0.000 C 
ATOM      3  N   UNL     1      43.331   6.602  11.452  0.00  0.00    +0.000 NA
ATOM      4  C   UNL     1      44.576   7.197  11.454  0.00  0.00    +0.000 C 
ATOM      5  C   UNL     1      45.689   6.363  10.944  0.00  0.00    +0.000 C 
ATOM      6  C   UNL     1      45.469   5.157  10.179  0.00  0.00    +0.000 C 
ATOM      7  C   UNL     1      46.900   6.483  11.523  0.00  0.00    +0.000 C 
ATOM      8  C   UNL     1      46.955   7.079  12.857  0.00  0.00    +0.000 C 
ATOM      9  C   UNL     1      45.993   7.969  13.172  0.00  0.00    +0.000 C 
ATOM     10  N   UNL     1      44.966   8.313  12.261  0.00  0.00    +0.000 N 
ENDROOT
BRANCH   8  11
ATOM     11  C   UNL     1      47.907   6.457  13.821  0.00  0.00    +0.000 C 
ATOM     12  N   UNL     1      47.408   5.678  14.808  0.00  0.00    +0.000 N 
ATOM     13  O   UNL     1      49.122   6.602  13.707  0.00  0.00    +0.000 OA
ATOM     14  H   UNL     1      46.435   5.431  14.905  0.00  0.00    +0.000 HD
ATOM     15  H   UNL     1      48.089   5.199  15.382  0.00  0.00    +0.000 HD
ENDBRANCH   8  11
BRANCH   1  16
ATOM     16  C   UNL     1      44.091   3.077  10.181  0.00  0.00    +0.000 C 
BRANCH  16  17
ATOM     17  N   UNL     1      43.341   2.462  11.262  0.00  0.00    +0.000 NA
ATOM     18  H   UNL     1      43.472   3.027  12.102  0.00  0.00    +0.000 HD
ATOM     19  H   UNL     1      43.760   1.559  11.479  0.00  0.00    +0.000 HD
ENDBRANCH  16  17
ENDBRANCH   1  16
BRANCH  10  20
ATOM     20  C   UNL     1      45.241   9.553  11.465  0.00  0.00    +0.000 C 
BRANCH  20  21
ATOM     21  C   UNL     1      44.023  10.266  10.912  0.00  0.00    +0.000 A 
ATOM     22  C   UNL     1      43.849  10.435   9.528  0.00  0.00    +0.000 A 
ATOM     23  C   UNL     1      42.646  10.938   9.025  0.00  0.00    +0.000 A 
ATOM     24  C   UNL     1      41.652  11.265   9.925  0.00  0.00    +0.000 A 
ATOM     25  N   UNL     1      41.790  11.156  11.268  0.00  0.00    +0.000 NA
ATOM     26  C   UNL     1      42.966  10.656  11.724  0.00  0.00    +0.000 A 
ENDBRANCH  20  21
ENDBRANCH  10  20
TORSDOF 5
ENDMDL
MODEL 3
REMARK VINA RESULT:    -6.084      3.049      6.293
REMARK INTER + INTRA:          -8.195
REMARK INTER:                  -7.647
REMARK INTRA:                  -0.548
REMARK UNBOUND:                -0.510
REMARK  Name = 
REMARK  5 active torsions:
REMARK  status: ('A' for Active; 'I' for Inactive)
REMARK    1  A    between atoms: N_1  and  C_2
REMARK    2  A    between atoms: C_2  and  C_3
REMARK    3  A    between atoms: C_10  and  C_11
REMARK    4  A    between atoms: N_15  and  C_16
REMARK    5  A    between atoms: C_16  and  C_17
REMARK                            x       y       z     vdW  Elec       q    Type
REMARK                         _______ _______ _______ _____ _____    ______ ____
ROOT
ATOM      1  C   UNL     1      44.352   4.269  11.947  0.00  0.00    +0.000 C 
ATOM      2  C   UNL     1      44.482   5.753  11.818  0.00  0.00    +0.000 C 
ATOM      3  N   UNL     1      45.506   6.498  12.122  0.00  0.00    +0.000 NA
ATOM      4  C   UNL     1      46.602   5.899  12.709  0.00  0.00    +0.000 C 
ATOM      5  C   UNL     1      46.481   4.445  12.965  0.00  0.00    +0.000 C 
ATOM      6  C   UNL     1      45.461   3.630  12.347  0.00  0.00    +0.000 C 
ATOM      7  C   UNL     1      47.051   3.938  14.076  0.00  0.00    +0.000 C 
ATOM      8  C   UNL     1      47.368   4.869  15.157  0.00  0.00    +0.000 C 
ATOM      9  C   UNL     1      47.640   6.143  14.811  0.00  0.00    +0.000 C 
ATOM     10  N   UNL     1      47.616   6.572  13.463  0.00  0.00    +0.000 N 
ENDROOT
BRANCH   8  11
ATOM     11  C   UNL     1      47.107   4.387  16.544  0.00  0.00    +0.000 C 
ATOM     12  N   UNL     1      47.324   5.238  17.573  0.00  0.00    +0.000 N 
ATOM     13  O   UNL     1      46.663   3.262  16.759  0.00  0.00    +0.000 OA
ATOM     14  H   UNL     1      47.590   6.204  17.470  0.00  0.00    +0.000 HD
ATOM     15  H   UNL     1      47.047   4.907  18.488  0.00  0.00    +0.000 HD
ENDBRANCH   8  11
BRANCH   1  16
ATOM     16  C   UNL     1      43.012   3.611  11.868  0.00  0.00    +0.000 C 
BRANCH  16  17
ATOM     17  N   UNL     1      43.087   2.172  11.692  0.00  0.00    +0.000 NA
ATOM     18  H   UNL     1      42.245   1.758  12.093  0.00  0.00    +0.000 HD
ATOM     19  H   UNL     1      43.857   1.812  12.254  0.00  0.00    +0.000 HD
ENDBRANCH  16  17
ENDBRANCH   1  16
BRANCH  10  20
ATOM     20  C   UNL     1      48.956   6.566  12.791  0.00  0.00    +0.000 C 
BRANCH  20  21
ATOM     21  C   UNL     1      49.341   7.843  12.071  0.00  0.00    +0.000 A 
ATOM     22  C   UNL     1      48.437   8.913  11.965  0.00  0.00    +0.000 A 
ATOM     23  C   UNL     1      48.858  10.144  11.453  0.00  0.00    +0.000 A 
ATOM     24  C   UNL     1      50.174  10.265  11.055  0.00  0.00    +0.000 A 
ATOM     25  N   UNL     1      51.069   9.249  11.102  0.00  0.00    +0.000 NA
ATOM     26  C   UNL     1      50.631   8.071  11.613  0.00  0.00    +0.000 A 
ENDBRANCH  20  21
ENDBRANCH  10  20
TORSDOF 5
ENDMDL
MODEL 4
REMARK VINA RESULT:    -5.735      3.204      4.943
REMARK INTER + INTRA:          -7.754
REMARK INTER:                  -7.222
REMARK INTRA:                  -0.531
REMARK UNBOUND:                -0.510
REMARK  Name = 
REMARK  5 active torsions:
REMARK  status: ('A' for Active; 'I' for Inactive)
REMARK    1  A    between atoms: N_1  and  C_2
REMARK    2  A    between atoms: C_2  and  C_3
REMARK    3  A    between atoms: C_10  and  C_11
REMARK    4  A    between atoms: N_15  and  C_16
REMARK    5  A    between atoms: C_16  and  C_17
REMARK                            x       y       z     vdW  Elec       q    Type
REMARK                         _______ _______ _______ _____ _____    ______ ____
ROOT
ATOM      1  C   UNL     1      49.944   7.615  15.084  0.00  0.00    +0.000 C 
ATOM      2  C   UNL     1      49.809   7.239  13.643  0.00  0.00    +0.000 C 
ATOM      3  N   UNL     1      48.871   6.531  13.083  0.00  0.00    +0.000 NA
ATOM      4  C   UNL     1      47.900   5.973  13.890  0.00  0.00    +0.000 C 
ATOM      5  C   UNL     1      48.049   6.220  15.343  0.00  0.00    +0.000 C 
ATOM      6  C   UNL     1      48.923   7.242  15.871  0.00  0.00    +0.000 C 
ATOM      7  C   UNL     1      47.696   5.243  16.201  0.00  0.00    +0.000 C 
ATOM      8  C   UNL     1      47.602   3.882  15.674  0.00  0.00    +0.000 C 
ATOM      9  C   UNL     1      47.284   3.749  14.371  0.00  0.00    +0.000 C 
ATOM     10  N   UNL     1      47.056   4.870  13.539  0.00  0.00    +0.000 N 
ENDROOT
BRANCH   8  11
ATOM     11  C   UNL     1      48.116   2.795  16.555  0.00  0.00    +0.000 C 
ATOM     12  N   UNL     1      47.548   2.629  17.771  0.00  0.00    +0.000 N 
ATOM     13  O   UNL     1      49.003   2.031  16.181  0.00  0.00    +0.000 OA
ATOM     14  H   UNL     1      46.752   3.148  18.107  0.00  0.00    +0.000 HD
ATOM     15  H   UNL     1      47.859   1.824  18.300  0.00  0.00    +0.000 HD
ENDBRANCH   8  11
BRANCH   1  16
ATOM     16  C   UNL     1      51.235   8.145  15.617  0.00  0.00    +0.000 C 
BRANCH  16  17
ATOM     17  N   UNL     1      52.395   7.396  15.167  0.00  0.00    +0.000 NA
ATOM     18  H   UNL     1      52.175   6.984  14.260  0.00  0.00    +0.000 HD
ATOM     19  H   UNL     1      52.539   6.606  15.794  0.00  0.00    +0.000 HD
ENDBRANCH  16  17
ENDBRANCH   1  16
BRANCH  10  20
ATOM     20  C   UNL     1      45.612   5.250  13.400  0.00  0.00    +0.000 C 
BRANCH  20  21
ATOM     21  C   UNL     1      44.934   4.811  12.118  0.00  0.00    +0.000 A 
ATOM     22  C   UNL     1      45.361   5.298  10.871  0.00  0.00    +0.000 A 
ATOM     23  C   UNL     1      44.846   4.757   9.689  0.00  0.00    +0.000 A 
ATOM     24  C   UNL     1      43.910   3.748   9.791  0.00  0.00    +0.000 A 
ATOM     25  N   UNL     1      43.440   3.276  10.971  0.00  0.00    +0.000 NA
ATOM     26  C   UNL     1      43.968   3.815  12.099  0.00  0.00    +0.000 A 
ENDBRANCH  20  21
ENDBRANCH  10  20
TORSDOF 5
ENDMDL
MODEL 5
REMARK VINA RESULT:    -5.682      2.990      6.328
REMARK INTER + INTRA:          -7.688
REMARK INTER:                  -7.033
REMARK INTRA:                  -0.654
REMARK UNBOUND:                -0.510
REMARK  Name = 
REMARK  5 active torsions:
REMARK  status: ('A' for Active; 'I' for Inactive)
REMARK    1  A    between atoms: N_1  and  C_2
REMARK    2  A    between atoms: C_2  and  C_3
REMARK    3  A    between atoms: C_10  and  C_11
REMARK    4  A    between atoms: N_15  and  C_16
REMARK    5  A    between atoms: C_16  and  C_17
REMARK                            x       y       z     vdW  Elec       q    Type
REMARK                         _______ _______ _______ _____ _____    ______ ____
ROOT
ATOM      1  C   UNL     1      44.301   9.230  11.344  0.00  0.00    +0.000 C 
ATOM      2  C   UNL     1      45.092   9.530  12.577  0.00  0.00    +0.000 C 
ATOM      3  N   UNL     1      45.965   8.772  13.175  0.00  0.00    +0.000 NA
ATOM      4  C   UNL     1      46.165   7.494  12.692  0.00  0.00    +0.000 C 
ATOM      5  C   UNL     1      45.323   7.104  11.537  0.00  0.00    +0.000 C 
ATOM      6  C   UNL     1      44.599   8.069  10.742  0.00  0.00    +0.000 C 
ATOM      7  C   UNL     1      44.892   5.829  11.457  0.00  0.00    +0.000 C 
ATOM      8  C   UNL     1      44.904   5.034  12.683  0.00  0.00    +0.000 C 
ATOM      9  C   UNL     1      45.829   5.350  13.612  0.00  0.00    +0.000 C 
ATOM     10  N   UNL     1      46.749   6.409  13.420  0.00  0.00    +0.000 N 
ENDROOT
BRANCH   8  11
ATOM     11  C   UNL     1      43.738   4.130  12.898  0.00  0.00    +0.000 C 
ATOM     12  N   UNL     1      43.898   2.807  12.667  0.00  0.00    +0.000 N 
ATOM     13  O   UNL     1      42.664   4.557  13.316  0.00  0.00    +0.000 OA
ATOM     14  H   UNL     1      44.772   2.371  12.421  0.00  0.00    +0.000 HD
ATOM     15  H   UNL     1      43.114   2.217  12.913  0.00  0.00    +0.000 HD
ENDBRANCH   8  11
BRANCH   1  16
ATOM     16  C   UNL     1      43.114  10.060  10.978  0.00  0.00    +0.000 C 
BRANCH  16  17
ATOM     17  N   UNL     1      41.868   9.314  10.977  0.00  0.00    +0.000 NA
ATOM     18  H   UNL     1      41.985   8.498  11.578  0.00  0.00    +0.000 HD
ATOM     19  H   UNL     1      41.711   8.940  10.043  0.00  0.00    +0.000 HD
ENDBRANCH  16  17
ENDBRANCH   1  16
BRANCH  10  20
ATOM     20  C   UNL     1      48.078   5.978  12.876  0.00  0.00    +0.000 C 
BRANCH  20  21
ATOM     21  C   UNL     1      49.144   7.054  12.808  0.00  0.00    +0.000 A 
ATOM     22  C   UNL     1      49.493   7.649  11.584  0.00  0.00    +0.000 A 
ATOM     23  C   UNL     1      50.348   8.755  11.557  0.00  0.00    +0.000 A 
ATOM     24  C   UNL     1      50.836   9.228  12.758  0.00  0.00    +0.000 A 
ATOM     25  N   UNL     1      50.558   8.661  13.957  0.00  0.00    +0.000 NA
ATOM     26  C   UNL     1      49.717   7.596  13.950  0.00  0.00    +0.000 A 
ENDBRANCH  20  21
ENDBRANCH  10  20
TORSDOF 5
ENDMDL
MODEL 6
REMARK VINA RESULT:    -5.504      2.301      2.830
REMARK INTER + INTRA:          -7.463
REMARK INTER:                  -6.919
REMARK INTRA:                  -0.544
REMARK UNBOUND:                -0.510
REMARK  Name = 
REMARK  5 active torsions:
REMARK  status: ('A' for Active; 'I' for Inactive)
REMARK    1  A    between atoms: N_1  and  C_2
REMARK    2  A    between atoms: C_2  and  C_3
REMARK    3  A    between atoms: C_10  and  C_11
REMARK    4  A    between atoms: N_15  and  C_16
REMARK    5  A    between atoms: C_16  and  C_17
REMARK                            x       y       z     vdW  Elec       q    Type
REMARK                         _______ _______ _______ _____ _____    ______ ____
ROOT
ATOM      1  C   UNL     1      49.933   7.492  14.318  0.00  0.00    +0.000 C 
ATOM      2  C   UNL     1      48.857   6.630  14.899  0.00  0.00    +0.000 C 
ATOM      3  N   UNL     1      47.721   6.293  14.360  0.00  0.00    +0.000 NA
ATOM      4  C   UNL     1      47.390   6.834  13.134  0.00  0.00    +0.000 C 
ATOM      5  C   UNL     1      48.372   7.785  12.563  0.00  0.00    +0.000 C 
ATOM      6  C   UNL     1      49.726   7.890  13.054  0.00  0.00    +0.000 C 
ATOM      7  C   UNL     1      47.912   8.841  11.863  0.00  0.00    +0.000 C 
ATOM      8  C   UNL     1      46.517   9.228  12.064  0.00  0.00    +0.000 C 
ATOM      9  C   UNL     1      45.653   8.254  12.412  0.00  0.00    +0.000 C 
ATOM     10  N   UNL     1      46.070   6.913  12.586  0.00  0.00    +0.000 N 
ENDROOT
BRANCH   8  11
ATOM     11  C   UNL     1      46.237  10.692  12.117  0.00  0.00    +0.000 C 
ATOM     12  N   UNL     1      47.208  11.516  12.573  0.00  0.00    +0.000 N 
ATOM     13  O   UNL     1      45.173  11.157  11.717  0.00  0.00    +0.000 OA
ATOM     14  H   UNL     1      48.139  11.221  12.823  0.00  0.00    +0.000 HD
ATOM     15  H   UNL     1      47.016  12.507  12.506  0.00  0.00    +0.000 HD
ENDBRANCH   8  11
BRANCH   1  16
ATOM     16  C   UNL     1      51.016   8.048  15.184  0.00  0.00    +0.000 C 
BRANCH  16  17
ATOM     17  N   UNL     1      52.310   7.430  14.957  0.00  0.00    +0.000 NA
ATOM     18  H   UNL     1      52.623   7.014  15.834  0.00  0.00    +0.000 HD
ATOM     19  H   UNL     1      52.990   8.160  14.748  0.00  0.00    +0.000 HD
ENDBRANCH  16  17
ENDBRANCH   1  16
BRANCH  10  20
ATOM     20  C   UNL     1      45.876   6.047  11.377  0.00  0.00    +0.000 C 
BRANCH  20  21
ATOM     21  C   UNL     1      44.936   4.871  11.551  0.00  0.00    +0.000 A 
ATOM     22  C   UNL     1      44.581   4.061  10.459  0.00  0.00    +0.000 A 
ATOM     23  C   UNL     1      43.855   2.883  10.662  0.00  0.00    +0.000 A 
ATOM     24  C   UNL     1      43.499   2.555  11.953  0.00  0.00    +0.000 A 
ATOM     25  N   UNL     1      43.785   3.325  13.030  0.00  0.00    +0.000 NA
ATOM     26  C   UNL     1      44.499   4.456  12.802  0.00  0.00    +0.000 A 
ENDBRANCH  20  21
ENDBRANCH  10  20
TORSDOF 5
ENDMDL
MODEL 7
REMARK VINA RESULT:    -5.204      2.683      6.092
REMARK INTER + INTRA:          -7.084
REMARK INTER:                  -6.651
REMARK INTRA:                  -0.433
REMARK UNBOUND:                -0.510
REMARK  Name = 
REMARK  5 active torsions:
REMARK  status: ('A' for Active; 'I' for Inactive)
REMARK    1  A    between atoms: N_1  and  C_2
REMARK    2  A    between atoms: C_2  and  C_3
REMARK    3  A    between atoms: C_10  and  C_11
REMARK    4  A    between atoms: N_15  and  C_16
REMARK    5  A    between atoms: C_16  and  C_17
REMARK                            x       y       z     vdW  Elec       q    Type
REMARK                         _______ _______ _______ _____ _____    ______ ____
ROOT
ATOM      1  C   UNL     1      44.693   5.667  12.106  0.00  0.00    +0.000 C 
ATOM      2  C   UNL     1      45.567   4.529  12.527  0.00  0.00    +0.000 C 
ATOM      3  N   UNL     1      46.613   4.563  13.302  0.00  0.00    +0.000 NA
ATOM      4  C   UNL     1      47.054   5.790  13.754  0.00  0.00    +0.000 C 
ATOM      5  C   UNL     1      46.290   6.966  13.275  0.00  0.00    +0.000 C 
ATOM      6  C   UNL     1      44.983   6.849  12.670  0.00  0.00    +0.000 C 
ATOM      7  C   UNL     1      46.960   8.108  13.020  0.00  0.00    +0.000 C 
ATOM      8  C   UNL     1      48.404   8.012  12.813  0.00  0.00    +0.000 C 
ATOM      9  C   UNL     1      49.048   7.006  13.437  0.00  0.00    +0.000 C 
ATOM     10  N   UNL     1      48.365   6.073  14.253  0.00  0.00    +0.000 N 
ENDROOT
BRANCH   8  11
ATOM     11  C   UNL     1      48.976   8.869  11.736  0.00  0.00    +0.000 C 
ATOM     12  N   UNL     1      50.129   8.478  11.146  0.00  0.00    +0.000 N 
ATOM     13  O   UNL     1      48.403   9.886  11.352  0.00  0.00    +0.000 OA
ATOM     14  H   UNL     1      50.603   7.609  11.336  0.00  0.00    +0.000 HD
ATOM     15  H   UNL     1      50.435   9.034  10.359  0.00  0.00    +0.000 HD
ENDBRANCH   8  11
BRANCH   1  16
ATOM     16  C   UNL     1      43.741   5.518  10.964  0.00  0.00    +0.000 C 
BRANCH  16  17
ATOM     17  N   UNL     1      42.658   6.484  10.986  0.00  0.00    +0.000 NA
ATOM     18  H   UNL     1      42.633   6.912  11.912  0.00  0.00    +0.000 HD
ATOM     19  H   UNL     1      41.773   5.987  10.896  0.00  0.00    +0.000 HD
ENDBRANCH  16  17
ENDBRANCH   1  16
BRANCH  10  20
ATOM     20  C   UNL     1      48.383   6.407  15.715  0.00  0.00    +0.000 C 
BRANCH  20  21
ATOM     21  C   UNL     1      48.455   5.224  16.661  0.00  0.00    +0.000 A 
ATOM     22  C   UNL     1      47.374   4.337  16.794  0.00  0.00    +0.000 A 
ATOM     23  C   UNL     1      47.514   3.160  17.535  0.00  0.00    +0.000 A 
ATOM     24  C   UNL     1      48.734   2.909  18.128  0.00  0.00    +0.000 A 
ATOM     25  N   UNL     1      49.791   3.754  18.060  0.00  0.00    +0.000 NA
ATOM     26  C   UNL     1      49.625   4.883  17.326  0.00  0.00    +0.000 A 
ENDBRANCH  20  21
ENDBRANCH  10  20
TORSDOF 5
ENDMDL
MODEL 8
REMARK VINA RESULT:    -5.054      3.293      4.780
REMARK INTER + INTRA:          -6.894
REMARK INTER:                  -6.359
REMARK INTRA:                  -0.536
REMARK UNBOUND:                -0.510
REMARK  Name = 
REMARK  5 active torsions:
REMARK  status: ('A' for Active; 'I' for Inactive)
REMARK    1  A    between atoms: N_1  and  C_2
REMARK    2  A    between atoms: C_2  and  C_3
REMARK    3  A    between atoms: C_10  and  C_11
REMARK    4  A    between atoms: N_15  and  C_16
REMARK    5  A    between atoms: C_16  and  C_17
REMARK                            x       y       z     vdW  Elec       q    Type
REMARK                         _______ _______ _______ _____ _____    ______ ____
ROOT
ATOM      1  C   UNL     1      51.002   8.712  12.598  0.00  0.00    +0.000 C 
ATOM      2  C   UNL     1      50.568   7.831  11.470  0.00  0.00    +0.000 C 
ATOM      3  N   UNL     1      49.426   7.225  11.318  0.00  0.00    +0.000 NA
ATOM      4  C   UNL     1      48.495   7.315  12.334  0.00  0.00    +0.000 C 
ATOM      5  C   UNL     1      48.917   8.084  13.528  0.00  0.00    +0.000 C 
ATOM      6  C   UNL     1      50.060   8.968  13.518  0.00  0.00    +0.000 C 
ATOM      7  C   UNL     1      48.501   7.668  14.741  0.00  0.00    +0.000 C 
ATOM      8  C   UNL     1      48.040   6.285  14.858  0.00  0.00    +0.000 C 
ATOM      9  C   UNL     1      47.503   5.721  13.759  0.00  0.00    +0.000 C 
ATOM     10  N   UNL     1      47.393   6.425  12.536  0.00  0.00    +0.000 N 
ENDROOT
BRANCH   8  11
ATOM     11  C   UNL     1      48.441   5.557  16.096  0.00  0.00    +0.000 C 
ATOM     12  N   UNL     1      47.471   5.018  16.869  0.00  0.00    +0.000 N 
ATOM     13  O   UNL     1      49.623   5.403  16.396  0.00  0.00    +0.000 OA
ATOM     14  H   UNL     1      46.490   5.015  16.637  0.00  0.00    +0.000 HD
ATOM     15  H   UNL     1      47.786   4.453  17.646  0.00  0.00    +0.000 HD
ENDBRANCH   8  11
BRANCH   1  16
ATOM     16  C   UNL     1      52.443   9.059  12.786  0.00  0.00    +0.000 C 
BRANCH  16  17
ATOM     17  N   UNL     1      53.186   8.055  13.526  0.00  0.00    +0.000 NA
ATOM     18  H   UNL     1      52.782   7.984  14.460  0.00  0.00    +0.000 HD
ATOM     19  H   UNL     1      54.137   8.390  13.669  0.00  0.00    +0.000 HD
ENDBRANCH  16  17
ENDBRANCH   1  16
BRANCH  10  20
ATOM     20  C   UNL     1      46.059   7.075  12.318  0.00  0.00    +0.000 C 
BRANCH  20  21
ATOM     21  C   UNL     1      44.914   6.138  11.988  0.00  0.00    +0.000 A 
ATOM     22  C   UNL     1      44.877   5.443  10.767  0.00  0.00    +0.000 A 
ATOM     23  C   UNL     1      43.912   4.456  10.547  0.00  0.00    +0.000 A 
ATOM     24  C   UNL     1      43.005   4.199  11.554  0.00  0.00    +0.000 A 
ATOM     25  N   UNL     1      42.978   4.871  12.730  0.00  0.00    +0.000 NA
ATOM     26  C   UNL     1      43.934   5.815  12.917  0.00  0.00    +0.000 A 
ENDBRANCH  20  21
ENDBRANCH  10  20
TORSDOF 5
ENDMDL
MODEL 9
REMARK VINA RESULT:    -4.664      3.391      6.407
REMARK INTER + INTRA:          -6.401
REMARK INTER:                  -5.793
REMARK INTRA:                  -0.609
REMARK UNBOUND:                -0.510
REMARK  Name = 
REMARK  5 active torsions:
REMARK  status: ('A' for Active; 'I' for Inactive)
REMARK    1  A    between atoms: N_1  and  C_2
REMARK    2  A    between atoms: C_2  and  C_3
REMARK    3  A    between atoms: C_10  and  C_11
REMARK    4  A    between atoms: N_15  and  C_16
REMARK    5  A    between atoms: C_16  and  C_17
REMARK                            x       y       z     vdW  Elec       q    Type
REMARK                         _______ _______ _______ _____ _____    ______ ____
ROOT
ATOM      1  C   UNL     1      44.835   5.162  12.510  0.00  0.00    +0.000 C 
ATOM      2  C   UNL     1      44.685   6.589  12.089  0.00  0.00    +0.000 C 
ATOM      3  N   UNL     1      45.619   7.481  11.931  0.00  0.00    +0.000 NA
ATOM      4  C   UNL     1      46.916   7.137  12.252  0.00  0.00    +0.000 C 
ATOM      5  C   UNL     1      47.107   5.767  12.783  0.00  0.00    +0.000 C 
ATOM      6  C   UNL     1      46.099   4.739  12.658  0.00  0.00    +0.000 C 
ATOM      7  C   UNL     1      48.037   5.571  13.738  0.00  0.00    +0.000 C 
ATOM      8  C   UNL     1      48.489   6.741  14.490  0.00  0.00    +0.000 C 
ATOM      9  C   UNL     1      48.446   7.932  13.860  0.00  0.00    +0.000 C 
ATOM     10  N   UNL     1      47.978   8.056  12.530  0.00  0.00    +0.000 N 
ENDROOT
BRANCH   8  11
ATOM     11  C   UNL     1      48.705   6.544  15.952  0.00  0.00    +0.000 C 
ATOM     12  N   UNL     1      47.793   5.826  16.647  0.00  0.00    +0.000 N 
ATOM     13  O   UNL     1      49.706   6.978  16.517  0.00  0.00    +0.000 OA
ATOM     14  H   UNL     1      47.003   5.354  16.236  0.00  0.00    +0.000 HD
ATOM     15  H   UNL     1      48.023   5.635  17.613  0.00  0.00    +0.000 HD
ENDBRANCH   8  11
BRANCH   1  16
ATOM     16  C   UNL     1      43.650   4.370  12.960  0.00  0.00    +0.000 C 
BRANCH  16  17
ATOM     17  N   UNL     1      42.617   5.180  13.580  0.00  0.00    +0.000 NA
ATOM     18  H   UNL     1      41.931   5.421  12.864  0.00  0.00    +0.000 HD
ATOM     19  H   UNL     1      43.025   6.066  13.870  0.00  0.00    +0.000 HD
ENDBRANCH  16  17
ENDBRANCH   1  16
BRANCH  10  20
ATOM     20  C   UNL     1      49.062   8.041  11.493  0.00  0.00    +0.000 C 
BRANCH  20  21
ATOM     21  C   UNL     1      50.077   9.162  11.583  0.00  0.00    +0.000 A 
ATOM     22  C   UNL     1      51.448   8.888  11.729  0.00  0.00    +0.000 A 
ATOM     23  C   UNL     1      52.387   9.919  11.637  0.00  0.00    +0.000 A 
ATOM     24  C   UNL     1      51.925  11.199  11.410  0.00  0.00    +0.000 A 
ATOM     25  N   UNL     1      50.612  11.516  11.304  0.00  0.00    +0.000 NA
ATOM     26  C   UNL     1      49.726  10.491  11.387  0.00  0.00    +0.000 A 
ENDBRANCH  20  21
ENDBRANCH  10  20
TORSDOF 5
ENDMDL
