MODEL 1
REMARK VINA RESULT:    -8.870      0.000      0.000
REMARK INTER + INTRA:         -11.742
REMARK INTER:                 -11.463
REMARK INTRA:                  -0.279
REMARK UNBOUND:                -0.279
REMARK  Name = 
REMARK  5 active torsions:
REMARK  status: ('A' for Active; 'I' for Inactive)
REMARK    1  A    between atoms: C_2  and  C_3
REMARK    2  A    between atoms: C_6  and  N_7
REMARK    3  A    between atoms: N_7  and  C_8
REMARK    4  A    between atoms: C_8  and  C_9
REMARK    5  A    between atoms: C_13  and  C_14
REMARK                            x       y       z     vdW  Elec       q    Type
REMARK                         _______ _______ _______ _____ _____    ______ ____
ROOT
ATOM      1  C   UNL     1      44.078   4.841  11.490  0.00  0.00    +0.000 C 
ATOM      2  C   UNL     1      43.359   3.782  12.324  0.00  0.00    +0.000 C 
ATOM      3  C   UNL     1      42.869   5.191  12.338  0.00  0.00    +0.000 C 
ENDROOT
BRANCH   1   4
ATOM      4  C   UNL     1      45.426   5.330  12.014  0.00  0.00    +0.000 A 
ATOM      5  C   UNL     1      46.140   6.325  11.331  0.00  0.00    +0.000 A 
ATOM      6  C   UNL     1      47.240   6.947  11.910  0.00  0.00    +0.000 A 
ATOM      7  C   UNL     1      47.672   6.558  13.178  0.00  0.00    +0.000 A 
ATOM      8  C   UNL     1      47.045   5.513  13.875  0.00  0.00    +0.000 A 
ATOM      9  C   UNL     1      45.932   4.908  13.262  0.00  0.00    +0.000 A 
BRANCH   8  10
ATOM     10  C   UNL     1      47.520   5.090  15.214  0.00  0.00    +0.000 A 
ATOM     11  C   UNL     1      48.524   5.807  15.897  0.00  0.00    +0.000 A 
ATOM     12  C   UNL     1      49.003   5.396  17.146  0.00  0.00    +0.000 A 
ATOM     13  C   UNL     1      48.473   4.262  17.752  0.00  0.00    +0.000 A 
ATOM     14  C   UNL     1      47.470   3.555  17.104  0.00  0.00    +0.000 A 
ATOM     15  F   UNL     1      46.952   2.467  17.687  0.00  0.00    +0.000 F 
ATOM     16  C   UNL     1      46.998   3.952  15.854  0.00  0.00    +0.000 A 
ENDBRANCH   8  10
ENDBRANCH   1   4
BRANCH   1  17
ATOM     17  N   UNL     1      43.991   4.638  10.050  0.00  0.00    +0.000 N 
ATOM     18  H   UNL     1      43.126   4.853   9.560  0.00  0.00    +0.000 HD
BRANCH  17  22
ATOM     19  C   UNL     1      46.581   2.627   7.579  0.00  0.00    +0.000 A 
ATOM     20  C   UNL     1      46.404   3.996   7.527  0.00  0.00    +0.000 A 
ATOM     21  N   UNL     1      45.529   4.652   8.336  0.00  0.00    +0.000 NA
ATOM     22  C   UNL     1      44.826   3.905   9.214  0.00  0.00    +0.000 A 
ATOM     23  C   UNL     1      45.010   2.526   9.253  0.00  0.00    +0.000 A 
ATOM     24  N   UNL     1      45.881   1.854   8.441  0.00  0.00    +0.000 NA
BRANCH  19  26
ATOM     25  N   UNL     1      48.338   1.512   6.023  0.00  0.00    +0.000 NA
ATOM     26  C   UNL     1      47.543   1.981   6.725  0.00  0.00    +0.000 C 
ENDBRANCH  19  26
ENDBRANCH  17  22
ENDBRANCH   1  17
TORSDOF 5
ENDMDL
MODEL 2
REMARK VINA RESULT:    -8.673      2.665      4.089
REMARK INTER + INTRA:         -11.486
REMARK INTER:                 -10.538
REMARK INTRA:                  -0.949
REMARK UNBOUND:                -0.279
REMARK  Name = 
REMARK  5 active torsions:
REMARK  status: ('A' for Active; 'I' for Inactive)
REMARK    1  A    between atoms: C_2  and  C_3
REMARK    2  A    between atoms: C_6  and  N_7
REMARK    3  A    between atoms: N_7  and  C_8
REMARK    4  A    between atoms: C_8  and  C_9
REMARK    5  A    between atoms: C_13  and  C_14
REMARK                            x       y       z     vdW  Elec       q    Type
REMARK                         _______ _______ _______ _____ _____    ______ ____
ROOT
ATOM      1  C   UNL     1      43.846   5.020  11.277  0.00  0.00    +0.000 C 
ATOM      2  C   UNL     1      42.509   5.237  11.984  0.00  0.00    +0.000 C 
ATOM      3  C   UNL     1      42.991   6.242  10.994  0.00  0.00    +0.000 C 
ENDROOT
BRANCH   1   4
ATOM      4  C   UNL     1      45.107   5.264  12.102  0.00  0.00    +0.000 A 
ATOM      5  C   UNL     1      45.538   4.321  13.045  0.00  0.00    +0.000 A 
ATOM      6  C   UNL     1      46.797   4.411  13.629  0.00  0.00    +0.000 A 
ATOM      7  C   UNL     1      47.640   5.473  13.305  0.00  0.00    +0.000 A 
ATOM      8  C   UNL     1      47.230   6.491  12.428  0.00  0.00    +0.000 A 
ATOM      9  C   UNL     1      45.952   6.367  11.852  0.00  0.00    +0.000 A 
BRANCH   8  10
ATOM     10  C   UNL     1      48.122   7.629  12.102  0.00  0.00    +0.000 A 
ATOM     11  C   UNL     1      47.644   8.956  12.091  0.00  0.00    +0.000 A 
ATOM     12  C   UNL     1      48.470  10.033  11.750  0.00  0.00    +0.000 A 
ATOM     13  C   UNL     1      49.803   9.809  11.428  0.00  0.00    +0.000 A 
ATOM     14  C   UNL     1      50.296   8.513  11.453  0.00  0.00    +0.000 A 
ATOM     15  F   UNL     1      51.583   8.293  11.151  0.00  0.00    +0.000 F 
ATOM     16  C   UNL     1      49.476   7.433  11.779  0.00  0.00    +0.000 A 
ENDBRANCH   8  10
ENDBRANCH   1   4
BRANCH   1  17
ATOM     17  N   UNL     1      43.880   3.867  10.388  0.00  0.00    +0.000 N 
ATOM     18  H   UNL     1      43.280   3.066  10.574  0.00  0.00    +0.000 HD
BRANCH  17  22
ATOM     19  C   UNL     1      46.594   2.671   7.549  0.00  0.00    +0.000 A 
ATOM     20  C   UNL     1      45.969   1.789   8.409  0.00  0.00    +0.000 A 
ATOM     21  N   UNL     1      45.086   2.196   9.360  0.00  0.00    +0.000 NA
ATOM     22  C   UNL     1      44.831   3.520   9.436  0.00  0.00    +0.000 A 
ATOM     23  C   UNL     1      45.471   4.399   8.567  0.00  0.00    +0.000 A 
ATOM     24  N   UNL     1      46.366   4.003   7.612  0.00  0.00    +0.000 NA
BRANCH  19  26
ATOM     25  N   UNL     1      48.267   1.805   5.760  0.00  0.00    +0.000 NA
ATOM     26  C   UNL     1      47.497   2.190   6.537  0.00  0.00    +0.000 C 
ENDBRANCH  19  26
ENDBRANCH  17  22
ENDBRANCH   1  17
TORSDOF 5
ENDMDL
MODEL 3
REMARK VINA RESULT:    -8.219      3.646      7.510
REMARK INTER + INTRA:         -10.901
REMARK INTER:                 -10.131
REMARK INTRA:                  -0.770
REMARK UNBOUND:                -0.279
REMARK  Name = 
REMARK  5 active torsions:
REMARK  status: ('A' for Active; 'I' for Inactive)
REMARK    1  A    between atoms: C_2  and  C_3
REMARK    2  A    between atoms: C_6  and  N_7
REMARK    3  A    between atoms: N_7  and  C_8
REMARK    4  A    between atoms: C_8  and  C_9
REMARK    5  A    between atoms: C_13  and  C_14
REMARK                            x       y       z     vdW  Elec       q    Type
REMARK                         _______ _______ _______ _____ _____    ______ ____
ROOT
ATOM      1  C   UNL     1      46.205   7.110  12.374  0.00  0.00    +0.000 C 
ATOM      2  C   UNL     1      46.322   8.494  11.738  0.00  0.00    +0.000 C 
ATOM      3  C   UNL     1      45.469   8.307  12.946  0.00  0.00    +0.000 C 
ENDROOT
BRANCH   1   4
ATOM      4  C   UNL     1      45.344   6.086  11.639  0.00  0.00    +0.000 A 
ATOM      5  C   UNL     1      43.952   6.070  11.807  0.00  0.00    +0.000 A 
ATOM      6  C   UNL     1      43.135   5.312  10.975  0.00  0.00    +0.000 A 
ATOM      7  C   UNL     1      43.702   4.522   9.976  0.00  0.00    +0.000 A 
ATOM      8  C   UNL     1      45.094   4.436   9.812  0.00  0.00    +0.000 A 
ATOM      9  C   UNL     1      45.891   5.220  10.668  0.00  0.00    +0.000 A 
BRANCH   8  10
ATOM     10  C   UNL     1      45.693   3.580   8.760  0.00  0.00    +0.000 A 
ATOM     11  C   UNL     1      46.247   4.137   7.589  0.00  0.00    +0.000 A 
ATOM     12  C   UNL     1      46.783   3.336   6.575  0.00  0.00    +0.000 A 
ATOM     13  C   UNL     1      46.793   1.953   6.718  0.00  0.00    +0.000 A 
ATOM     14  C   UNL     1      46.271   1.388   7.872  0.00  0.00    +0.000 A 
ATOM     15  F   UNL     1      46.285   0.057   8.017  0.00  0.00    +0.000 F 
ATOM     16  C   UNL     1      45.723   2.180   8.880  0.00  0.00    +0.000 A 
ENDBRANCH   8  10
ENDBRANCH   1   4
BRANCH   1  17
ATOM     17  N   UNL     1      47.442   6.602  12.952  0.00  0.00    +0.000 N 
ATOM     18  H   UNL     1      48.303   6.630  12.409  0.00  0.00    +0.000 HD
BRANCH  17  22
ATOM     19  C   UNL     1      47.985   4.368  16.353  0.00  0.00    +0.000 A 
ATOM     20  C   UNL     1      48.551   5.615  16.176  0.00  0.00    +0.000 A 
ATOM     21  N   UNL     1      48.383   6.340  15.037  0.00  0.00    +0.000 NA
ATOM     22  C   UNL     1      47.623   5.791  14.065  0.00  0.00    +0.000 A 
ATOM     23  C   UNL     1      47.061   4.531  14.255  0.00  0.00    +0.000 A 
ATOM     24  N   UNL     1      47.229   3.790  15.391  0.00  0.00    +0.000 NA
BRANCH  19  26
ATOM     25  N   UNL     1      48.259   3.049  18.575  0.00  0.00    +0.000 NA
ATOM     26  C   UNL     1      48.165   3.652  17.588  0.00  0.00    +0.000 C 
ENDBRANCH  19  26
ENDBRANCH  17  22
ENDBRANCH   1  17
TORSDOF 5
ENDMDL
MODEL 4
REMARK VINA RESULT:    -7.223      4.384      8.182
REMARK INTER + INTRA:          -9.613
REMARK INTER:                  -8.761
REMARK INTRA:                  -0.852
REMARK UNBOUND:                -0.279
REMARK  Name = 
REMARK  5 active torsions:
REMARK  status: ('A' for Active; 'I' for Inactive)
REMARK    1  A    between atoms: C_2  and  C_3
REMARK    2  A    between atoms: C_6  and  N_7
REMARK    3  A    between atoms: N_7  and  C_8
REMARK    4  A    between atoms: C_8  and  C_9
REMARK    5  A    between atoms: C_13  and  C_14
REMARK                            x       y       z     vdW  Elec       q    Type
REMARK                         _______ _______ _______ _____ _____    ______ ____
ROOT
ATOM      1  C   UNL     1      48.892   7.850  12.799  0.00  0.00    +0.000 C 
ATOM      2  C   UNL     1      49.830   8.126  11.625  0.00  0.00    +0.000 C 
ATOM      3  C   UNL     1      49.426   9.244  12.525  0.00  0.00    +0.000 C 
ENDROOT
BRANCH   1   4
ATOM      4  C   UNL     1      47.421   7.621  12.464  0.00  0.00    +0.000 A 
ATOM      5  C   UNL     1      46.470   8.624  12.699  0.00  0.00    +0.000 A 
ATOM      6  C   UNL     1      45.180   8.527  12.187  0.00  0.00    +0.000 A 
ATOM      7  C   UNL     1      44.804   7.401  11.457  0.00  0.00    +0.000 A 
ATOM      8  C   UNL     1      45.689   6.329  11.258  0.00  0.00    +0.000 A 
ATOM      9  C   UNL     1      46.988   6.462  11.786  0.00  0.00    +0.000 A 
BRANCH   8  10
ATOM     10  C   UNL     1      45.279   5.125  10.497  0.00  0.00    +0.000 A 
ATOM     11  C   UNL     1      44.548   4.085  11.109  0.00  0.00    +0.000 A 
ATOM     12  C   UNL     1      44.186   2.928  10.408  0.00  0.00    +0.000 A 
ATOM     13  C   UNL     1      44.534   2.793   9.069  0.00  0.00    +0.000 A 
ATOM     14  C   UNL     1      45.236   3.815   8.446  0.00  0.00    +0.000 A 
ATOM     15  F   UNL     1      45.566   3.692   7.154  0.00  0.00    +0.000 F 
ATOM     16  C   UNL     1      45.610   4.963   9.141  0.00  0.00    +0.000 A 
ENDBRANCH   8  10
ENDBRANCH   1   4
BRANCH   1  17
ATOM     17  N   UNL     1      49.451   6.987  13.831  0.00  0.00    +0.000 N 
ATOM     18  H   UNL     1      50.070   6.223  13.570  0.00  0.00    +0.000 HD
BRANCH  17  22
ATOM     19  C   UNL     1      48.364   6.348  17.737  0.00  0.00    +0.000 A 
ATOM     20  C   UNL     1      48.362   5.348  16.784  0.00  0.00    +0.000 A 
ATOM     21  N   UNL     1      48.704   5.573  15.487  0.00  0.00    +0.000 NA
ATOM     22  C   UNL     1      49.058   6.833  15.155  0.00  0.00    +0.000 A 
ATOM     23  C   UNL     1      49.052   7.833  16.124  0.00  0.00    +0.000 A 
ATOM     24  N   UNL     1      48.702   7.621  17.428  0.00  0.00    +0.000 NA
BRANCH  19  26
ATOM     25  N   UNL     1      47.806   5.827  20.221  0.00  0.00    +0.000 NA
ATOM     26  C   UNL     1      48.024   6.055  19.105  0.00  0.00    +0.000 C 
ENDBRANCH  19  26
ENDBRANCH  17  22
ENDBRANCH   1  17
TORSDOF 5
ENDMDL
MODEL 5
REMARK VINA RESULT:    -6.923      2.673      4.547
REMARK INTER + INTRA:          -9.225
REMARK INTER:                  -8.462
REMARK INTRA:                  -0.763
REMARK UNBOUND:                -0.279
REMARK  Name = 
REMARK  5 active torsions:
REMARK  status: ('A' for Active; 'I' for Inactive)
REMARK    1  A    between atoms: C_2  and  C_3
REMARK    2  A    between atoms: C_6  and  N_7
REMARK    3  A    between atoms: N_7  and  C_8
REMARK    4  A    between atoms: C_8  and  C_9
REMARK    5  A    between atoms: C_13  and  C_14
REMARK                            x       y       z     vdW  Elec       q    Type
REMARK                         _______ _______ _______ _____ _____    ______ ____
ROOT
ATOM      1  C   UNL     1      48.054   8.165  12.491  0.00  0.00    +0.000 C 
ATOM      2  C   UNL     1      48.733   9.261  11.672  0.00  0.00    +0.000 C 
ATOM      3  C   UNL     1      49.179   7.846  11.524  0.00  0.00    +0.000 C 
ENDROOT
BRANCH   1   4
ATOM      4  C   UNL     1      48.408   8.094  13.974  0.00  0.00    +0.000 A 
ATOM      5  C   UNL     1      48.397   9.250  14.767  0.00  0.00    +0.000 A 
ATOM      6  C   UNL     1      48.484   9.172  16.153  0.00  0.00    +0.000 A 
ATOM      7  C   UNL     1      48.619   7.932  16.773  0.00  0.00    +0.000 A 
ATOM      8  C   UNL     1      48.717   6.747  16.026  0.00  0.00    +0.000 A 
ATOM      9  C   UNL     1      48.622   6.861  14.626  0.00  0.00    +0.000 A 
BRANCH   8  10
ATOM     10  C   UNL     1      48.881   5.431  16.689  0.00  0.00    +0.000 A 
ATOM     11  C   UNL     1      50.138   4.999  17.160  0.00  0.00    +0.000 A 
ATOM     12  C   UNL     1      50.310   3.744  17.756  0.00  0.00    +0.000 A 
ATOM     13  C   UNL     1      49.219   2.897  17.910  0.00  0.00    +0.000 A 
ATOM     14  C   UNL     1      47.971   3.313  17.471  0.00  0.00    +0.000 A 
ATOM     15  F   UNL     1      46.916   2.502  17.625  0.00  0.00    +0.000 F 
ATOM     16  C   UNL     1      47.795   4.556  16.865  0.00  0.00    +0.000 A 
ENDBRANCH   8  10
ENDBRANCH   1   4
BRANCH   1  17
ATOM     17  N   UNL     1      46.652   7.944  12.161  0.00  0.00    +0.000 N 
ATOM     18  H   UNL     1      45.984   8.705  12.256  0.00  0.00    +0.000 HD
BRANCH  17  22
ATOM     19  C   UNL     1      44.487   4.476  11.784  0.00  0.00    +0.000 A 
ATOM     20  C   UNL     1      44.494   5.235  12.938  0.00  0.00    +0.000 A 
ATOM     21  N   UNL     1      45.230   6.373  13.061  0.00  0.00    +0.000 NA
ATOM     22  C   UNL     1      45.968   6.746  11.994  0.00  0.00    +0.000 A 
ATOM     23  C   UNL     1      45.956   5.969  10.838  0.00  0.00    +0.000 A 
ATOM     24  N   UNL     1      45.227   4.821  10.705  0.00  0.00    +0.000 NA
BRANCH  19  26
ATOM     25  N   UNL     1      43.054   2.317  11.599  0.00  0.00    +0.000 NA
ATOM     26  C   UNL     1      43.667   3.297  11.689  0.00  0.00    +0.000 C 
ENDBRANCH  19  26
ENDBRANCH  17  22
ENDBRANCH   1  17
TORSDOF 5
ENDMDL
MODEL 6
REMARK VINA RESULT:    -6.918      4.989      7.997
REMARK INTER + INTRA:          -9.219
REMARK INTER:                  -8.680
REMARK INTRA:                  -0.539
REMARK UNBOUND:                -0.279
REMARK  Name = 
REMARK  5 active torsions:
REMARK  status: ('A' for Active; 'I' for Inactive)
REMARK    1  A    between atoms: C_2  and  C_3
REMARK    2  A    between atoms: C_6  and  N_7
REMARK    3  A    between atoms: N_7  and  C_8
REMARK    4  A    between atoms: C_8  and  C_9
REMARK    5  A    between atoms: C_13  and  C_14
REMARK                            x       y       z     vdW  Elec       q    Type
REMARK                         _______ _______ _______ _____ _____    ______ ____
ROOT
ATOM      1  C   UNL     1      48.167   4.608  16.956  0.00  0.00    +0.000 C 
ATOM      2  C   UNL     1      47.147   4.820  18.073  0.00  0.00    +0.000 C 
ATOM      3  C   UNL     1      47.171   3.526  17.333  0.00  0.00    +0.000 C 
ENDROOT
BRANCH   1   4
ATOM      4  C   UNL     1      47.902   5.329  15.637  0.00  0.00    +0.000 A 
ATOM      5  C   UNL     1      48.727   6.384  15.222  0.00  0.00    +0.000 A 
ATOM      6  C   UNL     1      48.649   6.891  13.928  0.00  0.00    +0.000 A 
ATOM      7  C   UNL     1      47.715   6.373  13.033  0.00  0.00    +0.000 A 
ATOM      8  C   UNL     1      46.809   5.371  13.418  0.00  0.00    +0.000 A 
ATOM      9  C   UNL     1      46.918   4.878  14.732  0.00  0.00    +0.000 A 
BRANCH   8  10
ATOM     10  C   UNL     1      45.804   4.837  12.468  0.00  0.00    +0.000 A 
ATOM     11  C   UNL     1      45.601   5.430  11.205  0.00  0.00    +0.000 A 
ATOM     12  C   UNL     1      44.631   4.955  10.315  0.00  0.00    +0.000 A 
ATOM     13  C   UNL     1      43.851   3.858  10.663  0.00  0.00    +0.000 A 
ATOM     14  C   UNL     1      44.051   3.249  11.894  0.00  0.00    +0.000 A 
ATOM     15  F   UNL     1      43.306   2.187  12.230  0.00  0.00    +0.000 F 
ATOM     16  C   UNL     1      45.006   3.725  12.790  0.00  0.00    +0.000 A 
ENDBRANCH   8  10
ENDBRANCH   1   4
BRANCH   1  17
ATOM     17  N   UNL     1      49.554   4.583  17.400  0.00  0.00    +0.000 N 
ATOM     18  H   UNL     1      50.067   5.456  17.507  0.00  0.00    +0.000 HD
BRANCH  17  22
ATOM     19  C   UNL     1      52.259   1.509  17.696  0.00  0.00    +0.000 A 
ATOM     20  C   UNL     1      52.549   2.803  18.079  0.00  0.00    +0.000 A 
ATOM     21  N   UNL     1      51.654   3.820  17.959  0.00  0.00    +0.000 NA
ATOM     22  C   UNL     1      50.443   3.516  17.445  0.00  0.00    +0.000 A 
ATOM     23  C   UNL     1      50.164   2.208  17.058  0.00  0.00    +0.000 A 
ATOM     24  N   UNL     1      51.058   1.179  17.166  0.00  0.00    +0.000 NA
BRANCH  19  26
ATOM     25  N   UNL     1      54.009  -0.375  18.070  0.00  0.00    +0.000 NA
ATOM     26  C   UNL     1      53.228   0.460  17.871  0.00  0.00    +0.000 C 
ENDBRANCH  19  26
ENDBRANCH  17  22
ENDBRANCH   1  17
TORSDOF 5
ENDMDL
MODEL 7
REMARK VINA RESULT:    -6.142      4.275      7.800
REMARK INTER + INTRA:          -8.216
REMARK INTER:                  -7.377
REMARK INTRA:                  -0.838
REMARK UNBOUND:                -0.279
REMARK  Name = 
REMARK  5 active torsions:
REMARK  status: ('A' for Active; 'I' for Inactive)
REMARK    1  A    between atoms: C_2  and  C_3
REMARK    2  A    between atoms: C_6  and  N_7
REMARK    3  A    between atoms: N_7  and  C_8
REMARK    4  A    between atoms: C_8  and  C_9
REMARK    5  A    between atoms: C_13  and  C_14
REMARK                            x       y       z     vdW  Elec       q    Type
REMARK                         _______ _______ _______ _____ _____    ______ ____
ROOT
ATOM      1  C   UNL     1      49.628   8.524  12.499  0.00  0.00    +0.000 C 
ATOM      2  C   UNL     1      50.357   7.747  11.404  0.00  0.00    +0.000 C 
ATOM      3  C   UNL     1      50.343   9.238  11.366  0.00  0.00    +0.000 C 
ENDROOT
BRANCH   1   4
ATOM      4  C   UNL     1      48.103   8.533  12.437  0.00  0.00    +0.000 A 
ATOM      5  C   UNL     1      47.398   9.743  12.376  0.00  0.00    +0.000 A 
ATOM      6  C   UNL     1      46.038   9.769  12.081  0.00  0.00    +0.000 A 
ATOM      7  C   UNL     1      45.348   8.576  11.877  0.00  0.00    +0.000 A 
ATOM      8  C   UNL     1      45.984   7.331  12.004  0.00  0.00    +0.000 A 
ATOM      9  C   UNL     1      47.361   7.340  12.299  0.00  0.00    +0.000 A 
BRANCH   8  10
ATOM     10  C   UNL     1      45.241   6.064  11.805  0.00  0.00    +0.000 A 
ATOM     11  C   UNL     1      45.273   5.381  10.571  0.00  0.00    +0.000 A 
ATOM     12  C   UNL     1      44.547   4.203  10.362  0.00  0.00    +0.000 A 
ATOM     13  C   UNL     1      43.783   3.669  11.394  0.00  0.00    +0.000 A 
ATOM     14  C   UNL     1      43.756   4.316  12.620  0.00  0.00    +0.000 A 
ATOM     15  F   UNL     1      43.027   3.800  13.619  0.00  0.00    +0.000 F 
ATOM     16  C   UNL     1      44.466   5.496  12.831  0.00  0.00    +0.000 A 
ENDBRANCH   8  10
ENDBRANCH   1   4
BRANCH   1  17
ATOM     17  N   UNL     1      50.209   8.386  13.828  0.00  0.00    +0.000 N 
ATOM     18  H   UNL     1      51.220   8.409  13.942  0.00  0.00    +0.000 HD
BRANCH  17  22
ATOM     19  C   UNL     1      48.599   6.877  17.289  0.00  0.00    +0.000 A 
ATOM     20  C   UNL     1      49.101   6.075  16.284  0.00  0.00    +0.000 A 
ATOM     21  N   UNL     1      49.615   6.583  15.131  0.00  0.00    +0.000 NA
ATOM     22  C   UNL     1      49.622   7.927  15.000  0.00  0.00    +0.000 A 
ATOM     23  C   UNL     1      49.107   8.724  16.020  0.00  0.00    +0.000 A 
ATOM     24  N   UNL     1      48.582   8.225  17.179  0.00  0.00    +0.000 NA
BRANCH  19  26
ATOM     25  N   UNL     1      47.651   5.870  19.489  0.00  0.00    +0.000 NA
ATOM     26  C   UNL     1      48.095   6.295  18.505  0.00  0.00    +0.000 C 
ENDBRANCH  19  26
ENDBRANCH  17  22
ENDBRANCH   1  17
TORSDOF 5
ENDMDL
MODEL 8
REMARK VINA RESULT:    -6.089      4.747      7.249
REMARK INTER + INTRA:          -8.148
REMARK INTER:                  -7.445
REMARK INTRA:                  -0.703
REMARK UNBOUND:                -0.279
REMARK  Name = 
REMARK  5 active torsions:
REMARK  status: ('A' for Active; 'I' for Inactive)
REMARK    1  A    between atoms: C_2  and  C_3
REMARK    2  A    between atoms: C_6  and  N_7
REMARK    3  A    between atoms: N_7  and  C_8
REMARK    4  A    between atoms: C_8  and  C_9
REMARK    5  A    between atoms: C_13  and  C_14
REMARK                            x       y       z     vdW  Elec       q    Type
REMARK                         _______ _______ _______ _____ _____    ______ ____
ROOT
ATOM      1  C   UNL     1      48.529   8.067  13.353  0.00  0.00    +0.000 C 
ATOM      2  C   UNL     1      48.635   8.268  14.864  0.00  0.00    +0.000 C 
ATOM      3  C   UNL     1      49.061   6.972  14.261  0.00  0.00    +0.000 C 
ENDROOT
BRANCH   1   4
ATOM      4  C   UNL     1      47.131   7.842  12.785  0.00  0.00    +0.000 A 
ATOM      5  C   UNL     1      46.176   8.868  12.812  0.00  0.00    +0.000 A 
ATOM      6  C   UNL     1      44.988   8.764  12.095  0.00  0.00    +0.000 A 
ATOM      7  C   UNL     1      44.717   7.610  11.361  0.00  0.00    +0.000 A 
ATOM      8  C   UNL     1      45.600   6.518  11.362  0.00  0.00    +0.000 A 
ATOM      9  C   UNL     1      46.794   6.658  12.095  0.00  0.00    +0.000 A 
BRANCH   8  10
ATOM     10  C   UNL     1      45.298   5.285  10.597  0.00  0.00    +0.000 A 
ATOM     11  C   UNL     1      44.639   4.192  11.196  0.00  0.00    +0.000 A 
ATOM     12  C   UNL     1      44.381   3.011  10.492  0.00  0.00    +0.000 A 
ATOM     13  C   UNL     1      44.763   2.902   9.160  0.00  0.00    +0.000 A 
ATOM     14  C   UNL     1      45.395   3.974   8.547  0.00  0.00    +0.000 A 
ATOM     15  F   UNL     1      45.758   3.876   7.262  0.00  0.00    +0.000 F 
ATOM     16  C   UNL     1      45.667   5.148   9.247  0.00  0.00    +0.000 A 
ENDBRANCH   8  10
ENDBRANCH   1   4
BRANCH   1  17
ATOM     17  N   UNL     1      49.406   8.924  12.566  0.00  0.00    +0.000 N 
ATOM     18  H   UNL     1      49.059   9.811  12.209  0.00  0.00    +0.000 HD
BRANCH  17  22
ATOM     19  C   UNL     1      52.859   7.961  10.565  0.00  0.00    +0.000 A 
ATOM     20  C   UNL     1      51.662   7.306  10.355  0.00  0.00    +0.000 A 
ATOM     21  N   UNL     1      50.527   7.618  11.037  0.00  0.00    +0.000 NA
ATOM     22  C   UNL     1      50.609   8.614  11.944  0.00  0.00    +0.000 A 
ATOM     23  C   UNL     1      51.823   9.264  12.150  0.00  0.00    +0.000 A 
ATOM     24  N   UNL     1      52.972   8.955  11.477  0.00  0.00    +0.000 NA
BRANCH  19  26
ATOM     25  N   UNL     1      54.961   7.286   9.196  0.00  0.00    +0.000 NA
ATOM     26  C   UNL     1      54.026   7.618   9.797  0.00  0.00    +0.000 C 
ENDBRANCH  19  26
ENDBRANCH  17  22
ENDBRANCH   1  17
TORSDOF 5
ENDMDL
