MODEL 1
REMARK VINA RESULT:    -7.654      0.000      0.000
REMARK INTER + INTRA:         -11.925
REMARK INTER:                 -10.786
REMARK INTRA:                  -1.140
REMARK UNBOUND:                -1.140
REMARK  Name = 
REMARK  7 active torsions:
REMARK  status: ('A' for Active; 'I' for Inactive)
REMARK    1  A    between atoms: C_2  and  C_20
REMARK    2  A    between atoms: N_3  and  C_4
REMARK    3  A    between atoms: C_4  and  C_5
REMARK    4  A    between atoms: C_8  and  C_9
REMARK    5  A    between atoms: C_9  and  N_10
REMARK    6  A    between atoms: N_10  and  C_11
REMARK    7  A    between atoms: C_11  and  C_12
REMARK                            x       y       z     vdW  Elec       q    Type
REMARK                         _______ _______ _______ _____ _____    ______ ____
ROOT
ATOM      1  C   UNL     1      45.930   6.221  12.260  0.00  0.00    +0.000 A 
ATOM      2  C   UNL     1      45.660   5.075  13.013  0.00  0.00    +0.000 A 
ATOM      3  C   UNL     1      45.039   3.967  12.427  0.00  0.00    +0.000 A 
ATOM      4  C   UNL     1      44.653   3.980  11.078  0.00  0.00    +0.000 A 
ATOM      5  C   UNL     1      44.965   5.115  10.314  0.00  0.00    +0.000 A 
ATOM      6  C   UNL     1      45.602   6.221  10.897  0.00  0.00    +0.000 A 
ENDROOT
BRANCH   1   7
ATOM      7  C   UNL     1      46.564   7.421  12.914  0.00  0.00    +0.000 C 
BRANCH   7  10
ATOM      8  O   UNL     1      49.093   6.277  13.453  0.00  0.00    +0.000 OA
ATOM      9  C   UNL     1      48.365   6.584  14.388  0.00  0.00    +0.000 C 
ATOM     10  N   UNL     1      47.110   7.109  14.210  0.00  0.00    +0.000 N 
ATOM     11  H   UNL     1      46.608   7.483  15.005  0.00  0.00    +0.000 HD
BRANCH   9  12
ATOM     12  C   UNL     1      48.771   6.355  15.783  0.00  0.00    +0.000 A 
ATOM     13  C   UNL     1      49.444   7.346  16.482  0.00  0.00    +0.000 A 
ATOM     14  S   UNL     1      49.814   6.914  18.091  0.00  0.00    +0.000 S 
ATOM     15  C   UNL     1      49.055   5.402  17.918  0.00  0.00    +0.000 A 
ATOM     16  N   UNL     1      48.973   4.533  18.964  0.00  0.00    +0.000 NA
ATOM     17  C   UNL     1      48.333   3.442  18.705  0.00  0.00    +0.000 A 
ATOM     18  N   UNL     1      47.783   3.131  17.486  0.00  0.00    +0.000 N 
ATOM     19  C   UNL     1      47.926   3.932  16.380  0.00  0.00    +0.000 A 
ATOM     20  O   UNL     1      47.583   3.540  15.268  0.00  0.00    +0.000 OA
ATOM     21  C   UNL     1      48.567   5.209  16.637  0.00  0.00    +0.000 A 
ATOM     22  H   UNL     1      47.339   2.239  17.332  0.00  0.00    +0.000 HD
ENDBRANCH   9  12
ENDBRANCH   7  10
ENDBRANCH   1   7
BRANCH   4  23
ATOM     23  C   UNL     1      43.966   2.782  10.440  0.00  0.00    +0.000 C 
BRANCH  23  24
ATOM     24  N   UNL     1      44.038   2.842   8.979  0.00  0.00    +0.000 NA
ATOM     25  H   UNL     1      44.420   3.746   8.715  0.00  0.00    +0.000 HD
BRANCH  24  26
ATOM     26  C   UNL     1      44.836   1.770   8.379  0.00  0.00    +0.000 C 
BRANCH  26  27
ATOM     27  C   UNL     1      46.321   2.208   8.318  0.00  0.00    +0.000 C 
ATOM     28  C   UNL     1      46.544   3.529   7.558  0.00  0.00    +0.000 C 
ATOM     29  C   UNL     1      46.523   3.357   6.040  0.00  0.00    +0.000 C 
ATOM     30  C   UNL     1      47.382   2.184   5.575  0.00  0.00    +0.000 C 
ATOM     31  N   UNL     1      47.045   0.948   6.282  0.00  0.00    +0.000 NA
ATOM     32  C   UNL     1      47.221   1.111   7.726  0.00  0.00    +0.000 C 
ATOM     33  H   UNL     1      47.663   0.205   5.953  0.00  0.00    +0.000 HD
ENDBRANCH  26  27
ENDBRANCH  24  26
ENDBRANCH  23  24
ENDBRANCH   4  23
TORSDOF 7
ENDMDL
MODEL 2
REMARK VINA RESULT:    -7.093      1.843      2.474
REMARK INTER + INTRA:         -11.135
REMARK INTER:                 -10.329
REMARK INTRA:                  -0.806
REMARK UNBOUND:                -1.140
REMARK  Name = 
REMARK  7 active torsions:
REMARK  status: ('A' for Active; 'I' for Inactive)
REMARK    1  A    between atoms: C_2  and  C_20
REMARK    2  A    between atoms: N_3  and  C_4
REMARK    3  A    between atoms: C_4  and  C_5
REMARK    4  A    between atoms: C_8  and  C_9
REMARK    5  A    between atoms: C_9  and  N_10
REMARK    6  A    between atoms: N_10  and  C_11
REMARK    7  A    between atoms: C_11  and  C_12
REMARK                            x       y       z     vdW  Elec       q    Type
REMARK                         _______ _______ _______ _____ _____    ______ ____
ROOT
ATOM      1  C   UNL     1      46.945   6.451  13.310  0.00  0.00    +0.000 A 
ATOM      2  C   UNL     1      46.763   5.209  13.925  0.00  0.00    +0.000 A 
ATOM      3  C   UNL     1      45.660   4.411  13.608  0.00  0.00    +0.000 A 
ATOM      4  C   UNL     1      44.698   4.838  12.680  0.00  0.00    +0.000 A 
ATOM      5  C   UNL     1      44.906   6.064  12.031  0.00  0.00    +0.000 A 
ATOM      6  C   UNL     1      46.021   6.859  12.338  0.00  0.00    +0.000 A 
ENDROOT
BRANCH   1   7
ATOM      7  C   UNL     1      48.117   7.318  13.691  0.00  0.00    +0.000 C 
BRANCH   7  10
ATOM      8  O   UNL     1      50.212   6.533  15.420  0.00  0.00    +0.000 OA
ATOM      9  C   UNL     1      49.262   7.156  15.877  0.00  0.00    +0.000 C 
ATOM     10  N   UNL     1      48.190   7.539  15.112  0.00  0.00    +0.000 N 
ATOM     11  H   UNL     1      47.503   8.176  15.498  0.00  0.00    +0.000 HD
BRANCH   9  12
ATOM     12  C   UNL     1      49.180   7.488  17.307  0.00  0.00    +0.000 A 
ATOM     13  C   UNL     1      49.852   8.596  17.802  0.00  0.00    +0.000 A 
ATOM     14  S   UNL     1      49.625   8.840  19.476  0.00  0.00    +0.000 S 
ATOM     15  C   UNL     1      48.590   7.494  19.588  0.00  0.00    +0.000 A 
ATOM     16  N   UNL     1      47.996   7.162  20.767  0.00  0.00    +0.000 NA
ATOM     17  C   UNL     1      47.203   6.145  20.699  0.00  0.00    +0.000 A 
ATOM     18  N   UNL     1      46.965   5.417  19.559  0.00  0.00    +0.000 N 
ATOM     19  C   UNL     1      47.616   5.656  18.374  0.00  0.00    +0.000 A 
ATOM     20  O   UNL     1      47.518   4.876  17.431  0.00  0.00    +0.000 OA
ATOM     21  C   UNL     1      48.457   6.839  18.376  0.00  0.00    +0.000 A 
ATOM     22  H   UNL     1      46.373   4.601  19.582  0.00  0.00    +0.000 HD
ENDBRANCH   9  12
ENDBRANCH   7  10
ENDBRANCH   1   7
BRANCH   4  23
ATOM     23  C   UNL     1      43.490   3.978  12.340  0.00  0.00    +0.000 C 
BRANCH  23  24
ATOM     24  N   UNL     1      43.893   2.723  11.701  0.00  0.00    +0.000 NA
ATOM     25  H   UNL     1      43.079   2.320  11.247  0.00  0.00    +0.000 HD
BRANCH  24  26
ATOM     26  C   UNL     1      44.982   2.873  10.732  0.00  0.00    +0.000 C 
BRANCH  26  27
ATOM     27  C   UNL     1      44.421   2.692   9.299  0.00  0.00    +0.000 C 
ATOM     28  C   UNL     1      45.102   1.559   8.508  0.00  0.00    +0.000 C 
ATOM     29  C   UNL     1      46.460   1.961   7.935  0.00  0.00    +0.000 C 
ATOM     30  C   UNL     1      46.417   3.315   7.230  0.00  0.00    +0.000 C 
ATOM     31  N   UNL     1      45.840   4.356   8.083  0.00  0.00    +0.000 NA
ATOM     32  C   UNL     1      44.479   3.998   8.490  0.00  0.00    +0.000 C 
ATOM     33  H   UNL     1      45.811   5.229   7.557  0.00  0.00    +0.000 HD
ENDBRANCH  26  27
ENDBRANCH  24  26
ENDBRANCH  23  24
ENDBRANCH   4  23
TORSDOF 7
ENDMDL
MODEL 3
REMARK VINA RESULT:    -6.881      3.208      5.496
REMARK INTER + INTRA:         -10.837
REMARK INTER:                  -9.565
REMARK INTRA:                  -1.272
REMARK UNBOUND:                -1.140
REMARK  Name = 
REMARK  7 active torsions:
REMARK  status: ('A' for Active; 'I' for Inactive)
REMARK    1  A    between atoms: C_2  and  C_20
REMARK    2  A    between atoms: N_3  and  C_4
REMARK    3  A    between atoms: C_4  and  C_5
REMARK    4  A    between atoms: C_8  and  C_9
REMARK    5  A    between atoms: C_9  and  N_10
REMARK    6  A    between atoms: N_10  and  C_11
REMARK    7  A    between atoms: C_11  and  C_12
REMARK                            x       y       z     vdW  Elec       q    Type
REMARK                         _______ _______ _______ _____ _____    ______ ____
ROOT
ATOM      1  C   UNL     1      47.626   4.438  15.946  0.00  0.00    +0.000 A 
ATOM      2  C   UNL     1      46.861   3.904  14.905  0.00  0.00    +0.000 A 
ATOM      3  C   UNL     1      46.718   4.596  13.698  0.00  0.00    +0.000 A 
ATOM      4  C   UNL     1      47.320   5.849  13.504  0.00  0.00    +0.000 A 
ATOM      5  C   UNL     1      48.123   6.361  14.533  0.00  0.00    +0.000 A 
ATOM      6  C   UNL     1      48.279   5.661  15.739  0.00  0.00    +0.000 A 
ENDROOT
BRANCH   1   7
ATOM      7  C   UNL     1      47.739   3.700  17.255  0.00  0.00    +0.000 C 
BRANCH   7  10
ATOM      8  O   UNL     1      49.388   1.749  16.041  0.00  0.00    +0.000 OA
ATOM      9  C   UNL     1      49.851   2.456  16.928  0.00  0.00    +0.000 C 
ATOM     10  N   UNL     1      49.106   3.397  17.591  0.00  0.00    +0.000 N 
ATOM     11  H   UNL     1      49.567   4.054  18.209  0.00  0.00    +0.000 HD
BRANCH   9  12
ATOM     12  C   UNL     1      51.239   2.298  17.385  0.00  0.00    +0.000 A 
ATOM     13  C   UNL     1      51.767   1.030  17.580  0.00  0.00    +0.000 A 
ATOM     14  S   UNL     1      53.396   1.039  18.089  0.00  0.00    +0.000 S 
ATOM     15  C   UNL     1      53.462   2.738  18.030  0.00  0.00    +0.000 A 
ATOM     16  N   UNL     1      54.615   3.406  18.312  0.00  0.00    +0.000 NA
ATOM     17  C   UNL     1      54.535   4.689  18.188  0.00  0.00    +0.000 A 
ATOM     18  N   UNL     1      53.398   5.367  17.823  0.00  0.00    +0.000 N 
ATOM     19  C   UNL     1      52.191   4.743  17.625  0.00  0.00    +0.000 A 
ATOM     20  O   UNL     1      51.159   5.394  17.482  0.00  0.00    +0.000 OA
ATOM     21  C   UNL     1      52.245   3.293  17.674  0.00  0.00    +0.000 A 
ATOM     22  H   UNL     1      53.385   6.375  17.793  0.00  0.00    +0.000 HD
ENDBRANCH   9  12
ENDBRANCH   7  10
ENDBRANCH   1   7
BRANCH   4  23
ATOM     23  C   UNL     1      47.157   6.610  12.196  0.00  0.00    +0.000 C 
BRANCH  23  24
ATOM     24  N   UNL     1      46.061   6.064  11.395  0.00  0.00    +0.000 NA
ATOM     25  H   UNL     1      45.985   5.070  11.591  0.00  0.00    +0.000 HD
BRANCH  24  26
ATOM     26  C   UNL     1      44.770   6.716  11.631  0.00  0.00    +0.000 C 
BRANCH  26  27
ATOM     27  C   UNL     1      43.634   5.824  11.071  0.00  0.00    +0.000 C 
ATOM     28  C   UNL     1      42.598   5.405  12.131  0.00  0.00    +0.000 C 
ATOM     29  C   UNL     1      43.078   4.255  13.015  0.00  0.00    +0.000 C 
ATOM     30  C   UNL     1      43.681   3.110  12.204  0.00  0.00    +0.000 C 
ATOM     31  N   UNL     1      44.720   3.581  11.287  0.00  0.00    +0.000 NA
ATOM     32  C   UNL     1      44.181   4.576  10.358  0.00  0.00    +0.000 C 
ATOM     33  H   UNL     1      45.070   2.784  10.754  0.00  0.00    +0.000 HD
ENDBRANCH  26  27
ENDBRANCH  24  26
ENDBRANCH  23  24
ENDBRANCH   4  23
TORSDOF 7
ENDMDL
MODEL 4
REMARK VINA RESULT:    -6.824      2.940      8.777
REMARK INTER + INTRA:         -10.756
REMARK INTER:                  -9.266
REMARK INTRA:                  -1.490
REMARK UNBOUND:                -1.140
REMARK  Name = 
REMARK  7 active torsions:
REMARK  status: ('A' for Active; 'I' for Inactive)
REMARK    1  A    between atoms: C_2  and  C_20
REMARK    2  A    between atoms: N_3  and  C_4
REMARK    3  A    between atoms: C_4  and  C_5
REMARK    4  A    between atoms: C_8  and  C_9
REMARK    5  A    between atoms: C_9  and  N_10
REMARK    6  A    between atoms: N_10  and  C_11
REMARK    7  A    between atoms: C_11  and  C_12
REMARK                            x       y       z     vdW  Elec       q    Type
REMARK                         _______ _______ _______ _____ _____    ______ ____
ROOT
ATOM      1  C   UNL     1      47.840   8.002  13.483  0.00  0.00    +0.000 A 
ATOM      2  C   UNL     1      48.395   6.841  14.028  0.00  0.00    +0.000 A 
ATOM      3  C   UNL     1      49.080   6.882  15.246  0.00  0.00    +0.000 A 
ATOM      4  C   UNL     1      49.246   8.087  15.946  0.00  0.00    +0.000 A 
ATOM      5  C   UNL     1      48.649   9.242  15.419  0.00  0.00    +0.000 A 
ATOM      6  C   UNL     1      47.949   9.199  14.205  0.00  0.00    +0.000 A 
ENDROOT
BRANCH   1   7
ATOM      7  C   UNL     1      47.138   7.950  12.151  0.00  0.00    +0.000 C 
BRANCH   7  10
ATOM      8  O   UNL     1      44.397   7.513  11.608  0.00  0.00    +0.000 OA
ATOM      9  C   UNL     1      45.161   6.557  11.632  0.00  0.00    +0.000 C 
ATOM     10  N   UNL     1      46.495   6.680  11.925  0.00  0.00    +0.000 N 
ATOM     11  H   UNL     1      47.112   5.889  11.788  0.00  0.00    +0.000 HD
BRANCH   9  12
ATOM     12  C   UNL     1      44.680   5.187  11.402  0.00  0.00    +0.000 A 
ATOM     13  C   UNL     1      43.944   4.536  12.381  0.00  0.00    +0.000 A 
ATOM     14  S   UNL     1      43.451   2.964  11.931  0.00  0.00    +0.000 S 
ATOM     15  C   UNL     1      44.173   3.116  10.399  0.00  0.00    +0.000 A 
ATOM     16  N   UNL     1      44.080   2.118   9.477  0.00  0.00    +0.000 NA
ATOM     17  C   UNL     1      44.637   2.383   8.343  0.00  0.00    +0.000 A 
ATOM     18  N   UNL     1      45.297   3.552   8.053  0.00  0.00    +0.000 N 
ATOM     19  C   UNL     1      45.499   4.543   8.982  0.00  0.00    +0.000 A 
ATOM     20  O   UNL     1      46.247   5.488   8.746  0.00  0.00    +0.000 OA
ATOM     21  C   UNL     1      44.823   4.329  10.249  0.00  0.00    +0.000 A 
ATOM     22  H   UNL     1      45.756   3.679   7.164  0.00  0.00    +0.000 HD
ENDBRANCH   9  12
ENDBRANCH   7  10
ENDBRANCH   1   7
BRANCH   4  23
ATOM     23  C   UNL     1      50.001   8.138  17.265  0.00  0.00    +0.000 C 
BRANCH  23  24
ATOM     24  N   UNL     1      49.398   7.247  18.258  0.00  0.00    +0.000 NA
ATOM     25  H   UNL     1      48.455   7.021  17.955  0.00  0.00    +0.000 HD
BRANCH  24  26
ATOM     26  C   UNL     1      50.156   6.014  18.489  0.00  0.00    +0.000 C 
BRANCH  26  27
ATOM     27  C   UNL     1      49.209   4.929  19.058  0.00  0.00    +0.000 C 
ATOM     28  C   UNL     1      49.287   3.586  18.307  0.00  0.00    +0.000 C 
ATOM     29  C   UNL     1      48.509   3.589  16.993  0.00  0.00    +0.000 C 
ATOM     30  C   UNL     1      47.105   4.168  17.148  0.00  0.00    +0.000 C 
ATOM     31  N   UNL     1      47.126   5.484  17.788  0.00  0.00    +0.000 NA
ATOM     32  C   UNL     1      47.749   5.409  19.111  0.00  0.00    +0.000 C 
ATOM     33  H   UNL     1      46.165   5.813  17.891  0.00  0.00    +0.000 HD
ENDBRANCH  26  27
ENDBRANCH  24  26
ENDBRANCH  23  24
ENDBRANCH   4  23
TORSDOF 7
ENDMDL
MODEL 5
REMARK VINA RESULT:    -6.763      4.041      8.777
REMARK INTER + INTRA:         -10.670
REMARK INTER:                  -9.337
REMARK INTRA:                  -1.333
REMARK UNBOUND:                -1.140
REMARK  Name = 
REMARK  7 active torsions:
REMARK  status: ('A' for Active; 'I' for Inactive)
REMARK    1  A    between atoms: C_2  and  C_20
REMARK    2  A    between atoms: N_3  and  C_4
REMARK    3  A    between atoms: C_4  and  C_5
REMARK    4  A    between atoms: C_8  and  C_9
REMARK    5  A    between atoms: C_9  and  N_10
REMARK    6  A    between atoms: N_10  and  C_11
REMARK    7  A    between atoms: C_11  and  C_12
REMARK                            x       y       z     vdW  Elec       q    Type
REMARK                         _______ _______ _______ _____ _____    ______ ____
ROOT
ATOM      1  C   UNL     1      48.661   3.560  17.136  0.00  0.00    +0.000 A 
ATOM      2  C   UNL     1      49.464   2.416  17.140  0.00  0.00    +0.000 A 
ATOM      3  C   UNL     1      50.835   2.508  17.400  0.00  0.00    +0.000 A 
ATOM      4  C   UNL     1      51.446   3.748  17.644  0.00  0.00    +0.000 A 
ATOM      5  C   UNL     1      50.630   4.888  17.683  0.00  0.00    +0.000 A 
ATOM      6  C   UNL     1      49.252   4.794  17.438  0.00  0.00    +0.000 A 
ENDROOT
BRANCH   1   7
ATOM      7  C   UNL     1      47.193   3.449  16.816  0.00  0.00    +0.000 C 
BRANCH   7  10
ATOM      8  O   UNL     1      47.225   3.105  14.009  0.00  0.00    +0.000 OA
ATOM      9  C   UNL     1      46.793   4.150  14.479  0.00  0.00    +0.000 C 
ATOM     10  N   UNL     1      46.779   4.409  15.825  0.00  0.00    +0.000 N 
ATOM     11  H   UNL     1      46.280   5.218  16.173  0.00  0.00    +0.000 HD
BRANCH   9  12
ATOM     12  C   UNL     1      46.308   5.235  13.612  0.00  0.00    +0.000 A 
ATOM     13  C   UNL     1      47.121   6.326  13.345  0.00  0.00    +0.000 A 
ATOM     14  S   UNL     1      46.403   7.473  12.304  0.00  0.00    +0.000 S 
ATOM     15  C   UNL     1      44.996   6.531  12.147  0.00  0.00    +0.000 A 
ATOM     16  N   UNL     1      43.973   6.926  11.339  0.00  0.00    +0.000 NA
ATOM     17  C   UNL     1      42.986   6.096  11.280  0.00  0.00    +0.000 A 
ATOM     18  N   UNL     1      42.921   4.912  11.972  0.00  0.00    +0.000 N 
ATOM     19  C   UNL     1      43.882   4.522  12.871  0.00  0.00    +0.000 A 
ATOM     20  O   UNL     1      43.705   3.554  13.606  0.00  0.00    +0.000 OA
ATOM     21  C   UNL     1      45.052   5.381  12.914  0.00  0.00    +0.000 A 
ATOM     22  H   UNL     1      42.098   4.330  11.923  0.00  0.00    +0.000 HD
ENDBRANCH   9  12
ENDBRANCH   7  10
ENDBRANCH   1   7
BRANCH   4  23
ATOM     23  C   UNL     1      52.939   3.855  17.915  0.00  0.00    +0.000 C 
BRANCH  23  24
ATOM     24  N   UNL     1      53.379   5.251  17.931  0.00  0.00    +0.000 NA
ATOM     25  H   UNL     1      53.931   5.403  18.769  0.00  0.00    +0.000 HD
BRANCH  24  26
ATOM     26  C   UNL     1      54.151   5.643  16.748  0.00  0.00    +0.000 C 
BRANCH  26  27
ATOM     27  C   UNL     1      54.146   7.187  16.622  0.00  0.00    +0.000 C 
ATOM     28  C   UNL     1      52.764   7.822  16.867  0.00  0.00    +0.000 C 
ATOM     29  C   UNL     1      51.833   7.711  15.660  0.00  0.00    +0.000 C 
ATOM     30  C   UNL     1      52.517   8.119  14.358  0.00  0.00    +0.000 C 
ATOM     31  N   UNL     1      53.778   7.404  14.157  0.00  0.00    +0.000 NA
ATOM     32  C   UNL     1      54.700   7.656  15.267  0.00  0.00    +0.000 C 
ATOM     33  H   UNL     1      54.204   7.731  13.290  0.00  0.00    +0.000 HD
ENDBRANCH  26  27
ENDBRANCH  24  26
ENDBRANCH  23  24
ENDBRANCH   4  23
TORSDOF 7
ENDMDL
MODEL 6
REMARK VINA RESULT:    -6.476      3.554      9.134
REMARK INTER + INTRA:         -10.266
REMARK INTER:                  -8.674
REMARK INTRA:                  -1.592
REMARK UNBOUND:                -1.140
REMARK  Name = 
REMARK  7 active torsions:
REMARK  status: ('A' for Active; 'I' for Inactive)
REMARK    1  A    between atoms: C_2  and  C_20
REMARK    2  A    between atoms: N_3  and  C_4
REMARK    3  A    between atoms: C_4  and  C_5
REMARK    4  A    between atoms: C_8  and  C_9
REMARK    5  A    between atoms: C_9  and  N_10
REMARK    6  A    between atoms: N_10  and  C_11
REMARK    7  A    between atoms: C_11  and  C_12
REMARK                            x       y       z     vdW  Elec       q    Type
REMARK                         _______ _______ _______ _____ _____    ______ ____
ROOT
ATOM      1  C   UNL     1      48.847   6.894  16.501  0.00  0.00    +0.000 A 
ATOM      2  C   UNL     1      48.928   7.635  17.683  0.00  0.00    +0.000 A 
ATOM      3  C   UNL     1      48.943   6.994  18.926  0.00  0.00    +0.000 A 
ATOM      4  C   UNL     1      48.859   5.596  19.023  0.00  0.00    +0.000 A 
ATOM      5  C   UNL     1      48.824   4.854  17.834  0.00  0.00    +0.000 A 
ATOM      6  C   UNL     1      48.824   5.495  16.586  0.00  0.00    +0.000 A 
ENDROOT
BRANCH   1   7
ATOM      7  C   UNL     1      48.792   7.600  15.171  0.00  0.00    +0.000 C 
BRANCH   7  10
ATOM      8  O   UNL     1      48.607   5.936  12.892  0.00  0.00    +0.000 OA
ATOM      9  C   UNL     1      47.587   6.431  13.355  0.00  0.00    +0.000 C 
ATOM     10  N   UNL     1      47.597   7.278  14.433  0.00  0.00    +0.000 N 
ATOM     11  H   UNL     1      46.723   7.543  14.869  0.00  0.00    +0.000 HD
BRANCH   9  12
ATOM     12  C   UNL     1      46.273   6.192  12.741  0.00  0.00    +0.000 A 
ATOM     13  C   UNL     1      45.558   7.249  12.197  0.00  0.00    +0.000 A 
ATOM     14  S   UNL     1      44.068   6.782  11.508  0.00  0.00    +0.000 S 
ATOM     15  C   UNL     1      44.345   5.146  11.881  0.00  0.00    +0.000 A 
ATOM     16  N   UNL     1      43.455   4.182  11.517  0.00  0.00    +0.000 NA
ATOM     17  C   UNL     1      43.811   2.979  11.825  0.00  0.00    +0.000 A 
ATOM     18  N   UNL     1      44.972   2.655  12.483  0.00  0.00    +0.000 N 
ATOM     19  C   UNL     1      45.848   3.601  12.955  0.00  0.00    +0.000 A 
ATOM     20  O   UNL     1      46.777   3.288  13.696  0.00  0.00    +0.000 OA
ATOM     21  C   UNL     1      45.535   4.963  12.564  0.00  0.00    +0.000 A 
ATOM     22  H   UNL     1      45.169   1.700  12.741  0.00  0.00    +0.000 HD
ENDBRANCH   9  12
ENDBRANCH   7  10
ENDBRANCH   1   7
BRANCH   4  23
ATOM     23  C   UNL     1      48.863   4.896  20.374  0.00  0.00    +0.000 C 
BRANCH  23  24
ATOM     24  N   UNL     1      50.225   4.562  20.796  0.00  0.00    +0.000 NA
ATOM     25  H   UNL     1      50.649   3.982  20.079  0.00  0.00    +0.000 HD
BRANCH  24  26
ATOM     26  C   UNL     1      51.070   5.731  21.056  0.00  0.00    +0.000 C 
BRANCH  26  27
ATOM     27  C   UNL     1      52.505   5.449  20.547  0.00  0.00    +0.000 C 
ATOM     28  C   UNL     1      52.933   6.352  19.375  0.00  0.00    +0.000 C 
ATOM     29  C   UNL     1      52.360   5.902  18.032  0.00  0.00    +0.000 C 
ATOM     30  C   UNL     1      52.533   4.403  17.798  0.00  0.00    +0.000 C 
ATOM     31  N   UNL     1      52.018   3.614  18.918  0.00  0.00    +0.000 NA
ATOM     32  C   UNL     1      52.700   3.973  20.163  0.00  0.00    +0.000 C 
ATOM     33  H   UNL     1      52.181   2.626  18.722  0.00  0.00    +0.000 HD
ENDBRANCH  26  27
ENDBRANCH  24  26
ENDBRANCH  23  24
ENDBRANCH   4  23
TORSDOF 7
ENDMDL
MODEL 7
REMARK VINA RESULT:    -6.416      4.052      9.249
REMARK INTER + INTRA:         -10.181
REMARK INTER:                  -8.522
REMARK INTRA:                  -1.660
REMARK UNBOUND:                -1.140
REMARK  Name = 
REMARK  7 active torsions:
REMARK  status: ('A' for Active; 'I' for Inactive)
REMARK    1  A    between atoms: C_2  and  C_20
REMARK    2  A    between atoms: N_3  and  C_4
REMARK    3  A    between atoms: C_4  and  C_5
REMARK    4  A    between atoms: C_8  and  C_9
REMARK    5  A    between atoms: C_9  and  N_10
REMARK    6  A    between atoms: N_10  and  C_11
REMARK    7  A    between atoms: C_11  and  C_12
REMARK                            x       y       z     vdW  Elec       q    Type
REMARK                         _______ _______ _______ _____ _____    ______ ____
ROOT
ATOM      1  C   UNL     1      48.011   4.271  17.760  0.00  0.00    +0.000 A 
ATOM      2  C   UNL     1      49.241   3.788  18.218  0.00  0.00    +0.000 A 
ATOM      3  C   UNL     1      49.933   4.452  19.235  0.00  0.00    +0.000 A 
ATOM      4  C   UNL     1      49.426   5.627  19.811  0.00  0.00    +0.000 A 
ATOM      5  C   UNL     1      48.171   6.084  19.381  0.00  0.00    +0.000 A 
ATOM      6  C   UNL     1      47.469   5.410  18.371  0.00  0.00    +0.000 A 
ENDROOT
BRANCH   1   7
ATOM      7  C   UNL     1      47.296   3.566  16.636  0.00  0.00    +0.000 C 
BRANCH   7  10
ATOM      8  O   UNL     1      47.228   3.211  13.831  0.00  0.00    +0.000 OA
ATOM      9  C   UNL     1      46.745   4.226  14.317  0.00  0.00    +0.000 C 
ATOM     10  N   UNL     1      46.771   4.490  15.663  0.00  0.00    +0.000 N 
ATOM     11  H   UNL     1      46.232   5.263  16.031  0.00  0.00    +0.000 HD
BRANCH   9  12
ATOM     12  C   UNL     1      46.146   5.269  13.472  0.00  0.00    +0.000 A 
ATOM     13  C   UNL     1      46.873   6.406  13.152  0.00  0.00    +0.000 A 
ATOM     14  S   UNL     1      46.029   7.496  12.145  0.00  0.00    +0.000 S 
ATOM     15  C   UNL     1      44.677   6.466  12.072  0.00  0.00    +0.000 A 
ATOM     16  N   UNL     1      43.589   6.789  11.319  0.00  0.00    +0.000 NA
ATOM     17  C   UNL     1      42.654   5.899  11.320  0.00  0.00    +0.000 A 
ATOM     18  N   UNL     1      42.701   4.720  12.023  0.00  0.00    +0.000 N 
ATOM     19  C   UNL     1      43.733   4.400  12.871  0.00  0.00    +0.000 A 
ATOM     20  O   UNL     1      43.657   3.431  13.621  0.00  0.00    +0.000 OA
ATOM     21  C   UNL     1      44.847   5.330  12.843  0.00  0.00    +0.000 A 
ATOM     22  H   UNL     1      41.915   4.088  12.024  0.00  0.00    +0.000 HD
ENDBRANCH   9  12
ENDBRANCH   7  10
ENDBRANCH   1   7
BRANCH   4  23
ATOM     23  C   UNL     1      50.181   6.359  20.910  0.00  0.00    +0.000 C 
BRANCH  23  24
ATOM     24  N   UNL     1      51.221   7.227  20.354  0.00  0.00    +0.000 NA
ATOM     25  H   UNL     1      51.748   6.696  19.667  0.00  0.00    +0.000 HD
BRANCH  24  26
ATOM     26  C   UNL     1      50.706   8.456  19.745  0.00  0.00    +0.000 C 
BRANCH  26  27
ATOM     27  C   UNL     1      51.519   8.773  18.464  0.00  0.00    +0.000 C 
ATOM     28  C   UNL     1      50.664   8.807  17.183  0.00  0.00    +0.000 C 
ATOM     29  C   UNL     1      50.340   7.415  16.643  0.00  0.00    +0.000 C 
ATOM     30  C   UNL     1      51.570   6.512  16.583  0.00  0.00    +0.000 C 
ATOM     31  N   UNL     1      52.274   6.464  17.866  0.00  0.00    +0.000 NA
ATOM     32  C   UNL     1      52.698   7.804  18.276  0.00  0.00    +0.000 C 
ATOM     33  H   UNL     1      53.097   5.870  17.764  0.00  0.00    +0.000 HD
ENDBRANCH  26  27
ENDBRANCH  24  26
ENDBRANCH  23  24
ENDBRANCH   4  23
TORSDOF 7
ENDMDL
MODEL 8
REMARK VINA RESULT:    -6.388      4.272      9.407
REMARK INTER + INTRA:         -10.141
REMARK INTER:                  -9.136
REMARK INTRA:                  -1.005
REMARK UNBOUND:                -1.140
REMARK  Name = 
REMARK  7 active torsions:
REMARK  status: ('A' for Active; 'I' for Inactive)
REMARK    1  A    between atoms: C_2  and  C_20
REMARK    2  A    between atoms: N_3  and  C_4
REMARK    3  A    between atoms: C_4  and  C_5
REMARK    4  A    between atoms: C_8  and  C_9
REMARK    5  A    between atoms: C_9  and  N_10
REMARK    6  A    between atoms: N_10  and  C_11
REMARK    7  A    between atoms: C_11  and  C_12
REMARK                            x       y       z     vdW  Elec       q    Type
REMARK                         _______ _______ _______ _____ _____    ______ ____
ROOT
ATOM      1  C   UNL     1      48.798   4.006  17.658  0.00  0.00    +0.000 A 
ATOM      2  C   UNL     1      49.688   2.968  17.365  0.00  0.00    +0.000 A 
ATOM      3  C   UNL     1      51.030   3.050  17.748  0.00  0.00    +0.000 A 
ATOM      4  C   UNL     1      51.526   4.179  18.418  0.00  0.00    +0.000 A 
ATOM      5  C   UNL     1      50.621   5.198  18.750  0.00  0.00    +0.000 A 
ATOM      6  C   UNL     1      49.271   5.110  18.379  0.00  0.00    +0.000 A 
ENDROOT
BRANCH   1   7
ATOM      7  C   UNL     1      47.364   3.920  17.204  0.00  0.00    +0.000 C 
BRANCH   7  10
ATOM      8  O   UNL     1      47.530   2.977  14.543  0.00  0.00    +0.000 OA
ATOM      9  C   UNL     1      47.195   4.137  14.746  0.00  0.00    +0.000 C 
ATOM     10  N   UNL     1      47.128   4.681  16.004  0.00  0.00    +0.000 N 
ATOM     11  H   UNL     1      46.706   5.592  16.132  0.00  0.00    +0.000 HD
BRANCH   9  12
ATOM     12  C   UNL     1      46.895   5.053  13.636  0.00  0.00    +0.000 A 
ATOM     13  C   UNL     1      47.551   6.272  13.545  0.00  0.00    +0.000 A 
ATOM     14  S   UNL     1      47.094   7.193  12.181  0.00  0.00    +0.000 S 
ATOM     15  C   UNL     1      46.032   5.976  11.648  0.00  0.00    +0.000 A 
ATOM     16  N   UNL     1      45.338   6.111  10.484  0.00  0.00    +0.000 NA
ATOM     17  C   UNL     1      44.602   5.095  10.178  0.00  0.00    +0.000 A 
ATOM     18  N   UNL     1      44.483   3.961  10.942  0.00  0.00    +0.000 N 
ATOM     19  C   UNL     1      45.087   3.823  12.168  0.00  0.00    +0.000 A 
ATOM     20  O   UNL     1      44.813   2.879  12.904  0.00  0.00    +0.000 OA
ATOM     21  C   UNL     1      45.990   4.903  12.521  0.00  0.00    +0.000 A 
ATOM     22  H   UNL     1      43.852   3.221  10.674  0.00  0.00    +0.000 HD
ENDBRANCH   9  12
ENDBRANCH   7  10
ENDBRANCH   1   7
BRANCH   4  23
ATOM     23  C   UNL     1      52.988   4.278  18.827  0.00  0.00    +0.000 C 
BRANCH  23  24
ATOM     24  N   UNL     1      53.665   2.986  18.701  0.00  0.00    +0.000 NA
ATOM     25  H   UNL     1      52.959   2.266  18.572  0.00  0.00    +0.000 HD
BRANCH  24  26
ATOM     26  C   UNL     1      54.639   2.930  17.607  0.00  0.00    +0.000 C 
BRANCH  26  27
ATOM     27  C   UNL     1      55.619   1.756  17.854  0.00  0.00    +0.000 C 
ATOM     28  C   UNL     1      55.773   0.815  16.643  0.00  0.00    +0.000 C 
ATOM     29  C   UNL     1      54.615  -0.171  16.500  0.00  0.00    +0.000 C 
ATOM     30  C   UNL     1      54.268  -0.857  17.820  0.00  0.00    +0.000 C 
ATOM     31  N   UNL     1      54.048   0.111  18.896  0.00  0.00    +0.000 NA
ATOM     32  C   UNL     1      55.238   0.940  19.100  0.00  0.00    +0.000 C 
ATOM     33  H   UNL     1      53.846  -0.399  19.756  0.00  0.00    +0.000 HD
ENDBRANCH  26  27
ENDBRANCH  24  26
ENDBRANCH  23  24
ENDBRANCH   4  23
TORSDOF 7
ENDMDL
MODEL 9
REMARK VINA RESULT:    -6.380      4.000      8.538
REMARK INTER + INTRA:         -10.131
REMARK INTER:                  -9.180
REMARK INTRA:                  -0.951
REMARK UNBOUND:                -1.140
REMARK  Name = 
REMARK  7 active torsions:
REMARK  status: ('A' for Active; 'I' for Inactive)
REMARK    1  A    between atoms: C_2  and  C_20
REMARK    2  A    between atoms: N_3  and  C_4
REMARK    3  A    between atoms: C_4  and  C_5
REMARK    4  A    between atoms: C_8  and  C_9
REMARK    5  A    between atoms: C_9  and  N_10
REMARK    6  A    between atoms: N_10  and  C_11
REMARK    7  A    between atoms: C_11  and  C_12
REMARK                            x       y       z     vdW  Elec       q    Type
REMARK                         _______ _______ _______ _____ _____    ______ ____
ROOT
ATOM      1  C   UNL     1      49.712   6.779  16.159  0.00  0.00    +0.000 A 
ATOM      2  C   UNL     1      48.899   5.783  16.708  0.00  0.00    +0.000 A 
ATOM      3  C   UNL     1      49.461   4.704  17.398  0.00  0.00    +0.000 A 
ATOM      4  C   UNL     1      50.851   4.579  17.542  0.00  0.00    +0.000 A 
ATOM      5  C   UNL     1      51.661   5.603  17.029  0.00  0.00    +0.000 A 
ATOM      6  C   UNL     1      51.098   6.693  16.349  0.00  0.00    +0.000 A 
ENDROOT
BRANCH   1   7
ATOM      7  C   UNL     1      49.095   7.915  15.385  0.00  0.00    +0.000 C 
BRANCH   7  10
ATOM      8  O   UNL     1      49.083   6.613  12.874  0.00  0.00    +0.000 OA
ATOM      9  C   UNL     1      48.019   6.837  13.437  0.00  0.00    +0.000 C 
ATOM     10  N   UNL     1      47.937   7.497  14.636  0.00  0.00    +0.000 N 
ATOM     11  H   UNL     1      47.055   7.527  15.131  0.00  0.00    +0.000 HD
BRANCH   9  12
ATOM     12  C   UNL     1      46.736   6.459  12.826  0.00  0.00    +0.000 A 
ATOM     13  C   UNL     1      45.944   7.423  12.220  0.00  0.00    +0.000 A 
ATOM     14  S   UNL     1      44.505   6.799  11.545  0.00  0.00    +0.000 S 
ATOM     15  C   UNL     1      44.911   5.214  12.008  0.00  0.00    +0.000 A 
ATOM     16  N   UNL     1      44.106   4.162  11.690  0.00  0.00    +0.000 NA
ATOM     17  C   UNL     1      44.555   3.011  12.065  0.00  0.00    +0.000 A 
ATOM     18  N   UNL     1      45.730   2.819  12.749  0.00  0.00    +0.000 N 
ATOM     19  C   UNL     1      46.521   3.857  13.176  0.00  0.00    +0.000 A 
ATOM     20  O   UNL     1      47.463   3.661  13.940  0.00  0.00    +0.000 OA
ATOM     21  C   UNL     1      46.103   5.166  12.709  0.00  0.00    +0.000 A 
ATOM     22  H   UNL     1      46.002   1.898  13.060  0.00  0.00    +0.000 HD
ENDBRANCH   9  12
ENDBRANCH   7  10
ENDBRANCH   1   7
BRANCH   4  23
ATOM     23  C   UNL     1      51.467   3.401  18.281  0.00  0.00    +0.000 C 
BRANCH  23  24
ATOM     24  N   UNL     1      50.961   2.127  17.767  0.00  0.00    +0.000 NA
ATOM     25  H   UNL     1      50.222   2.322  17.098  0.00  0.00    +0.000 HD
BRANCH  24  26
ATOM     26  C   UNL     1      51.988   1.288  17.143  0.00  0.00    +0.000 C 
BRANCH  26  27
ATOM     27  C   UNL     1      53.241   1.250  18.053  0.00  0.00    +0.000 C 
ATOM     28  C   UNL     1      54.490   1.883  17.411  0.00  0.00    +0.000 C 
ATOM     29  C   UNL     1      55.180   0.961  16.407  0.00  0.00    +0.000 C 
ATOM     30  C   UNL     1      55.372  -0.453  16.952  0.00  0.00    +0.000 C 
ATOM     31  N   UNL     1      54.120  -1.016  17.460  0.00  0.00    +0.000 NA
ATOM     32  C   UNL     1      53.567  -0.177  18.524  0.00  0.00    +0.000 C 
ATOM     33  H   UNL     1      54.309  -1.947  17.833  0.00  0.00    +0.000 HD
ENDBRANCH  26  27
ENDBRANCH  24  26
ENDBRANCH  23  24
ENDBRANCH   4  23
TORSDOF 7
ENDMDL
