MODEL 1
REMARK VINA RESULT:    -7.810      0.000      0.000
REMARK INTER + INTRA:          -9.542
REMARK INTER:                  -9.408
REMARK INTRA:                  -0.135
REMARK UNBOUND:                -0.135
REMARK  Name = 
REMARK  4 active torsions:
REMARK  status: ('A' for Active; 'I' for Inactive)
REMARK    1  A    between atoms: N_1  and  C_2
REMARK    2  A    between atoms: C_2  and  C_3
REMARK    3  A    between atoms: C_7  and  C_8
REMARK    4  A    between atoms: C_8  and  N_9
REMARK                            x       y       z     vdW  Elec       q    Type
REMARK                         _______ _______ _______ _____ _____    ______ ____
ROOT
ATOM      1  C   UNL     1      44.148   4.273   9.016  0.00  0.00    +0.000 C 
ENDROOT
BRANCH   1   2
ATOM      2  N   UNL     1      44.197   4.240  10.473  0.00  0.00    +0.000 N 
ATOM      3  C   UNL     1      43.428   3.411  11.253  0.00  0.00    +0.000 A 
ATOM      4  C   UNL     1      43.831   3.562  12.560  0.00  0.00    +0.000 A 
ATOM      5  C   UNL     1      44.890   4.508  12.581  0.00  0.00    +0.000 A 
ATOM      6  C   UNL     1      45.700   5.034  13.608  0.00  0.00    +0.000 A 
ATOM      7  C   UNL     1      46.693   5.969  13.291  0.00  0.00    +0.000 A 
ATOM      8  C   UNL     1      46.869   6.386  11.976  0.00  0.00    +0.000 A 
ATOM      9 CL   UNL     1      48.104   7.532  11.611  0.00  0.00    +0.000 Cl
ATOM     10  C   UNL     1      46.073   5.889  10.940  0.00  0.00    +0.000 A 
ATOM     11  C   UNL     1      45.094   4.934  11.265  0.00  0.00    +0.000 A 
ENDBRANCH   1   2
BRANCH   1  16
ATOM     12  C   UNL     1      46.530   2.627   6.730  0.00  0.00    +0.000 A 
ATOM     13  C   UNL     1      46.677   1.386   7.338  0.00  0.00    +0.000 A 
ATOM     14  N   UNL     1      46.045   1.050   8.486  0.00  0.00    +0.000 NA
ATOM     15  C   UNL     1      45.232   2.002   8.997  0.00  0.00    +0.000 A 
ATOM     16  C   UNL     1      45.061   3.249   8.405  0.00  0.00    +0.000 A 
ATOM     17  N   UNL     1      45.720   3.582   7.263  0.00  0.00    +0.000 NA
BRANCH  12  18
ATOM     18  C   UNL     1      47.267   2.960   5.455  0.00  0.00    +0.000 C 
BRANCH  18  19
ATOM     19  N   UNL     1      48.393   2.062   5.195  0.00  0.00    +0.000 NA
ATOM     20  H   UNL     1      48.787   1.768   6.089  0.00  0.00    +0.000 HD
ATOM     21  H   UNL     1      49.131   2.601   4.737  0.00  0.00    +0.000 HD
ENDBRANCH  18  19
ENDBRANCH  12  18
ENDBRANCH   1  16
TORSDOF 4
ENDMDL
MODEL 2
REMARK VINA RESULT:    -7.179      1.700      2.331
REMARK INTER + INTRA:          -8.782
REMARK INTER:                  -8.461
REMARK INTRA:                  -0.321
REMARK UNBOUND:                -0.135
REMARK  Name = 
REMARK  4 active torsions:
REMARK  status: ('A' for Active; 'I' for Inactive)
REMARK    1  A    between atoms: N_1  and  C_2
REMARK    2  A    between atoms: C_2  and  C_3
REMARK    3  A    between atoms: C_7  and  C_8
REMARK    4  A    between atoms: C_8  and  N_9
REMARK                            x       y       z     vdW  Elec       q    Type
REMARK                         _______ _______ _______ _____ _____    ______ ____
ROOT
ATOM      1  C   UNL     1      44.278   3.311  10.224  0.00  0.00    +0.000 C 
ENDROOT
BRANCH   1   2
ATOM      2  N   UNL     1      44.941   3.823  11.419  0.00  0.00    +0.000 N 
ATOM      3  C   UNL     1      45.635   3.043  12.311  0.00  0.00    +0.000 A 
ATOM      4  C   UNL     1      46.227   3.876  13.233  0.00  0.00    +0.000 A 
ATOM      5  C   UNL     1      45.893   5.212  12.889  0.00  0.00    +0.000 A 
ATOM      6  C   UNL     1      46.226   6.467  13.438  0.00  0.00    +0.000 A 
ATOM      7  C   UNL     1      45.731   7.633  12.840  0.00  0.00    +0.000 A 
ATOM      8  C   UNL     1      44.907   7.553  11.723  0.00  0.00    +0.000 A 
ATOM      9 CL   UNL     1      44.318   9.004  11.002  0.00  0.00    +0.000 Cl
ATOM     10  C   UNL     1      44.553   6.322  11.164  0.00  0.00    +0.000 A 
ATOM     11  C   UNL     1      45.072   5.158  11.758  0.00  0.00    +0.000 A 
ENDBRANCH   1   2
BRANCH   1  16
ATOM     12  C   UNL     1      46.563   2.028   7.629  0.00  0.00    +0.000 A 
ATOM     13  C   UNL     1      46.887   3.197   6.950  0.00  0.00    +0.000 A 
ATOM     14  N   UNL     1      46.379   4.406   7.283  0.00  0.00    +0.000 NA
ATOM     15  C   UNL     1      45.546   4.407   8.348  0.00  0.00    +0.000 A 
ATOM     16  C   UNL     1      45.212   3.254   9.050  0.00  0.00    +0.000 A 
ATOM     17  N   UNL     1      45.711   2.041   8.690  0.00  0.00    +0.000 NA
BRANCH  12  18
ATOM     18  C   UNL     1      47.146   0.700   7.211  0.00  0.00    +0.000 C 
BRANCH  18  19
ATOM     19  N   UNL     1      46.586  -0.431   7.954  0.00  0.00    +0.000 NA
ATOM     20  H   UNL     1      47.266  -1.191   7.949  0.00  0.00    +0.000 HD
ATOM     21  H   UNL     1      45.779  -0.784   7.436  0.00  0.00    +0.000 HD
ENDBRANCH  18  19
ENDBRANCH  12  18
ENDBRANCH   1  16
TORSDOF 4
ENDMDL
MODEL 3
REMARK VINA RESULT:    -6.697      3.049      5.930
REMARK INTER + INTRA:          -8.202
REMARK INTER:                  -7.911
REMARK INTRA:                  -0.291
REMARK UNBOUND:                -0.135
REMARK  Name = 
REMARK  4 active torsions:
REMARK  status: ('A' for Active; 'I' for Inactive)
REMARK    1  A    between atoms: N_1  and  C_2
REMARK    2  A    between atoms: C_2  and  C_3
REMARK    3  A    between atoms: C_7  and  C_8
REMARK    4  A    between atoms: C_8  and  N_9
REMARK                            x       y       z     vdW  Elec       q    Type
REMARK                         _______ _______ _______ _____ _____    ______ ____
ROOT
ATOM      1  C   UNL     1      44.536   6.194  11.608  0.00  0.00    +0.000 C 
ENDROOT
BRANCH   1   2
ATOM      2  N   UNL     1      44.284   4.790  11.300  0.00  0.00    +0.000 N 
ATOM      3  C   UNL     1      43.441   3.980  12.022  0.00  0.00    +0.000 A 
ATOM      4  C   UNL     1      43.352   2.772  11.371  0.00  0.00    +0.000 A 
ATOM      5  C   UNL     1      44.160   2.845  10.206  0.00  0.00    +0.000 A 
ATOM      6  C   UNL     1      44.436   1.943   9.158  0.00  0.00    +0.000 A 
ATOM      7  C   UNL     1      45.290   2.334   8.119  0.00  0.00    +0.000 A 
ATOM      8  C   UNL     1      45.873   3.597   8.129  0.00  0.00    +0.000 A 
ATOM      9 CL   UNL     1      46.914   4.056   6.834  0.00  0.00    +0.000 Cl
ATOM     10  C   UNL     1      45.626   4.507   9.161  0.00  0.00    +0.000 A 
ATOM     11  C   UNL     1      44.749   4.113  10.187  0.00  0.00    +0.000 A 
ENDBRANCH   1   2
BRANCH   1  16
ATOM     12  C   UNL     1      47.158   5.624  14.138  0.00  0.00    +0.000 A 
ATOM     13  C   UNL     1      47.984   6.721  13.925  0.00  0.00    +0.000 A 
ATOM     14  N   UNL     1      47.743   7.649  12.971  0.00  0.00    +0.000 NA
ATOM     15  C   UNL     1      46.619   7.452  12.245  0.00  0.00    +0.000 A 
ATOM     16  C   UNL     1      45.770   6.368  12.444  0.00  0.00    +0.000 A 
ATOM     17  N   UNL     1      46.038   5.429  13.391  0.00  0.00    +0.000 NA
BRANCH  12  18
ATOM     18  C   UNL     1      47.476   4.608  15.208  0.00  0.00    +0.000 C 
BRANCH  18  19
ATOM     19  N   UNL     1      47.521   3.236  14.698  0.00  0.00    +0.000 NA
ATOM     20  H   UNL     1      47.524   3.269  13.679  0.00  0.00    +0.000 HD
ATOM     21  H   UNL     1      46.645   2.773  14.952  0.00  0.00    +0.000 HD
ENDBRANCH  18  19
ENDBRANCH  12  18
ENDBRANCH   1  16
TORSDOF 4
ENDMDL
MODEL 4
REMARK VINA RESULT:    -6.422      1.959      2.295
REMARK INTER + INTRA:          -7.870
REMARK INTER:                  -7.634
REMARK INTRA:                  -0.236
REMARK UNBOUND:                -0.135
REMARK  Name = 
REMARK  4 active torsions:
REMARK  status: ('A' for Active; 'I' for Inactive)
REMARK    1  A    between atoms: N_1  and  C_2
REMARK    2  A    between atoms: C_2  and  C_3
REMARK    3  A    between atoms: C_7  and  C_8
REMARK    4  A    between atoms: C_8  and  N_9
REMARK                            x       y       z     vdW  Elec       q    Type
REMARK                         _______ _______ _______ _____ _____    ______ ____
ROOT
ATOM      1  C   UNL     1      43.991   4.754  10.264  0.00  0.00    +0.000 C 
ENDROOT
BRANCH   1   2
ATOM      2  N   UNL     1      44.808   5.246  11.368  0.00  0.00    +0.000 N 
ATOM      3  C   UNL     1      45.596   4.448  12.161  0.00  0.00    +0.000 A 
ATOM      4  C   UNL     1      46.314   5.264  13.004  0.00  0.00    +0.000 A 
ATOM      5  C   UNL     1      45.962   6.608  12.713  0.00  0.00    +0.000 A 
ATOM      6  C   UNL     1      46.383   7.854  13.222  0.00  0.00    +0.000 A 
ATOM      7  C   UNL     1      45.836   9.032  12.698  0.00  0.00    +0.000 A 
ATOM      8  C   UNL     1      44.876   8.973  11.694  0.00  0.00    +0.000 A 
ATOM      9 CL   UNL     1      44.226  10.439  11.061  0.00  0.00    +0.000 Cl
ATOM     10  C   UNL     1      44.433   7.752  11.177  0.00  0.00    +0.000 A 
ATOM     11  C   UNL     1      45.004   6.576  11.695  0.00  0.00    +0.000 A 
ENDBRANCH   1   2
BRANCH   1  16
ATOM     12  C   UNL     1      46.203   3.294   7.699  0.00  0.00    +0.000 A 
ATOM     13  C   UNL     1      46.035   1.935   7.938  0.00  0.00    +0.000 A 
ATOM     14  N   UNL     1      45.238   1.453   8.919  0.00  0.00    +0.000 NA
ATOM     15  C   UNL     1      44.589   2.390   9.647  0.00  0.00    +0.000 A 
ATOM     16  C   UNL     1      44.732   3.755   9.424  0.00  0.00    +0.000 A 
ATOM     17  N   UNL     1      45.555   4.226   8.449  0.00  0.00    +0.000 NA
BRANCH  12  18
ATOM     18  C   UNL     1      47.113   3.783   6.599  0.00  0.00    +0.000 C 
BRANCH  18  19
ATOM     19  N   UNL     1      48.274   2.916   6.390  0.00  0.00    +0.000 NA
ATOM     20  H   UNL     1      49.047   3.486   6.045  0.00  0.00    +0.000 HD
ATOM     21  H   UNL     1      48.055   2.267   5.631  0.00  0.00    +0.000 HD
ENDBRANCH  18  19
ENDBRANCH  12  18
ENDBRANCH   1  16
TORSDOF 4
ENDMDL
MODEL 5
REMARK VINA RESULT:    -6.328      1.673      2.839
REMARK INTER + INTRA:          -7.757
REMARK INTER:                  -7.501
REMARK INTRA:                  -0.256
REMARK UNBOUND:                -0.135
REMARK  Name = 
REMARK  4 active torsions:
REMARK  status: ('A' for Active; 'I' for Inactive)
REMARK    1  A    between atoms: N_1  and  C_2
REMARK    2  A    between atoms: C_2  and  C_3
REMARK    3  A    between atoms: C_7  and  C_8
REMARK    4  A    between atoms: C_8  and  N_9
REMARK                            x       y       z     vdW  Elec       q    Type
REMARK                         _______ _______ _______ _____ _____    ______ ____
ROOT
ATOM      1  C   UNL     1      44.598   5.680  11.409  0.00  0.00    +0.000 C 
ENDROOT
BRANCH   1   2
ATOM      2  N   UNL     1      45.603   5.617  12.465  0.00  0.00    +0.000 N 
ATOM      3  C   UNL     1      45.686   4.608  13.393  0.00  0.00    +0.000 A 
ATOM      4  C   UNL     1      46.823   4.812  14.142  0.00  0.00    +0.000 A 
ATOM      5  C   UNL     1      47.463   5.980  13.650  0.00  0.00    +0.000 A 
ATOM      6  C   UNL     1      48.654   6.652  13.995  0.00  0.00    +0.000 A 
ATOM      7  C   UNL     1      49.024   7.803  13.288  0.00  0.00    +0.000 A 
ATOM      8  C   UNL     1      48.217   8.288  12.265  0.00  0.00    +0.000 A 
ATOM      9 CL   UNL     1      48.701   9.702  11.406  0.00  0.00    +0.000 Cl
ATOM     10  C   UNL     1      47.027   7.647  11.908  0.00  0.00    +0.000 A 
ATOM     11  C   UNL     1      46.675   6.480  12.609  0.00  0.00    +0.000 A 
ENDBRANCH   1   2
BRANCH   1  16
ATOM     12  C   UNL     1      45.346   3.249   8.739  0.00  0.00    +0.000 A 
ATOM     13  C   UNL     1      44.532   2.183   9.106  0.00  0.00    +0.000 A 
ATOM     14  N   UNL     1      43.748   2.202  10.207  0.00  0.00    +0.000 NA
ATOM     15  C   UNL     1      43.789   3.347  10.925  0.00  0.00    +0.000 A 
ATOM     16  C   UNL     1      44.587   4.431  10.576  0.00  0.00    +0.000 A 
ATOM     17  N   UNL     1      45.389   4.390   9.478  0.00  0.00    +0.000 NA
BRANCH  12  18
ATOM     18  C   UNL     1      46.214   3.175   7.506  0.00  0.00    +0.000 C 
BRANCH  18  19
ATOM     19  N   UNL     1      46.851   4.451   7.177  0.00  0.00    +0.000 NA
ATOM     20  H   UNL     1      47.335   4.352   6.284  0.00  0.00    +0.000 HD
ATOM     21  H   UNL     1      47.585   4.628   7.866  0.00  0.00    +0.000 HD
ENDBRANCH  18  19
ENDBRANCH  12  18
ENDBRANCH   1  16
TORSDOF 4
ENDMDL
MODEL 6
REMARK VINA RESULT:    -6.256      3.122      5.967
REMARK INTER + INTRA:          -7.670
REMARK INTER:                  -7.480
REMARK INTRA:                  -0.190
REMARK UNBOUND:                -0.135
REMARK  Name = 
REMARK  4 active torsions:
REMARK  status: ('A' for Active; 'I' for Inactive)
REMARK    1  A    between atoms: N_1  and  C_2
REMARK    2  A    between atoms: C_2  and  C_3
REMARK    3  A    between atoms: C_7  and  C_8
REMARK    4  A    between atoms: C_8  and  N_9
REMARK                            x       y       z     vdW  Elec       q    Type
REMARK                         _______ _______ _______ _____ _____    ______ ____
ROOT
ATOM      1  C   UNL     1      44.708   6.542  11.604  0.00  0.00    +0.000 C 
ENDROOT
BRANCH   1   2
ATOM      2  N   UNL     1      44.388   5.131  11.414  0.00  0.00    +0.000 N 
ATOM      3  C   UNL     1      43.577   4.404  12.250  0.00  0.00    +0.000 A 
ATOM      4  C   UNL     1      43.400   3.158  11.693  0.00  0.00    +0.000 A 
ATOM      5  C   UNL     1      44.120   3.123  10.470  0.00  0.00    +0.000 A 
ATOM      6  C   UNL     1      44.286   2.144   9.470  0.00  0.00    +0.000 A 
ATOM      7  C   UNL     1      45.072   2.433   8.347  0.00  0.00    +0.000 A 
ATOM      8  C   UNL     1      45.695   3.670   8.226  0.00  0.00    +0.000 A 
ATOM      9 CL   UNL     1      46.649   4.003   6.830  0.00  0.00    +0.000 Cl
ATOM     10  C   UNL     1      45.555   4.656   9.207  0.00  0.00    +0.000 A 
ATOM     11  C   UNL     1      44.747   4.364  10.320  0.00  0.00    +0.000 A 
ENDBRANCH   1   2
BRANCH   1  16
ATOM     12  C   UNL     1      47.891   8.094  12.634  0.00  0.00    +0.000 A 
ATOM     13  C   UNL     1      48.534   7.020  13.237  0.00  0.00    +0.000 A 
ATOM     14  N   UNL     1      47.973   5.794  13.349  0.00  0.00    +0.000 NA
ATOM     15  C   UNL     1      46.741   5.673  12.806  0.00  0.00    +0.000 A 
ATOM     16  C   UNL     1      46.078   6.729  12.188  0.00  0.00    +0.000 A 
ATOM     17  N   UNL     1      46.645   7.963  12.105  0.00  0.00    +0.000 NA
BRANCH  12  18
ATOM     18  C   UNL     1      48.555   9.447  12.546  0.00  0.00    +0.000 C 
BRANCH  18  19
ATOM     19  N   UNL     1      47.880  10.468  13.349  0.00  0.00    +0.000 NA
ATOM     20  H   UNL     1      47.362  10.004  14.095  0.00  0.00    +0.000 HD
ATOM     21  H   UNL     1      47.171  10.916  12.765  0.00  0.00    +0.000 HD
ENDBRANCH  18  19
ENDBRANCH  12  18
ENDBRANCH   1  16
TORSDOF 4
ENDMDL
MODEL 7
REMARK VINA RESULT:    -6.115      1.992      3.222
REMARK INTER + INTRA:          -7.501
REMARK INTER:                  -7.153
REMARK INTRA:                  -0.349
REMARK UNBOUND:                -0.135
REMARK  Name = 
REMARK  4 active torsions:
REMARK  status: ('A' for Active; 'I' for Inactive)
REMARK    1  A    between atoms: N_1  and  C_2
REMARK    2  A    between atoms: C_2  and  C_3
REMARK    3  A    between atoms: C_7  and  C_8
REMARK    4  A    between atoms: C_8  and  N_9
REMARK                            x       y       z     vdW  Elec       q    Type
REMARK                         _______ _______ _______ _____ _____    ______ ____
ROOT
ATOM      1  C   UNL     1      43.370   5.620  11.499  0.00  0.00    +0.000 C 
ENDROOT
BRANCH   1   2
ATOM      2  N   UNL     1      44.505   6.486  11.799  0.00  0.00    +0.000 N 
ATOM      3  C   UNL     1      44.619   7.786  11.371  0.00  0.00    +0.000 A 
ATOM      4  C   UNL     1      45.746   8.326  11.946  0.00  0.00    +0.000 A 
ATOM      5  C   UNL     1      46.339   7.327  12.761  0.00  0.00    +0.000 A 
ATOM      6  C   UNL     1      47.472   7.305  13.599  0.00  0.00    +0.000 A 
ATOM      7  C   UNL     1      47.790   6.133  14.298  0.00  0.00    +0.000 A 
ATOM      8  C   UNL     1      47.002   4.996  14.155  0.00  0.00    +0.000 A 
ATOM      9 CL   UNL     1      47.410   3.570  15.032  0.00  0.00    +0.000 Cl
ATOM     10  C   UNL     1      45.878   4.987  13.323  0.00  0.00    +0.000 A 
ATOM     11  C   UNL     1      45.555   6.174  12.643  0.00  0.00    +0.000 A 
ENDBRANCH   1   2
BRANCH   1  16
ATOM     12  C   UNL     1      44.863   3.476   8.896  0.00  0.00    +0.000 A 
ATOM     13  C   UNL     1      44.501   2.211   9.345  0.00  0.00    +0.000 A 
ATOM     14  N   UNL     1      43.798   2.008  10.482  0.00  0.00    +0.000 NA
ATOM     15  C   UNL     1      43.444   3.130  11.150  0.00  0.00    +0.000 A 
ATOM     16  C   UNL     1      43.786   4.407  10.718  0.00  0.00    +0.000 A 
ATOM     17  N   UNL     1      44.514   4.596   9.585  0.00  0.00    +0.000 NA
BRANCH  12  18
ATOM     18  C   UNL     1      45.660   3.651   7.626  0.00  0.00    +0.000 C 
BRANCH  18  19
ATOM     19  N   UNL     1      46.756   2.688   7.501  0.00  0.00    +0.000 NA
ATOM     20  H   UNL     1      47.403   3.024   6.787  0.00  0.00    +0.000 HD
ATOM     21  H   UNL     1      46.373   1.815   7.132  0.00  0.00    +0.000 HD
ENDBRANCH  18  19
ENDBRANCH  12  18
ENDBRANCH   1  16
TORSDOF 4
ENDMDL
MODEL 8
REMARK VINA RESULT:    -6.101      2.558      4.821
REMARK INTER + INTRA:          -7.484
REMARK INTER:                  -7.085
REMARK INTRA:                  -0.399
REMARK UNBOUND:                -0.135
REMARK  Name = 
REMARK  4 active torsions:
REMARK  status: ('A' for Active; 'I' for Inactive)
REMARK    1  A    between atoms: N_1  and  C_2
REMARK    2  A    between atoms: C_2  and  C_3
REMARK    3  A    between atoms: C_7  and  C_8
REMARK    4  A    between atoms: C_8  and  N_9
REMARK                            x       y       z     vdW  Elec       q    Type
REMARK                         _______ _______ _______ _____ _____    ______ ____
ROOT
ATOM      1  C   UNL     1      46.504   5.776  13.099  0.00  0.00    +0.000 C 
ENDROOT
BRANCH   1   2
ATOM      2  N   UNL     1      46.510   7.182  12.712  0.00  0.00    +0.000 N 
ATOM      3  C   UNL     1      45.438   8.029  12.860  0.00  0.00    +0.000 A 
ATOM      4  C   UNL     1      45.846   9.296  12.511  0.00  0.00    +0.000 A 
ATOM      5  C   UNL     1      47.217   9.226  12.147  0.00  0.00    +0.000 A 
ATOM      6  C   UNL     1      48.161  10.189  11.735  0.00  0.00    +0.000 A 
ATOM      7  C   UNL     1      49.473   9.789  11.454  0.00  0.00    +0.000 A 
ATOM      8  C   UNL     1      49.839   8.452  11.566  0.00  0.00    +0.000 A 
ATOM      9 CL   UNL     1      51.463   7.988  11.221  0.00  0.00    +0.000 Cl
ATOM     10  C   UNL     1      48.920   7.475  11.962  0.00  0.00    +0.000 A 
ATOM     11  C   UNL     1      47.611   7.890  12.263  0.00  0.00    +0.000 A 
ENDBRANCH   1   2
BRANCH   1  16
ATOM     12  C   UNL     1      44.447   4.181  10.486  0.00  0.00    +0.000 A 
ATOM     13  C   UNL     1      43.404   3.658  11.243  0.00  0.00    +0.000 A 
ATOM     14  N   UNL     1      43.338   3.781  12.588  0.00  0.00    +0.000 NA
ATOM     15  C   UNL     1      44.351   4.475  13.154  0.00  0.00    +0.000 A 
ATOM     16  C   UNL     1      45.401   5.016  12.420  0.00  0.00    +0.000 A 
ATOM     17  N   UNL     1      45.467   4.865  11.070  0.00  0.00    +0.000 NA
BRANCH  12  18
ATOM     18  C   UNL     1      44.482   4.006   8.987  0.00  0.00    +0.000 C 
BRANCH  18  19
ATOM     19  N   UNL     1      45.473   4.865   8.335  0.00  0.00    +0.000 NA
ATOM     20  H   UNL     1      46.347   4.346   8.251  0.00  0.00    +0.000 HD
ATOM     21  H   UNL     1      45.679   5.646   8.961  0.00  0.00    +0.000 HD
ENDBRANCH  18  19
ENDBRANCH  12  18
ENDBRANCH   1  16
TORSDOF 4
ENDMDL
MODEL 9
REMARK VINA RESULT:    -5.937      4.606      7.326
REMARK INTER + INTRA:          -7.286
REMARK INTER:                  -6.892
REMARK INTRA:                  -0.394
REMARK UNBOUND:                -0.135
REMARK  Name = 
REMARK  4 active torsions:
REMARK  status: ('A' for Active; 'I' for Inactive)
REMARK    1  A    between atoms: N_1  and  C_2
REMARK    2  A    between atoms: C_2  and  C_3
REMARK    3  A    between atoms: C_7  and  C_8
REMARK    4  A    between atoms: C_8  and  N_9
REMARK                            x       y       z     vdW  Elec       q    Type
REMARK                         _______ _______ _______ _____ _____    ______ ____
ROOT
ATOM      1  C   UNL     1      47.887   5.974  12.896  0.00  0.00    +0.000 C 
ENDROOT
BRANCH   1   2
ATOM      2  N   UNL     1      46.598   6.559  12.541  0.00  0.00    +0.000 N 
ATOM      3  C   UNL     1      46.397   7.897  12.301  0.00  0.00    +0.000 A 
ATOM      4  C   UNL     1      45.100   8.061  11.872  0.00  0.00    +0.000 A 
ATOM      5  C   UNL     1      44.488   6.781  11.839  0.00  0.00    +0.000 A 
ATOM      6  C   UNL     1      43.206   6.328  11.464  0.00  0.00    +0.000 A 
ATOM      7  C   UNL     1      42.911   4.960  11.535  0.00  0.00    +0.000 A 
ATOM      8  C   UNL     1      43.870   4.059  11.986  0.00  0.00    +0.000 A 
ATOM      9 CL   UNL     1      43.483   2.381  12.057  0.00  0.00    +0.000 Cl
ATOM     10  C   UNL     1      45.144   4.482  12.373  0.00  0.00    +0.000 A 
ATOM     11  C   UNL     1      45.438   5.853  12.277  0.00  0.00    +0.000 A 
ENDBRANCH   1   2
BRANCH   1  16
ATOM     12  C   UNL     1      48.129   4.852  16.401  0.00  0.00    +0.000 A 
ATOM     13  C   UNL     1      48.511   6.028  17.037  0.00  0.00    +0.000 A 
ATOM     14  N   UNL     1      48.717   7.189  16.374  0.00  0.00    +0.000 NA
ATOM     15  C   UNL     1      48.501   7.138  15.040  0.00  0.00    +0.000 A 
ATOM     16  C   UNL     1      48.110   5.977  14.380  0.00  0.00    +0.000 A 
ATOM     17  N   UNL     1      47.929   4.811  15.056  0.00  0.00    +0.000 NA
BRANCH  12  18
ATOM     18  C   UNL     1      47.924   3.578  17.183  0.00  0.00    +0.000 C 
BRANCH  18  19
ATOM     19  N   UNL     1      46.513   3.293  17.454  0.00  0.00    +0.000 NA
ATOM     20  H   UNL     1      45.984   4.160  17.358  0.00  0.00    +0.000 HD
ATOM     21  H   UNL     1      46.424   3.027  18.436  0.00  0.00    +0.000 HD
ENDBRANCH  18  19
ENDBRANCH  12  18
ENDBRANCH   1  16
TORSDOF 4
ENDMDL
