MODEL 1
REMARK VINA RESULT:    -8.949      0.000      0.000
REMARK INTER + INTRA:         -13.411
REMARK INTER:                 -12.611
REMARK INTRA:                  -0.799
REMARK UNBOUND:                -0.799
REMARK  Name = 
REMARK  7 active torsions:
REMARK  status: ('A' for Active; 'I' for Inactive)
REMARK    1  A    between atoms: C_2  and  C_20
REMARK    2  A    between atoms: N_3  and  C_4
REMARK    3  A    between atoms: C_4  and  C_5
REMARK    4  A    between atoms: C_8  and  C_9
REMARK    5  A    between atoms: C_9  and  N_10
REMARK    6  A    between atoms: N_10  and  C_11
REMARK    7  A    between atoms: C_11  and  C_12
REMARK                            x       y       z     vdW  Elec       q    Type
REMARK                         _______ _______ _______ _____ _____    ______ ____
ROOT
ATOM      1  C   UNL     1      46.075   4.396  14.778  0.00  0.00    +0.000 C 
ENDROOT
BRANCH   1   2
ATOM      2  C   UNL     1      46.302   4.673  13.282  0.00  0.00    +0.000 C 
ATOM      3  C   UNL     1      45.905   3.476  12.398  0.00  0.00    +0.000 C 
ATOM      4  C   UNL     1      44.395   3.250  12.373  0.00  0.00    +0.000 C 
ATOM      5  C   UNL     1      43.626   4.512  11.946  0.00  0.00    +0.000 C 
ATOM      6  C   UNL     1      44.030   5.719  12.807  0.00  0.00    +0.000 C 
ATOM      7  C   UNL     1      45.539   5.937  12.855  0.00  0.00    +0.000 C 
BRANCH   5   8
ATOM      8  C   UNL     1      43.786   4.827  10.437  0.00  0.00    +0.000 C 
BRANCH   8   9
ATOM      9  N   UNL     1      44.107   3.672   9.595  0.00  0.00    +0.000 NA
ATOM     10  H   UNL     1      43.263   3.137   9.393  0.00  0.00    +0.000 HD
BRANCH   9  11
ATOM     11  C   UNL     1      44.749   4.062   8.343  0.00  0.00    +0.000 C 
BRANCH  11  12
ATOM     12  C   UNL     1      45.779   3.055   7.911  0.00  0.00    +0.000 A 
ATOM     13  C   UNL     1      45.731   1.743   8.391  0.00  0.00    +0.000 A 
ATOM     14  C   UNL     1      46.682   0.838   7.946  0.00  0.00    +0.000 A 
ATOM     15  N   UNL     1      47.659   1.147   7.072  0.00  0.00    +0.000 NA
ATOM     16  C   UNL     1      47.690   2.422   6.621  0.00  0.00    +0.000 A 
ATOM     17  C   UNL     1      46.784   3.398   7.003  0.00  0.00    +0.000 A 
ENDBRANCH  11  12
ENDBRANCH   9  11
ENDBRANCH   8   9
ENDBRANCH   5   8
ENDBRANCH   1   2
BRANCH   1  20
ATOM     18  O   UNL     1      46.646   3.237  17.286  0.00  0.00    +0.000 OA
ATOM     19  C   UNL     1      47.489   3.949  16.754  0.00  0.00    +0.000 C 
ATOM     20  N   UNL     1      47.281   4.564  15.549  0.00  0.00    +0.000 N 
ATOM     21  H   UNL     1      48.020   5.114  15.126  0.00  0.00    +0.000 HD
BRANCH  19  22
ATOM     22  C   UNL     1      48.781   4.225  17.389  0.00  0.00    +0.000 A 
ATOM     23  C   UNL     1      48.967   5.412  18.084  0.00  0.00    +0.000 A 
ATOM     24  S   UNL     1      50.518   5.557  18.775  0.00  0.00    +0.000 S 
ATOM     25  C   UNL     1      50.980   4.022  18.202  0.00  0.00    +0.000 A 
ATOM     26  N   UNL     1      52.207   3.508  18.485  0.00  0.00    +0.000 NA
ATOM     27  C   UNL     1      52.409   2.320  18.023  0.00  0.00    +0.000 A 
ATOM     28  N   UNL     1      51.504   1.605  17.286  0.00  0.00    +0.000 N 
ATOM     29  C   UNL     1      50.286   2.116  16.902  0.00  0.00    +0.000 A 
ATOM     30  O   UNL     1      49.572   1.508  16.113  0.00  0.00    +0.000 OA
ATOM     31  C   UNL     1      49.981   3.424  17.455  0.00  0.00    +0.000 A 
ATOM     32  H   UNL     1      51.738   0.696  16.917  0.00  0.00    +0.000 HD
ENDBRANCH  19  22
ENDBRANCH   1  20
TORSDOF 7
ENDMDL
MODEL 2
REMARK VINA RESULT:    -8.447      2.011      2.835
REMARK INTER + INTRA:         -12.703
REMARK INTER:                 -11.517
REMARK INTRA:                  -1.185
REMARK UNBOUND:                -0.799
REMARK  Name = 
REMARK  7 active torsions:
REMARK  status: ('A' for Active; 'I' for Inactive)
REMARK    1  A    between atoms: C_2  and  C_20
REMARK    2  A    between atoms: N_3  and  C_4
REMARK    3  A    between atoms: C_4  and  C_5
REMARK    4  A    between atoms: C_8  and  C_9
REMARK    5  A    between atoms: C_9  and  N_10
REMARK    6  A    between atoms: N_10  and  C_11
REMARK    7  A    between atoms: C_11  and  C_12
REMARK                            x       y       z     vdW  Elec       q    Type
REMARK                         _______ _______ _______ _____ _____    ______ ____
ROOT
ATOM      1  C   UNL     1      46.923   7.307  13.118  0.00  0.00    +0.000 C 
ENDROOT
BRANCH   1   2
ATOM      2  C   UNL     1      45.445   6.993  12.824  0.00  0.00    +0.000 C 
ATOM      3  C   UNL     1      45.084   7.214  11.344  0.00  0.00    +0.000 C 
ATOM      4  C   UNL     1      45.735   6.181  10.428  0.00  0.00    +0.000 C 
ATOM      5  C   UNL     1      45.405   4.739  10.853  0.00  0.00    +0.000 C 
ATOM      6  C   UNL     1      45.742   4.512  12.334  0.00  0.00    +0.000 C 
ATOM      7  C   UNL     1      45.114   5.556  13.253  0.00  0.00    +0.000 C 
BRANCH   5   8
ATOM      8  C   UNL     1      43.937   4.348  10.550  0.00  0.00    +0.000 C 
BRANCH   8   9
ATOM      9  N   UNL     1      43.754   3.499   9.370  0.00  0.00    +0.000 NA
ATOM     10  H   UNL     1      43.961   4.024   8.522  0.00  0.00    +0.000 HD
BRANCH   9  11
ATOM     11  C   UNL     1      44.585   2.300   9.417  0.00  0.00    +0.000 C 
BRANCH  11  12
ATOM     12  C   UNL     1      45.596   2.281   8.303  0.00  0.00    +0.000 A 
ATOM     13  C   UNL     1      45.772   3.404   7.490  0.00  0.00    +0.000 A 
ATOM     14  C   UNL     1      46.734   3.357   6.493  0.00  0.00    +0.000 A 
ATOM     15  N   UNL     1      47.516   2.286   6.257  0.00  0.00    +0.000 NA
ATOM     16  C   UNL     1      47.328   1.209   7.053  0.00  0.00    +0.000 A 
ATOM     17  C   UNL     1      46.396   1.160   8.077  0.00  0.00    +0.000 A 
ENDBRANCH  11  12
ENDBRANCH   9  11
ENDBRANCH   8   9
ENDBRANCH   5   8
ENDBRANCH   1   2
BRANCH   1  20
ATOM     18  O   UNL     1      49.575   6.916  13.997  0.00  0.00    +0.000 OA
ATOM     19  C   UNL     1      48.650   6.665  14.762  0.00  0.00    +0.000 C 
ATOM     20  N   UNL     1      47.337   6.808  14.404  0.00  0.00    +0.000 N 
ATOM     21  H   UNL     1      46.605   6.626  15.081  0.00  0.00    +0.000 HD
BRANCH  19  22
ATOM     22  C   UNL     1      48.884   6.156  16.117  0.00  0.00    +0.000 A 
ATOM     23  C   UNL     1      49.608   6.918  17.024  0.00  0.00    +0.000 A 
ATOM     24  S   UNL     1      49.764   6.185  18.554  0.00  0.00    +0.000 S 
ATOM     25  C   UNL     1      48.837   4.842  18.069  0.00  0.00    +0.000 A 
ATOM     26  N   UNL     1      48.551   3.837  18.938  0.00  0.00    +0.000 NA
ATOM     27  C   UNL     1      47.807   2.902  18.451  0.00  0.00    +0.000 A 
ATOM     28  N   UNL     1      47.337   2.870  17.165  0.00  0.00    +0.000 N 
ATOM     29  C   UNL     1      47.671   3.817  16.226  0.00  0.00    +0.000 A 
ATOM     30  O   UNL     1      47.362   3.671  15.049  0.00  0.00    +0.000 OA
ATOM     31  C   UNL     1      48.451   4.929  16.744  0.00  0.00    +0.000 A 
ATOM     32  H   UNL     1      46.794   2.088  16.831  0.00  0.00    +0.000 HD
ENDBRANCH  19  22
ENDBRANCH   1  20
TORSDOF 7
ENDMDL
MODEL 3
REMARK VINA RESULT:    -7.320      4.059      4.816
REMARK INTER + INTRA:         -11.114
REMARK INTER:                 -10.314
REMARK INTRA:                  -0.800
REMARK UNBOUND:                -0.799
REMARK  Name = 
REMARK  7 active torsions:
REMARK  status: ('A' for Active; 'I' for Inactive)
REMARK    1  A    between atoms: C_2  and  C_20
REMARK    2  A    between atoms: N_3  and  C_4
REMARK    3  A    between atoms: C_4  and  C_5
REMARK    4  A    between atoms: C_8  and  C_9
REMARK    5  A    between atoms: C_9  and  N_10
REMARK    6  A    between atoms: N_10  and  C_11
REMARK    7  A    between atoms: C_11  and  C_12
REMARK                            x       y       z     vdW  Elec       q    Type
REMARK                         _______ _______ _______ _____ _____    ______ ____
ROOT
ATOM      1  C   UNL     1      45.617   7.339  12.779  0.00  0.00    +0.000 C 
ENDROOT
BRANCH   1   2
ATOM      2  C   UNL     1      44.895   6.743  11.558  0.00  0.00    +0.000 C 
ATOM      3  C   UNL     1      45.688   5.589  10.916  0.00  0.00    +0.000 C 
ATOM      4  C   UNL     1      45.723   4.347  11.803  0.00  0.00    +0.000 C 
ATOM      5  C   UNL     1      44.313   3.876  12.198  0.00  0.00    +0.000 C 
ATOM      6  C   UNL     1      43.505   5.025  12.821  0.00  0.00    +0.000 C 
ATOM      7  C   UNL     1      43.485   6.278  11.951  0.00  0.00    +0.000 C 
BRANCH   5   8
ATOM      8  C   UNL     1      43.544   3.232  11.018  0.00  0.00    +0.000 C 
BRANCH   8   9
ATOM      9  N   UNL     1      44.365   2.422  10.113  0.00  0.00    +0.000 NA
ATOM     10  H   UNL     1      43.935   1.510   9.968  0.00  0.00    +0.000 HD
BRANCH   9  11
ATOM     11  C   UNL     1      44.576   3.074   8.824  0.00  0.00    +0.000 C 
BRANCH  11  12
ATOM     12  C   UNL     1      45.752   2.489   8.092  0.00  0.00    +0.000 A 
ATOM     13  C   UNL     1      46.585   3.308   7.323  0.00  0.00    +0.000 A 
ATOM     14  C   UNL     1      47.675   2.735   6.687  0.00  0.00    +0.000 A 
ATOM     15  N   UNL     1      47.985   1.426   6.764  0.00  0.00    +0.000 NA
ATOM     16  C   UNL     1      47.165   0.651   7.510  0.00  0.00    +0.000 A 
ATOM     17  C   UNL     1      46.054   1.129   8.186  0.00  0.00    +0.000 A 
ENDBRANCH  11  12
ENDBRANCH   9  11
ENDBRANCH   8   9
ENDBRANCH   5   8
ENDBRANCH   1   2
BRANCH   1  20
ATOM     18  O   UNL     1      47.329   8.846  14.440  0.00  0.00    +0.000 OA
ATOM     19  C   UNL     1      47.715   8.524  13.322  0.00  0.00    +0.000 C 
ATOM     20  N   UNL     1      46.938   7.812  12.450  0.00  0.00    +0.000 N 
ATOM     21  H   UNL     1      47.311   7.534  11.549  0.00  0.00    +0.000 HD
BRANCH  19  22
ATOM     22  C   UNL     1      49.037   8.910  12.821  0.00  0.00    +0.000 A 
ATOM     23  C   UNL     1      49.139   9.787  11.749  0.00  0.00    +0.000 A 
ATOM     24  S   UNL     1      50.747  10.142  11.313  0.00  0.00    +0.000 S 
ATOM     25  C   UNL     1      51.363   9.168  12.565  0.00  0.00    +0.000 A 
ATOM     26  N   UNL     1      52.701   9.062  12.778  0.00  0.00    +0.000 NA
ATOM     27  C   UNL     1      53.028   8.324  13.785  0.00  0.00    +0.000 A 
ATOM     28  N   UNL     1      52.137   7.664  14.589  0.00  0.00    +0.000 N 
ATOM     29  C   UNL     1      50.782   7.670  14.361  0.00  0.00    +0.000 A 
ATOM     30  O   UNL     1      50.034   6.942  15.003  0.00  0.00    +0.000 OA
ATOM     31  C   UNL     1      50.357   8.543  13.280  0.00  0.00    +0.000 A 
ATOM     32  H   UNL     1      52.457   7.066  15.336  0.00  0.00    +0.000 HD
ENDBRANCH  19  22
ENDBRANCH   1  20
TORSDOF 7
ENDMDL
MODEL 4
REMARK VINA RESULT:    -7.165      3.761      4.671
REMARK INTER + INTRA:         -10.896
REMARK INTER:                  -9.800
REMARK INTRA:                  -1.096
REMARK UNBOUND:                -0.799
REMARK  Name = 
REMARK  7 active torsions:
REMARK  status: ('A' for Active; 'I' for Inactive)
REMARK    1  A    between atoms: C_2  and  C_20
REMARK    2  A    between atoms: N_3  and  C_4
REMARK    3  A    between atoms: C_4  and  C_5
REMARK    4  A    between atoms: C_8  and  C_9
REMARK    5  A    between atoms: C_9  and  N_10
REMARK    6  A    between atoms: N_10  and  C_11
REMARK    7  A    between atoms: C_11  and  C_12
REMARK                            x       y       z     vdW  Elec       q    Type
REMARK                         _______ _______ _______ _____ _____    ______ ____
ROOT
ATOM      1  C   UNL     1      46.476   5.401  14.006  0.00  0.00    +0.000 C 
ENDROOT
BRANCH   1   2
ATOM      2  C   UNL     1      45.145   5.659  13.279  0.00  0.00    +0.000 C 
ATOM      3  C   UNL     1      45.312   6.598  12.070  0.00  0.00    +0.000 C 
ATOM      4  C   UNL     1      46.084   5.940  10.928  0.00  0.00    +0.000 C 
ATOM      5  C   UNL     1      45.450   4.608  10.492  0.00  0.00    +0.000 C 
ATOM      6  C   UNL     1      45.259   3.670  11.694  0.00  0.00    +0.000 C 
ATOM      7  C   UNL     1      44.509   4.329  12.848  0.00  0.00    +0.000 C 
BRANCH   5   8
ATOM      8  C   UNL     1      44.120   4.802   9.722  0.00  0.00    +0.000 C 
BRANCH   8   9
ATOM      9  N   UNL     1      44.037   4.092   8.442  0.00  0.00    +0.000 NA
ATOM     10  H   UNL     1      44.632   4.544   7.749  0.00  0.00    +0.000 HD
BRANCH   9  11
ATOM     11  C   UNL     1      44.412   2.687   8.564  0.00  0.00    +0.000 C 
BRANCH  11  12
ATOM     12  C   UNL     1      45.682   2.384   7.817  0.00  0.00    +0.000 A 
ATOM     13  C   UNL     1      46.334   1.161   7.998  0.00  0.00    +0.000 A 
ATOM     14  C   UNL     1      47.486   0.909   7.270  0.00  0.00    +0.000 A 
ATOM     15  N   UNL     1      48.022   1.779   6.391  0.00  0.00    +0.000 NA
ATOM     16  C   UNL     1      47.378   2.957   6.234  0.00  0.00    +0.000 A 
ATOM     17  C   UNL     1      46.220   3.301   6.911  0.00  0.00    +0.000 A 
ENDBRANCH  11  12
ENDBRANCH   9  11
ENDBRANCH   8   9
ENDBRANCH   5   8
ENDBRANCH   1   2
BRANCH   1  20
ATOM     18  O   UNL     1      48.830   5.730  15.527  0.00  0.00    +0.000 OA
ATOM     19  C   UNL     1      48.432   6.661  14.836  0.00  0.00    +0.000 C 
ATOM     20  N   UNL     1      47.289   6.587  14.087  0.00  0.00    +0.000 N 
ATOM     21  H   UNL     1      47.017   7.368  13.500  0.00  0.00    +0.000 HD
BRANCH  19  22
ATOM     22  C   UNL     1      49.138   7.944  14.787  0.00  0.00    +0.000 A 
ATOM     23  C   UNL     1      49.368   8.650  15.961  0.00  0.00    +0.000 A 
ATOM     24  S   UNL     1      50.219  10.106  15.721  0.00  0.00    +0.000 S 
ATOM     25  C   UNL     1      50.344   9.825  14.047  0.00  0.00    +0.000 A 
ATOM     26  N   UNL     1      51.008  10.693  13.238  0.00  0.00    +0.000 NA
ATOM     27  C   UNL     1      51.061  10.337  11.998  0.00  0.00    +0.000 A 
ATOM     28  N   UNL     1      50.492   9.200  11.489  0.00  0.00    +0.000 N 
ATOM     29  C   UNL     1      49.738   8.339  12.250  0.00  0.00    +0.000 A 
ATOM     30  O   UNL     1      49.115   7.421  11.728  0.00  0.00    +0.000 OA
ATOM     31  C   UNL     1      49.706   8.658  13.668  0.00  0.00    +0.000 A 
ATOM     32  H   UNL     1      50.531   8.999  10.501  0.00  0.00    +0.000 HD
ENDBRANCH  19  22
ENDBRANCH   1  20
TORSDOF 7
ENDMDL
MODEL 5
REMARK VINA RESULT:    -6.701      2.614      3.419
REMARK INTER + INTRA:         -10.242
REMARK INTER:                  -9.187
REMARK INTRA:                  -1.054
REMARK UNBOUND:                -0.799
REMARK  Name = 
REMARK  7 active torsions:
REMARK  status: ('A' for Active; 'I' for Inactive)
REMARK    1  A    between atoms: C_2  and  C_20
REMARK    2  A    between atoms: N_3  and  C_4
REMARK    3  A    between atoms: C_4  and  C_5
REMARK    4  A    between atoms: C_8  and  C_9
REMARK    5  A    between atoms: C_9  and  N_10
REMARK    6  A    between atoms: N_10  and  C_11
REMARK    7  A    between atoms: C_11  and  C_12
REMARK                            x       y       z     vdW  Elec       q    Type
REMARK                         _______ _______ _______ _____ _____    ______ ____
ROOT
ATOM      1  C   UNL     1      47.504   5.742  13.985  0.00  0.00    +0.000 C 
ENDROOT
BRANCH   1   2
ATOM      2  C   UNL     1      46.002   5.774  13.657  0.00  0.00    +0.000 C 
ATOM      3  C   UNL     1      45.698   6.587  12.384  0.00  0.00    +0.000 C 
ATOM      4  C   UNL     1      46.204   5.894  11.121  0.00  0.00    +0.000 C 
ATOM      5  C   UNL     1      45.659   4.461  10.987  0.00  0.00    +0.000 C 
ATOM      6  C   UNL     1      45.938   3.647  12.259  0.00  0.00    +0.000 C 
ATOM      7  C   UNL     1      45.456   4.344  13.528  0.00  0.00    +0.000 C 
BRANCH   5   8
ATOM      8  C   UNL     1      44.154   4.425  10.622  0.00  0.00    +0.000 C 
BRANCH   8   9
ATOM      9  N   UNL     1      43.820   3.607   9.452  0.00  0.00    +0.000 NA
ATOM     10  H   UNL     1      42.816   3.626   9.283  0.00  0.00    +0.000 HD
BRANCH   9  11
ATOM     11  C   UNL     1      44.526   4.045   8.252  0.00  0.00    +0.000 C 
BRANCH  11  12
ATOM     12  C   UNL     1      45.554   3.038   7.814  0.00  0.00    +0.000 A 
ATOM     13  C   UNL     1      45.589   1.767   8.392  0.00  0.00    +0.000 A 
ATOM     14  C   UNL     1      46.533   0.858   7.941  0.00  0.00    +0.000 A 
ATOM     15  N   UNL     1      47.428   1.127   6.970  0.00  0.00    +0.000 NA
ATOM     16  C   UNL     1      47.380   2.364   6.426  0.00  0.00    +0.000 A 
ATOM     17  C   UNL     1      46.472   3.340   6.806  0.00  0.00    +0.000 A 
ENDBRANCH  11  12
ENDBRANCH   9  11
ENDBRANCH   8   9
ENDBRANCH   5   8
ENDBRANCH   1   2
BRANCH   1  20
ATOM     18  O   UNL     1      49.673   7.501  14.390  0.00  0.00    +0.000 OA
ATOM     19  C   UNL     1      48.876   7.318  15.303  0.00  0.00    +0.000 C 
ATOM     20  N   UNL     1      47.811   6.465  15.192  0.00  0.00    +0.000 N 
ATOM     21  H   UNL     1      47.155   6.372  15.959  0.00  0.00    +0.000 HD
BRANCH  19  22
ATOM     22  C   UNL     1      49.024   7.978  16.603  0.00  0.00    +0.000 A 
ATOM     23  C   UNL     1      49.213   9.352  16.660  0.00  0.00    +0.000 A 
ATOM     24  S   UNL     1      49.344   9.953  18.250  0.00  0.00    +0.000 S 
ATOM     25  C   UNL     1      49.114   8.404  18.916  0.00  0.00    +0.000 A 
ATOM     26  N   UNL     1      49.075   8.218  20.262  0.00  0.00    +0.000 NA
ATOM     27  C   UNL     1      48.854   7.001  20.630  0.00  0.00    +0.000 A 
ATOM     28  N   UNL     1      48.686   5.946  19.773  0.00  0.00    +0.000 N 
ATOM     29  C   UNL     1      48.803   6.069  18.409  0.00  0.00    +0.000 A 
ATOM     30  O   UNL     1      48.804   5.078  17.687  0.00  0.00    +0.000 OA
ATOM     31  C   UNL     1      48.983   7.433  17.940  0.00  0.00    +0.000 A 
ATOM     32  H   UNL     1      48.558   5.009  20.123  0.00  0.00    +0.000 HD
ENDBRANCH  19  22
ENDBRANCH   1  20
TORSDOF 7
ENDMDL
MODEL 6
REMARK VINA RESULT:    -6.546      3.207      4.745
REMARK INTER + INTRA:         -10.024
REMARK INTER:                  -8.581
REMARK INTRA:                  -1.443
REMARK UNBOUND:                -0.799
REMARK  Name = 
REMARK  7 active torsions:
REMARK  status: ('A' for Active; 'I' for Inactive)
REMARK    1  A    between atoms: C_2  and  C_20
REMARK    2  A    between atoms: N_3  and  C_4
REMARK    3  A    between atoms: C_4  and  C_5
REMARK    4  A    between atoms: C_8  and  C_9
REMARK    5  A    between atoms: C_9  and  N_10
REMARK    6  A    between atoms: N_10  and  C_11
REMARK    7  A    between atoms: C_11  and  C_12
REMARK                            x       y       z     vdW  Elec       q    Type
REMARK                         _______ _______ _______ _____ _____    ______ ____
ROOT
ATOM      1  C   UNL     1      49.946   7.902  13.533  0.00  0.00    +0.000 C 
ENDROOT
BRANCH   1   2
ATOM      2  C   UNL     1      48.913   7.538  12.452  0.00  0.00    +0.000 C 
ATOM      3  C   UNL     1      47.557   7.126  13.053  0.00  0.00    +0.000 C 
ATOM      4  C   UNL     1      46.826   8.303  13.696  0.00  0.00    +0.000 C 
ATOM      5  C   UNL     1      46.647   9.477  12.718  0.00  0.00    +0.000 C 
ATOM      6  C   UNL     1      47.991   9.884  12.096  0.00  0.00    +0.000 C 
ATOM      7  C   UNL     1      48.737   8.709  11.472  0.00  0.00    +0.000 C 
BRANCH   5   8
ATOM      8  C   UNL     1      45.591   9.187  11.622  0.00  0.00    +0.000 C 
BRANCH   8   9
ATOM      9  N   UNL     1      44.474   8.338  12.048  0.00  0.00    +0.000 NA
ATOM     10  H   UNL     1      43.637   8.902  12.190  0.00  0.00    +0.000 HD
BRANCH   9  11
ATOM     11  C   UNL     1      44.190   7.276  11.088  0.00  0.00    +0.000 C 
BRANCH  11  12
ATOM     12  C   UNL     1      44.237   5.918  11.734  0.00  0.00    +0.000 A 
ATOM     13  C   UNL     1      43.278   5.553  12.683  0.00  0.00    +0.000 A 
ATOM     14  C   UNL     1      43.339   4.282  13.233  0.00  0.00    +0.000 A 
ATOM     15  N   UNL     1      44.275   3.369  12.908  0.00  0.00    +0.000 NA
ATOM     16  C   UNL     1      45.195   3.743  11.991  0.00  0.00    +0.000 A 
ATOM     17  C   UNL     1      45.217   4.987  11.381  0.00  0.00    +0.000 A 
ENDBRANCH  11  12
ENDBRANCH   9  11
ENDBRANCH   8   9
ENDBRANCH   5   8
ENDBRANCH   1   2
BRANCH   1  20
ATOM     18  O   UNL     1      49.379   8.525  16.226  0.00  0.00    +0.000 OA
ATOM     19  C   UNL     1      49.613   7.361  15.920  0.00  0.00    +0.000 C 
ATOM     20  N   UNL     1      49.916   6.981  14.641  0.00  0.00    +0.000 N 
ATOM     21  H   UNL     1      50.065   6.002  14.425  0.00  0.00    +0.000 HD
BRANCH  19  22
ATOM     22  C   UNL     1      49.617   6.286  16.916  0.00  0.00    +0.000 A 
ATOM     23  C   UNL     1      50.471   6.362  18.009  0.00  0.00    +0.000 A 
ATOM     24  S   UNL     1      50.328   5.040  19.074  0.00  0.00    +0.000 S 
ATOM     25  C   UNL     1      49.094   4.341  18.134  0.00  0.00    +0.000 A 
ATOM     26  N   UNL     1      48.489   3.185  18.518  0.00  0.00    +0.000 NA
ATOM     27  C   UNL     1      47.543   2.789  17.734  0.00  0.00    +0.000 A 
ATOM     28  N   UNL     1      47.158   3.433  16.589  0.00  0.00    +0.000 N 
ATOM     29  C   UNL     1      47.796   4.555  16.115  0.00  0.00    +0.000 A 
ATOM     30  O   UNL     1      47.527   5.010  15.009  0.00  0.00    +0.000 OA
ATOM     31  C   UNL     1      48.823   5.082  16.998  0.00  0.00    +0.000 A 
ATOM     32  H   UNL     1      46.439   3.050  15.995  0.00  0.00    +0.000 HD
ENDBRANCH  19  22
ENDBRANCH   1  20
TORSDOF 7
ENDMDL
MODEL 7
REMARK VINA RESULT:    -6.147      2.935      3.851
REMARK INTER + INTRA:          -9.462
REMARK INTER:                  -8.315
REMARK INTRA:                  -1.147
REMARK UNBOUND:                -0.799
REMARK  Name = 
REMARK  7 active torsions:
REMARK  status: ('A' for Active; 'I' for Inactive)
REMARK    1  A    between atoms: C_2  and  C_20
REMARK    2  A    between atoms: N_3  and  C_4
REMARK    3  A    between atoms: C_4  and  C_5
REMARK    4  A    between atoms: C_8  and  C_9
REMARK    5  A    between atoms: C_9  and  N_10
REMARK    6  A    between atoms: N_10  and  C_11
REMARK    7  A    between atoms: C_11  and  C_12
REMARK                            x       y       z     vdW  Elec       q    Type
REMARK                         _______ _______ _______ _____ _____    ______ ____
ROOT
ATOM      1  C   UNL     1      50.031   7.800  13.826  0.00  0.00    +0.000 C 
ENDROOT
BRANCH   1   2
ATOM      2  C   UNL     1      48.734   8.564  13.508  0.00  0.00    +0.000 C 
ATOM      3  C   UNL     1      48.492   8.701  11.994  0.00  0.00    +0.000 C 
ATOM      4  C   UNL     1      48.149   7.366  11.338  0.00  0.00    +0.000 C 
ATOM      5  C   UNL     1      46.950   6.679  12.015  0.00  0.00    +0.000 C 
ATOM      6  C   UNL     1      47.171   6.554  13.530  0.00  0.00    +0.000 C 
ATOM      7  C   UNL     1      47.537   7.881  14.188  0.00  0.00    +0.000 C 
BRANCH   5   8
ATOM      8  C   UNL     1      45.605   7.382  11.704  0.00  0.00    +0.000 C 
BRANCH   8   9
ATOM      9  N   UNL     1      44.699   6.627  10.834  0.00  0.00    +0.000 NA
ATOM     10  H   UNL     1      45.006   6.690   9.865  0.00  0.00    +0.000 HD
BRANCH   9  11
ATOM     11  C   UNL     1      44.599   5.224  11.224  0.00  0.00    +0.000 C 
BRANCH  11  12
ATOM     12  C   UNL     1      44.985   4.306  10.096  0.00  0.00    +0.000 A 
ATOM     13  C   UNL     1      44.625   2.956  10.130  0.00  0.00    +0.000 A 
ATOM     14  C   UNL     1      44.974   2.149   9.058  0.00  0.00    +0.000 A 
ATOM     15  N   UNL     1      45.645   2.590   7.976  0.00  0.00    +0.000 NA
ATOM     16  C   UNL     1      45.987   3.899   7.965  0.00  0.00    +0.000 A 
ATOM     17  C   UNL     1      45.681   4.785   8.985  0.00  0.00    +0.000 A 
ENDBRANCH  11  12
ENDBRANCH   9  11
ENDBRANCH   8   9
ENDBRANCH   5   8
ENDBRANCH   1   2
BRANCH   1  20
ATOM     18  O   UNL     1      52.357   7.316  15.348  0.00  0.00    +0.000 OA
ATOM     19  C   UNL     1      51.259   7.177  15.877  0.00  0.00    +0.000 C 
ATOM     20  N   UNL     1      50.085   7.372  15.200  0.00  0.00    +0.000 N 
ATOM     21  H   UNL     1      49.200   7.284  15.687  0.00  0.00    +0.000 HD
BRANCH  19  22
ATOM     22  C   UNL     1      51.121   6.756  17.273  0.00  0.00    +0.000 A 
ATOM     23  C   UNL     1      51.970   7.280  18.239  0.00  0.00    +0.000 A 
ATOM     24  S   UNL     1      51.655   6.698  19.809  0.00  0.00    +0.000 S 
ATOM     25  C   UNL     1      50.349   5.755  19.259  0.00  0.00    +0.000 A 
ATOM     26  N   UNL     1      49.601   5.020  20.125  0.00  0.00    +0.000 NA
ATOM     27  C   UNL     1      48.618   4.386  19.579  0.00  0.00    +0.000 A 
ATOM     28  N   UNL     1      48.325   4.403  18.242  0.00  0.00    +0.000 N 
ATOM     29  C   UNL     1      49.103   5.060  17.317  0.00  0.00    +0.000 A 
ATOM     30  O   UNL     1      48.901   4.922  16.116  0.00  0.00    +0.000 OA
ATOM     31  C   UNL     1      50.182   5.847  17.889  0.00  0.00    +0.000 A 
ATOM     32  H   UNL     1      47.567   3.851  17.870  0.00  0.00    +0.000 HD
ENDBRANCH  19  22
ENDBRANCH   1  20
TORSDOF 7
ENDMDL
