MODEL 1
REMARK VINA RESULT:    -8.728      0.000      0.000
REMARK INTER + INTRA:         -12.371
REMARK INTER:                 -11.534
REMARK INTRA:                  -0.837
REMARK UNBOUND:                -0.837
REMARK  Name = 
REMARK  6 active torsions:
REMARK  status: ('A' for Active; 'I' for Inactive)
REMARK    1  A    between atoms: C_2  and  C_4
REMARK    2  A    between atoms: C_7  and  O_8
REMARK    3  A    between atoms: O_8  and  C_9
REMARK    4  A    between atoms: C_9  and  C_10
REMARK    5  A    between atoms: C_14  and  N_15
REMARK    6  A    between atoms: C_19  and  O_20
REMARK                            x       y       z     vdW  Elec       q    Type
REMARK                         _______ _______ _______ _____ _____    ______ ____
ROOT
ATOM      1  C   UNL     1      44.973   3.671  12.203  0.00  0.00    +0.000 A 
ATOM      2  C   UNL     1      45.821   2.925  13.014  0.00  0.00    +0.000 A 
ATOM      3  N   UNL     1      46.877   3.442  13.675  0.00  0.00    +0.000 NA
ATOM      4  C   UNL     1      47.090   4.773  13.534  0.00  0.00    +0.000 A 
ATOM      5  C   UNL     1      46.315   5.638  12.758  0.00  0.00    +0.000 A 
ATOM      6  C   UNL     1      45.243   5.044  12.085  0.00  0.00    +0.000 A 
ENDROOT
BRANCH   5   7
ATOM      7  N   UNL     1      46.499   7.023  12.679  0.00  0.00    +0.000 N 
ATOM      8  C   UNL     1      47.685   7.510  11.962  0.00  0.00    +0.000 C 
ATOM      9  C   UNL     1      47.973   8.946  12.400  0.00  0.00    +0.000 C 
ATOM     10  C   UNL     1      46.763   9.848  12.173  0.00  0.00    +0.000 C 
ATOM     11  C   UNL     1      45.515   9.277  12.853  0.00  0.00    +0.000 C 
ATOM     12  C   UNL     1      45.279   7.812  12.432  0.00  0.00    +0.000 C 
BRANCH  11  13
ATOM     13  O   UNL     1      44.387  10.095  12.550  0.00  0.00    +0.000 OA
ATOM     14  H   UNL     1      43.958  10.350  13.385  0.00  0.00    +0.000 HD
ENDBRANCH  11  13
ENDBRANCH   5   7
BRANCH   1  15
ATOM     15  C   UNL     1      43.751   3.071  11.561  0.00  0.00    +0.000 C 
BRANCH  15  16
ATOM     16  O   UNL     1      43.597   3.533  10.221  0.00  0.00    +0.000 OA
BRANCH  16  20
ATOM     17  C   UNL     1      46.526   2.551   7.410  0.00  0.00    +0.000 A 
ATOM     18  C   UNL     1      45.988   1.530   8.200  0.00  0.00    +0.000 A 
ATOM     19  C   UNL     1      45.003   1.821   9.152  0.00  0.00    +0.000 A 
ATOM     20  C   UNL     1      44.546   3.130   9.319  0.00  0.00    +0.000 A 
ATOM     21  C   UNL     1      45.081   4.145   8.523  0.00  0.00    +0.000 A 
ATOM     22  C   UNL     1      46.070   3.863   7.574  0.00  0.00    +0.000 A 
BRANCH  17  24
ATOM     23  N   UNL     1      47.699   3.111   5.348  0.00  0.00    +0.000 N 
ATOM     24  C   UNL     1      47.609   2.281   6.432  0.00  0.00    +0.000 C 
ATOM     25  O   UNL     1      48.406   1.362   6.590  0.00  0.00    +0.000 OA
ATOM     26  H   UNL     1      48.481   2.957   4.726  0.00  0.00    +0.000 HD
ATOM     27  H   UNL     1      47.233   4.004   5.306  0.00  0.00    +0.000 HD
ENDBRANCH  17  24
ENDBRANCH  16  20
ENDBRANCH  15  16
ENDBRANCH   1  15
TORSDOF 6
ENDMDL
MODEL 2
REMARK VINA RESULT:    -8.443      1.807      2.426
REMARK INTER + INTRA:         -11.995
REMARK INTER:                 -11.231
REMARK INTRA:                  -0.764
REMARK UNBOUND:                -0.837
REMARK  Name = 
REMARK  6 active torsions:
REMARK  status: ('A' for Active; 'I' for Inactive)
REMARK    1  A    between atoms: C_2  and  C_4
REMARK    2  A    between atoms: C_7  and  O_8
REMARK    3  A    between atoms: O_8  and  C_9
REMARK    4  A    between atoms: C_9  and  C_10
REMARK    5  A    between atoms: C_14  and  N_15
REMARK    6  A    between atoms: C_19  and  O_20
REMARK                            x       y       z     vdW  Elec       q    Type
REMARK                         _______ _______ _______ _____ _____    ______ ____
ROOT
ATOM      1  C   UNL     1      44.720   5.019  11.850  0.00  0.00    +0.000 A 
ATOM      2  C   UNL     1      44.851   4.248  13.000  0.00  0.00    +0.000 A 
ATOM      3  N   UNL     1      45.862   4.381  13.883  0.00  0.00    +0.000 NA
ATOM      4  C   UNL     1      46.781   5.341  13.615  0.00  0.00    +0.000 A 
ATOM      5  C   UNL     1      46.766   6.188  12.505  0.00  0.00    +0.000 A 
ATOM      6  C   UNL     1      45.702   5.994  11.616  0.00  0.00    +0.000 A 
ENDROOT
BRANCH   5   7
ATOM      7  N   UNL     1      47.677   7.225  12.277  0.00  0.00    +0.000 N 
ATOM      8  C   UNL     1      47.226   8.596  12.550  0.00  0.00    +0.000 C 
ATOM      9  C   UNL     1      48.128   9.573  11.795  0.00  0.00    +0.000 C 
ATOM     10  C   UNL     1      49.595   9.373  12.168  0.00  0.00    +0.000 C 
ATOM     11  C   UNL     1      50.022   7.917  11.963  0.00  0.00    +0.000 C 
ATOM     12  C   UNL     1      49.064   6.952  12.693  0.00  0.00    +0.000 C 
BRANCH  11  13
ATOM     13  O   UNL     1      51.369   7.745  12.401  0.00  0.00    +0.000 OA
ATOM     14  H   UNL     1      51.610   6.810  12.294  0.00  0.00    +0.000 HD
ENDBRANCH  11  13
ENDBRANCH   5   7
BRANCH   1  15
ATOM     15  C   UNL     1      43.525   4.902  10.944  0.00  0.00    +0.000 C 
BRANCH  15  16
ATOM     16  O   UNL     1      43.500   3.635  10.289  0.00  0.00    +0.000 OA
BRANCH  16  20
ATOM     17  C   UNL     1      46.487   2.668   7.535  0.00  0.00    +0.000 A 
ATOM     18  C   UNL     1      46.043   3.993   7.604  0.00  0.00    +0.000 A 
ATOM     19  C   UNL     1      45.045   4.355   8.516  0.00  0.00    +0.000 A 
ATOM     20  C   UNL     1      44.485   3.400   9.367  0.00  0.00    +0.000 A 
ATOM     21  C   UNL     1      44.935   2.079   9.300  0.00  0.00    +0.000 A 
ATOM     22  C   UNL     1      45.929   1.709   8.387  0.00  0.00    +0.000 A 
BRANCH  17  24
ATOM     23  N   UNL     1      47.500   2.877   5.328  0.00  0.00    +0.000 N 
ATOM     24  C   UNL     1      47.505   2.244   6.541  0.00  0.00    +0.000 C 
ATOM     25  O   UNL     1      48.330   1.374   6.795  0.00  0.00    +0.000 OA
ATOM     26  H   UNL     1      48.240   2.626   4.686  0.00  0.00    +0.000 HD
ATOM     27  H   UNL     1      47.014   3.746   5.169  0.00  0.00    +0.000 HD
ENDBRANCH  17  24
ENDBRANCH  16  20
ENDBRANCH  15  16
ENDBRANCH   1  15
TORSDOF 6
ENDMDL
MODEL 3
REMARK VINA RESULT:    -8.304      2.587      3.867
REMARK INTER + INTRA:         -11.810
REMARK INTER:                 -11.230
REMARK INTRA:                  -0.580
REMARK UNBOUND:                -0.837
REMARK  Name = 
REMARK  6 active torsions:
REMARK  status: ('A' for Active; 'I' for Inactive)
REMARK    1  A    between atoms: C_2  and  C_4
REMARK    2  A    between atoms: C_7  and  O_8
REMARK    3  A    between atoms: O_8  and  C_9
REMARK    4  A    between atoms: C_9  and  C_10
REMARK    5  A    between atoms: C_14  and  N_15
REMARK    6  A    between atoms: C_19  and  O_20
REMARK                            x       y       z     vdW  Elec       q    Type
REMARK                         _______ _______ _______ _____ _____    ______ ____
ROOT
ATOM      1  C   UNL     1      45.428   5.316  12.192  0.00  0.00    +0.000 A 
ATOM      2  C   UNL     1      46.139   6.271  11.473  0.00  0.00    +0.000 A 
ATOM      3  N   UNL     1      47.274   6.853  11.914  0.00  0.00    +0.000 NA
ATOM      4  C   UNL     1      47.732   6.451  13.125  0.00  0.00    +0.000 A 
ATOM      5  C   UNL     1      47.122   5.499  13.946  0.00  0.00    +0.000 A 
ATOM      6  C   UNL     1      45.942   4.941  13.443  0.00  0.00    +0.000 A 
ENDROOT
BRANCH   5   7
ATOM      7  N   UNL     1      47.643   5.038  15.159  0.00  0.00    +0.000 N 
ATOM      8  C   UNL     1      48.444   5.978  15.955  0.00  0.00    +0.000 C 
ATOM      9  C   UNL     1      49.307   5.186  16.936  0.00  0.00    +0.000 C 
ATOM     10  C   UNL     1      48.454   4.279  17.819  0.00  0.00    +0.000 C 
ATOM     11  C   UNL     1      47.560   3.369  16.972  0.00  0.00    +0.000 C 
ATOM     12  C   UNL     1      46.739   4.191  15.957  0.00  0.00    +0.000 C 
BRANCH  11  13
ATOM     13  O   UNL     1      46.714   2.598  17.824  0.00  0.00    +0.000 OA
ATOM     14  H   UNL     1      46.127   2.059  17.269  0.00  0.00    +0.000 HD
ENDBRANCH  11  13
ENDBRANCH   5   7
BRANCH   1  15
ATOM     15  C   UNL     1      44.221   4.624  11.620  0.00  0.00    +0.000 C 
BRANCH  15  16
ATOM     16  O   UNL     1      44.146   4.805  10.207  0.00  0.00    +0.000 OA
BRANCH  16  20
ATOM     17  C   UNL     1      46.441   2.342   7.736  0.00  0.00    +0.000 A 
ATOM     18  C   UNL     1      45.692   1.752   8.759  0.00  0.00    +0.000 A 
ATOM     19  C   UNL     1      44.909   2.546   9.607  0.00  0.00    +0.000 A 
ATOM     20  C   UNL     1      44.866   3.931   9.437  0.00  0.00    +0.000 A 
ATOM     21  C   UNL     1      45.609   4.515   8.409  0.00  0.00    +0.000 A 
ATOM     22  C   UNL     1      46.398   3.729   7.562  0.00  0.00    +0.000 A 
BRANCH  17  24
ATOM     23  N   UNL     1      48.511   2.088   6.475  0.00  0.00    +0.000 N 
ATOM     24  C   UNL     1      47.322   1.532   6.857  0.00  0.00    +0.000 C 
ATOM     25  O   UNL     1      47.009   0.402   6.498  0.00  0.00    +0.000 OA
ATOM     26  H   UNL     1      49.130   1.501   5.933  0.00  0.00    +0.000 HD
ATOM     27  H   UNL     1      48.909   2.892   6.935  0.00  0.00    +0.000 HD
ENDBRANCH  17  24
ENDBRANCH  16  20
ENDBRANCH  15  16
ENDBRANCH   1  15
TORSDOF 6
ENDMDL
MODEL 4
REMARK VINA RESULT:    -7.540      2.419      6.741
REMARK INTER + INTRA:         -10.801
REMARK INTER:                  -9.887
REMARK INTRA:                  -0.914
REMARK UNBOUND:                -0.837
REMARK  Name = 
REMARK  6 active torsions:
REMARK  status: ('A' for Active; 'I' for Inactive)
REMARK    1  A    between atoms: C_2  and  C_4
REMARK    2  A    between atoms: C_7  and  O_8
REMARK    3  A    between atoms: O_8  and  C_9
REMARK    4  A    between atoms: C_9  and  C_10
REMARK    5  A    between atoms: C_14  and  N_15
REMARK    6  A    between atoms: C_19  and  O_20
REMARK                            x       y       z     vdW  Elec       q    Type
REMARK                         _______ _______ _______ _____ _____    ______ ____
ROOT
ATOM      1  C   UNL     1      43.787   4.829  11.251  0.00  0.00    +0.000 A 
ATOM      2  C   UNL     1      43.098   3.840  11.943  0.00  0.00    +0.000 A 
ATOM      3  N   UNL     1      43.141   2.530  11.625  0.00  0.00    +0.000 NA
ATOM      4  C   UNL     1      43.924   2.186  10.573  0.00  0.00    +0.000 A 
ATOM      5  C   UNL     1      44.672   3.073   9.797  0.00  0.00    +0.000 A 
ATOM      6  C   UNL     1      44.577   4.420  10.164  0.00  0.00    +0.000 A 
ENDROOT
BRANCH   5   7
ATOM      7  N   UNL     1      45.535   2.698   8.761  0.00  0.00    +0.000 N 
ATOM      8  C   UNL     1      45.623   1.269   8.436  0.00  0.00    +0.000 C 
ATOM      9  C   UNL     1      46.924   1.015   7.673  0.00  0.00    +0.000 C 
ATOM     10  C   UNL     1      47.014   1.887   6.424  0.00  0.00    +0.000 C 
ATOM     11  C   UNL     1      46.828   3.367   6.771  0.00  0.00    +0.000 C 
ATOM     12  C   UNL     1      45.535   3.586   7.584  0.00  0.00    +0.000 C 
BRANCH  11  13
ATOM     13  O   UNL     1      46.830   4.145   5.576  0.00  0.00    +0.000 OA
ATOM     14  H   UNL     1      45.983   4.010   5.120  0.00  0.00    +0.000 HD
ENDBRANCH  11  13
ENDBRANCH   5   7
BRANCH   1  15
ATOM     15  C   UNL     1      43.785   6.266  11.699  0.00  0.00    +0.000 C 
BRANCH  15  16
ATOM     16  O   UNL     1      44.611   6.445  12.848  0.00  0.00    +0.000 OA
BRANCH  16  20
ATOM     17  C   UNL     1      48.491   7.862  12.235  0.00  0.00    +0.000 A 
ATOM     18  C   UNL     1      47.421   8.746  12.063  0.00  0.00    +0.000 A 
ATOM     19  C   UNL     1      46.106   8.307  12.262  0.00  0.00    +0.000 A 
ATOM     20  C   UNL     1      45.851   6.987  12.636  0.00  0.00    +0.000 A 
ATOM     21  C   UNL     1      46.922   6.109  12.814  0.00  0.00    +0.000 A 
ATOM     22  C   UNL     1      48.239   6.538  12.611  0.00  0.00    +0.000 A 
BRANCH  17  24
ATOM     23  N   UNL     1      50.780   7.316  11.598  0.00  0.00    +0.000 N 
ATOM     24  C   UNL     1      49.891   8.284  11.979  0.00  0.00    +0.000 C 
ATOM     25  O   UNL     1      50.241   9.454  12.087  0.00  0.00    +0.000 OA
ATOM     26  H   UNL     1      51.712   7.627  11.362  0.00  0.00    +0.000 HD
ATOM     27  H   UNL     1      50.489   6.409  11.266  0.00  0.00    +0.000 HD
ENDBRANCH  17  24
ENDBRANCH  16  20
ENDBRANCH  15  16
ENDBRANCH   1  15
TORSDOF 6
ENDMDL
MODEL 5
REMARK VINA RESULT:    -7.291      2.549      7.165
REMARK INTER + INTRA:         -10.472
REMARK INTER:                  -9.748
REMARK INTRA:                  -0.724
REMARK UNBOUND:                -0.837
REMARK  Name = 
REMARK  6 active torsions:
REMARK  status: ('A' for Active; 'I' for Inactive)
REMARK    1  A    between atoms: C_2  and  C_4
REMARK    2  A    between atoms: C_7  and  O_8
REMARK    3  A    between atoms: O_8  and  C_9
REMARK    4  A    between atoms: C_9  and  C_10
REMARK    5  A    between atoms: C_14  and  N_15
REMARK    6  A    between atoms: C_19  and  O_20
REMARK                            x       y       z     vdW  Elec       q    Type
REMARK                         _______ _______ _______ _____ _____    ______ ____
ROOT
ATOM      1  C   UNL     1      43.704   4.867  11.038  0.00  0.00    +0.000 A 
ATOM      2  C   UNL     1      43.041   3.891  11.774  0.00  0.00    +0.000 A 
ATOM      3  N   UNL     1      43.129   2.569  11.521  0.00  0.00    +0.000 NA
ATOM      4  C   UNL     1      43.933   2.199  10.494  0.00  0.00    +0.000 A 
ATOM      5  C   UNL     1      44.660   3.071   9.681  0.00  0.00    +0.000 A 
ATOM      6  C   UNL     1      44.518   4.430   9.980  0.00  0.00    +0.000 A 
ENDROOT
BRANCH   5   7
ATOM      7  N   UNL     1      45.544   2.674   8.672  0.00  0.00    +0.000 N 
ATOM      8  C   UNL     1      45.648   1.237   8.388  0.00  0.00    +0.000 C 
ATOM      9  C   UNL     1      46.964   0.971   7.657  0.00  0.00    +0.000 C 
ATOM     10  C   UNL     1      47.071   1.809   6.386  0.00  0.00    +0.000 C 
ATOM     11  C   UNL     1      46.869   3.297   6.688  0.00  0.00    +0.000 C 
ATOM     12  C   UNL     1      45.560   3.528   7.471  0.00  0.00    +0.000 C 
BRANCH  11  13
ATOM     13  O   UNL     1      46.888   4.041   5.471  0.00  0.00    +0.000 OA
ATOM     14  H   UNL     1      47.405   4.852   5.615  0.00  0.00    +0.000 HD
ENDBRANCH  11  13
ENDBRANCH   5   7
BRANCH   1  15
ATOM     15  C   UNL     1      43.652   6.323  11.415  0.00  0.00    +0.000 C 
BRANCH  15  16
ATOM     16  O   UNL     1      44.838   7.002  11.005  0.00  0.00    +0.000 OA
BRANCH  16  20
ATOM     17  C   UNL     1      47.755   7.603  13.932  0.00  0.00    +0.000 A 
ATOM     18  C   UNL     1      47.764   6.403  13.215  0.00  0.00    +0.000 A 
ATOM     19  C   UNL     1      46.803   6.166  12.224  0.00  0.00    +0.000 A 
ATOM     20  C   UNL     1      45.830   7.126  11.941  0.00  0.00    +0.000 A 
ATOM     21  C   UNL     1      45.828   8.327  12.654  0.00  0.00    +0.000 A 
ATOM     22  C   UNL     1      46.782   8.568  13.649  0.00  0.00    +0.000 A 
BRANCH  17  24
ATOM     23  N   UNL     1      48.249   8.430  16.171  0.00  0.00    +0.000 N 
ATOM     24  C   UNL     1      48.728   7.859  15.024  0.00  0.00    +0.000 C 
ATOM     25  O   UNL     1      49.912   7.558  14.915  0.00  0.00    +0.000 OA
ATOM     26  H   UNL     1      48.908   8.536  16.930  0.00  0.00    +0.000 HD
ATOM     27  H   UNL     1      47.266   8.466  16.393  0.00  0.00    +0.000 HD
ENDBRANCH  17  24
ENDBRANCH  16  20
ENDBRANCH  15  16
ENDBRANCH   1  15
TORSDOF 6
ENDMDL
MODEL 6
REMARK VINA RESULT:    -7.215      2.076      3.036
REMARK INTER + INTRA:         -10.372
REMARK INTER:                  -9.603
REMARK INTRA:                  -0.769
REMARK UNBOUND:                -0.837
REMARK  Name = 
REMARK  6 active torsions:
REMARK  status: ('A' for Active; 'I' for Inactive)
REMARK    1  A    between atoms: C_2  and  C_4
REMARK    2  A    between atoms: C_7  and  O_8
REMARK    3  A    between atoms: O_8  and  C_9
REMARK    4  A    between atoms: C_9  and  C_10
REMARK    5  A    between atoms: C_14  and  N_15
REMARK    6  A    between atoms: C_19  and  O_20
REMARK                            x       y       z     vdW  Elec       q    Type
REMARK                         _______ _______ _______ _____ _____    ______ ____
ROOT
ATOM      1  C   UNL     1      45.174   5.946  11.904  0.00  0.00    +0.000 A 
ATOM      2  C   UNL     1      44.316   6.993  11.586  0.00  0.00    +0.000 A 
ATOM      3  N   UNL     1      44.659   8.295  11.657  0.00  0.00    +0.000 NA
ATOM      4  C   UNL     1      45.928   8.568  12.049  0.00  0.00    +0.000 A 
ATOM      5  C   UNL     1      46.892   7.617  12.390  0.00  0.00    +0.000 A 
ATOM      6  C   UNL     1      46.474   6.284  12.312  0.00  0.00    +0.000 A 
ENDROOT
BRANCH   5   7
ATOM      7  N   UNL     1      48.220   7.908  12.721  0.00  0.00    +0.000 N 
ATOM      8  C   UNL     1      48.827   7.146  13.819  0.00  0.00    +0.000 C 
ATOM      9  C   UNL     1      50.039   7.915  14.345  0.00  0.00    +0.000 C 
ATOM     10  C   UNL     1      51.042   8.200  13.230  0.00  0.00    +0.000 C 
ATOM     11  C   UNL     1      50.370   8.914  12.054  0.00  0.00    +0.000 C 
ATOM     12  C   UNL     1      49.121   8.142  11.578  0.00  0.00    +0.000 C 
BRANCH  11  13
ATOM     13  O   UNL     1      51.310   9.087  10.995  0.00  0.00    +0.000 OA
ATOM     14  H   UNL     1      51.770   8.243  10.852  0.00  0.00    +0.000 HD
ENDBRANCH  11  13
ENDBRANCH   5   7
BRANCH   1  15
ATOM     15  C   UNL     1      44.779   4.506  11.719  0.00  0.00    +0.000 C 
BRANCH  15  16
ATOM     16  O   UNL     1      44.168   4.301  10.446  0.00  0.00    +0.000 OA
BRANCH  16  20
ATOM     17  C   UNL     1      46.576   2.680   7.443  0.00  0.00    +0.000 A 
ATOM     18  C   UNL     1      45.951   1.811   8.343  0.00  0.00    +0.000 A 
ATOM     19  C   UNL     1      45.135   2.317   9.361  0.00  0.00    +0.000 A 
ATOM     20  C   UNL     1      44.934   3.693   9.488  0.00  0.00    +0.000 A 
ATOM     21  C   UNL     1      45.554   4.558   8.583  0.00  0.00    +0.000 A 
ATOM     22  C   UNL     1      46.376   4.059   7.566  0.00  0.00    +0.000 A 
BRANCH  17  24
ATOM     23  N   UNL     1      47.760   3.010   5.338  0.00  0.00    +0.000 N 
ATOM     24  C   UNL     1      47.489   2.176   6.388  0.00  0.00    +0.000 C 
ATOM     25  O   UNL     1      47.998   1.062   6.455  0.00  0.00    +0.000 OA
ATOM     26  H   UNL     1      48.435   2.681   4.662  0.00  0.00    +0.000 HD
ATOM     27  H   UNL     1      47.566   4.000   5.366  0.00  0.00    +0.000 HD
ENDBRANCH  17  24
ENDBRANCH  16  20
ENDBRANCH  15  16
ENDBRANCH   1  15
TORSDOF 6
ENDMDL
MODEL 7
REMARK VINA RESULT:    -6.987      3.341      7.586
REMARK INTER + INTRA:         -10.071
REMARK INTER:                  -9.412
REMARK INTRA:                  -0.658
REMARK UNBOUND:                -0.837
REMARK  Name = 
REMARK  6 active torsions:
REMARK  status: ('A' for Active; 'I' for Inactive)
REMARK    1  A    between atoms: C_2  and  C_4
REMARK    2  A    between atoms: C_7  and  O_8
REMARK    3  A    between atoms: O_8  and  C_9
REMARK    4  A    between atoms: C_9  and  C_10
REMARK    5  A    between atoms: C_14  and  N_15
REMARK    6  A    between atoms: C_19  and  O_20
REMARK                            x       y       z     vdW  Elec       q    Type
REMARK                         _______ _______ _______ _____ _____    ______ ____
ROOT
ATOM      1  C   UNL     1      44.700   5.123  12.097  0.00  0.00    +0.000 A 
ATOM      2  C   UNL     1      43.606   4.416  12.583  0.00  0.00    +0.000 A 
ATOM      3  N   UNL     1      43.102   3.312  11.995  0.00  0.00    +0.000 NA
ATOM      4  C   UNL     1      43.730   2.880  10.874  0.00  0.00    +0.000 A 
ATOM      5  C   UNL     1      44.840   3.488  10.284  0.00  0.00    +0.000 A 
ATOM      6  C   UNL     1      45.310   4.637  10.929  0.00  0.00    +0.000 A 
ENDROOT
BRANCH   5   7
ATOM      7  N   UNL     1      45.527   2.992   9.170  0.00  0.00    +0.000 N 
ATOM      8  C   UNL     1      45.316   1.582   8.816  0.00  0.00    +0.000 C 
ATOM      9  C   UNL     1      46.476   1.113   7.938  0.00  0.00    +0.000 C 
ATOM     10  C   UNL     1      46.625   1.992   6.700  0.00  0.00    +0.000 C 
ATOM     11  C   UNL     1      46.752   3.469   7.085  0.00  0.00    +0.000 C 
ATOM     12  C   UNL     1      45.596   3.900   8.012  0.00  0.00    +0.000 C 
BRANCH  11  13
ATOM     13  O   UNL     1      46.801   4.271   5.906  0.00  0.00    +0.000 OA
ATOM     14  H   UNL     1      46.432   3.756   5.169  0.00  0.00    +0.000 HD
ENDBRANCH  11  13
ENDBRANCH   5   7
BRANCH   1  15
ATOM     15  C   UNL     1      45.287   6.293  12.839  0.00  0.00    +0.000 C 
BRANCH  15  16
ATOM     16  O   UNL     1      46.707   6.188  12.922  0.00  0.00    +0.000 OA
BRANCH  16  20
ATOM     17  C   UNL     1      48.395   4.928  16.528  0.00  0.00    +0.000 A 
ATOM     18  C   UNL     1      47.456   4.101  15.904  0.00  0.00    +0.000 A 
ATOM     19  C   UNL     1      46.870   4.489  14.693  0.00  0.00    +0.000 A 
ATOM     20  C   UNL     1      47.219   5.702  14.096  0.00  0.00    +0.000 A 
ATOM     21  C   UNL     1      48.163   6.522  14.719  0.00  0.00    +0.000 A 
ATOM     22  C   UNL     1      48.749   6.143  15.932  0.00  0.00    +0.000 A 
BRANCH  17  24
ATOM     23  N   UNL     1      48.952   5.511  18.828  0.00  0.00    +0.000 N 
ATOM     24  C   UNL     1      48.992   4.567  17.838  0.00  0.00    +0.000 C 
ATOM     25  O   UNL     1      49.489   3.464  18.038  0.00  0.00    +0.000 OA
ATOM     26  H   UNL     1      49.301   5.229  19.734  0.00  0.00    +0.000 HD
ATOM     27  H   UNL     1      48.350   6.318  18.787  0.00  0.00    +0.000 HD
ENDBRANCH  17  24
ENDBRANCH  16  20
ENDBRANCH  15  16
ENDBRANCH   1  15
TORSDOF 6
ENDMDL
MODEL 8
REMARK VINA RESULT:    -6.658      3.570      6.106
REMARK INTER + INTRA:          -9.635
REMARK INTER:                  -8.805
REMARK INTRA:                  -0.830
REMARK UNBOUND:                -0.837
REMARK  Name = 
REMARK  6 active torsions:
REMARK  status: ('A' for Active; 'I' for Inactive)
REMARK    1  A    between atoms: C_2  and  C_4
REMARK    2  A    between atoms: C_7  and  O_8
REMARK    3  A    between atoms: O_8  and  C_9
REMARK    4  A    between atoms: C_9  and  C_10
REMARK    5  A    between atoms: C_14  and  N_15
REMARK    6  A    between atoms: C_19  and  O_20
REMARK                            x       y       z     vdW  Elec       q    Type
REMARK                         _______ _______ _______ _____ _____    ______ ____
ROOT
ATOM      1  C   UNL     1      48.440   7.767  13.811  0.00  0.00    +0.000 A 
ATOM      2  C   UNL     1      49.332   8.757  14.208  0.00  0.00    +0.000 A 
ATOM      3  N   UNL     1      50.075   8.693  15.332  0.00  0.00    +0.000 NA
ATOM      4  C   UNL     1      49.935   7.578  16.090  0.00  0.00    +0.000 A 
ATOM      5  C   UNL     1      49.084   6.508  15.806  0.00  0.00    +0.000 A 
ATOM      6  C   UNL     1      48.327   6.637  14.636  0.00  0.00    +0.000 A 
ENDROOT
BRANCH   5   7
ATOM      7  N   UNL     1      49.002   5.330  16.556  0.00  0.00    +0.000 N 
ATOM      8  C   UNL     1      49.936   5.174  17.678  0.00  0.00    +0.000 C 
ATOM      9  C   UNL     1      50.038   3.691  18.035  0.00  0.00    +0.000 C 
ATOM     10  C   UNL     1      48.666   3.102  18.354  0.00  0.00    +0.000 C 
ATOM     11  C   UNL     1      47.680   3.354  17.209  0.00  0.00    +0.000 C 
ATOM     12  C   UNL     1      47.637   4.851  16.837  0.00  0.00    +0.000 C 
BRANCH  11  13
ATOM     13  O   UNL     1      46.388   2.870  17.573  0.00  0.00    +0.000 OA
ATOM     14  H   UNL     1      46.047   2.326  16.843  0.00  0.00    +0.000 HD
ENDBRANCH  11  13
ENDBRANCH   5   7
BRANCH   1  15
ATOM     15  C   UNL     1      47.703   7.837  12.501  0.00  0.00    +0.000 C 
BRANCH  15  16
ATOM     16  O   UNL     1      46.304   7.629  12.688  0.00  0.00    +0.000 OA
BRANCH  16  20
ATOM     17  C   UNL     1      44.603   4.051  11.367  0.00  0.00    +0.000 A 
ATOM     18  C   UNL     1      45.287   4.848  10.443  0.00  0.00    +0.000 A 
ATOM     19  C   UNL     1      45.872   6.053  10.850  0.00  0.00    +0.000 A 
ATOM     20  C   UNL     1      45.781   6.470  12.179  0.00  0.00    +0.000 A 
ATOM     21  C   UNL     1      45.103   5.668  13.100  0.00  0.00    +0.000 A 
ATOM     22  C   UNL     1      44.511   4.465  12.700  0.00  0.00    +0.000 A 
BRANCH  17  24
ATOM     23  N   UNL     1      44.428   2.141   9.862  0.00  0.00    +0.000 N 
ATOM     24  C   UNL     1      43.926   2.796  10.953  0.00  0.00    +0.000 C 
ATOM     25  O   UNL     1      42.965   2.350  11.570  0.00  0.00    +0.000 OA
ATOM     26  H   UNL     1      44.001   1.255   9.633  0.00  0.00    +0.000 HD
ATOM     27  H   UNL     1      45.343   2.334   9.485  0.00  0.00    +0.000 HD
ENDBRANCH  17  24
ENDBRANCH  16  20
ENDBRANCH  15  16
ENDBRANCH   1  15
TORSDOF 6
ENDMDL
MODEL 9
REMARK VINA RESULT:    -6.637      3.840      8.309
REMARK INTER + INTRA:          -9.607
REMARK INTER:                  -8.886
REMARK INTRA:                  -0.722
REMARK UNBOUND:                -0.837
REMARK  Name = 
REMARK  6 active torsions:
REMARK  status: ('A' for Active; 'I' for Inactive)
REMARK    1  A    between atoms: C_2  and  C_4
REMARK    2  A    between atoms: C_7  and  O_8
REMARK    3  A    between atoms: O_8  and  C_9
REMARK    4  A    between atoms: C_9  and  C_10
REMARK    5  A    between atoms: C_14  and  N_15
REMARK    6  A    between atoms: C_19  and  O_20
REMARK                            x       y       z     vdW  Elec       q    Type
REMARK                         _______ _______ _______ _____ _____    ______ ____
ROOT
ATOM      1  C   UNL     1      46.975   7.427  13.034  0.00  0.00    +0.000 A 
ATOM      2  C   UNL     1      46.258   8.612  12.926  0.00  0.00    +0.000 A 
ATOM      3  N   UNL     1      45.181   8.770  12.129  0.00  0.00    +0.000 NA
ATOM      4  C   UNL     1      44.789   7.685  11.416  0.00  0.00    +0.000 A 
ATOM      5  C   UNL     1      45.413   6.436  11.436  0.00  0.00    +0.000 A 
ATOM      6  C   UNL     1      46.532   6.336  12.268  0.00  0.00    +0.000 A 
ENDROOT
BRANCH   5   7
ATOM      7  N   UNL     1      44.956   5.303  10.753  0.00  0.00    +0.000 N 
ATOM      8  C   UNL     1      45.602   4.974   9.476  0.00  0.00    +0.000 C 
ATOM      9  C   UNL     1      44.677   4.059   8.674  0.00  0.00    +0.000 C 
ATOM     10  C   UNL     1      44.314   2.805   9.466  0.00  0.00    +0.000 C 
ATOM     11  C   UNL     1      43.724   3.169  10.833  0.00  0.00    +0.000 C 
ATOM     12  C   UNL     1      44.655   4.133  11.597  0.00  0.00    +0.000 C 
BRANCH  11  13
ATOM     13  O   UNL     1      43.477   1.980  11.581  0.00  0.00    +0.000 OA
ATOM     14  H   UNL     1      42.657   2.100  12.088  0.00  0.00    +0.000 HD
ENDBRANCH  11  13
ENDBRANCH   5   7
BRANCH   1  15
ATOM     15  C   UNL     1      48.112   7.268  14.007  0.00  0.00    +0.000 C 
BRANCH  15  16
ATOM     16  O   UNL     1      48.313   5.897  14.343  0.00  0.00    +0.000 OA
BRANCH  16  20
ATOM     17  C   UNL     1      48.278   5.125  18.448  0.00  0.00    +0.000 A 
ATOM     18  C   UNL     1      47.525   4.301  17.605  0.00  0.00    +0.000 A 
ATOM     19  C   UNL     1      47.514   4.528  16.224  0.00  0.00    +0.000 A 
ATOM     20  C   UNL     1      48.255   5.575  15.674  0.00  0.00    +0.000 A 
ATOM     21  C   UNL     1      49.011   6.392  16.517  0.00  0.00    +0.000 A 
ATOM     22  C   UNL     1      49.023   6.175  17.899  0.00  0.00    +0.000 A 
BRANCH  17  24
ATOM     23  N   UNL     1      48.607   3.709  20.404  0.00  0.00    +0.000 N 
ATOM     24  C   UNL     1      48.266   4.943  19.921  0.00  0.00    +0.000 C 
ATOM     25  O   UNL     1      47.978   5.861  20.681  0.00  0.00    +0.000 OA
ATOM     26  H   UNL     1      48.659   3.618  21.409  0.00  0.00    +0.000 HD
ATOM     27  H   UNL     1      49.077   3.016  19.843  0.00  0.00    +0.000 HD
ENDBRANCH  17  24
ENDBRANCH  16  20
ENDBRANCH  15  16
ENDBRANCH   1  15
TORSDOF 6
ENDMDL
