MODEL 1
REMARK VINA RESULT:    -8.334      0.000      0.000
REMARK INTER + INTRA:         -13.242
REMARK INTER:                 -12.232
REMARK INTRA:                  -1.010
REMARK UNBOUND:                -1.010
REMARK  Name = 
REMARK  10 active torsions:
REMARK  status: ('A' for Active; 'I' for Inactive)
REMARK    1  A    between atoms: C_1  and  O_2
REMARK    2  A    between atoms: O_2  and  C_3
REMARK    3  A    between atoms: C_10  and  C_11
REMARK    4  A    between atoms: N_13  and  C_14
REMARK    5  A    between atoms: C_14  and  C_15
REMARK    6  A    between atoms: C_18  and  C_19
REMARK    7  A    between atoms: C_19  and  N_20
REMARK    8  A    between atoms: N_20  and  C_21
REMARK    9  A    between atoms: N_20  and  C_22
REMARK   10  A    between atoms: C_22  and  C_23
REMARK                            x       y       z     vdW  Elec       q    Type
REMARK                         _______ _______ _______ _____ _____    ______ ____
ROOT
ATOM      1  C   UNL     1      46.729   7.758  12.831  0.00  0.00    +0.000 A 
ATOM      2  C   UNL     1      47.220   6.683  12.079  0.00  0.00    +0.000 A 
ATOM      3  C   UNL     1      46.374   5.977  11.221  0.00  0.00    +0.000 A 
ATOM      4  C   UNL     1      45.023   6.334  11.102  0.00  0.00    +0.000 A 
ATOM      5  C   UNL     1      44.553   7.451  11.803  0.00  0.00    +0.000 A 
ATOM      6  C   UNL     1      45.399   8.161  12.654  0.00  0.00    +0.000 A 
ENDROOT
BRANCH   1   7
ATOM      7  C   UNL     1      47.602   8.463  13.829  0.00  0.00    +0.000 C 
BRANCH   7  10
ATOM      8  C   UNL     1      48.987   6.968  15.153  0.00  0.00    +0.000 C 
ATOM      9  O   UNL     1      49.851   6.995  14.279  0.00  0.00    +0.000 OA
ATOM     10  N   UNL     1      47.825   7.677  15.014  0.00  0.00    +0.000 N 
ATOM     11  H   UNL     1      47.115   7.667  15.735  0.00  0.00    +0.000 HD
BRANCH   8  19
ATOM     12  C   UNL     1      47.367   4.203  16.458  0.00  0.00    +0.000 A 
ATOM     13  N   UNL     1      46.954   3.146  17.190  0.00  0.00    +0.000 NA
ATOM     14  C   UNL     1      47.600   2.868  18.324  0.00  0.00    +0.000 A 
ATOM     15  N   UNL     1      48.629   3.526  18.838  0.00  0.00    +0.000 NA
ATOM     16  C   UNL     1      49.014   4.569  18.084  0.00  0.00    +0.000 A 
ATOM     17  S   UNL     1      50.318   5.523  18.601  0.00  0.00    +0.000 S 
ATOM     18  C   UNL     1      50.185   6.524  17.240  0.00  0.00    +0.000 A 
ATOM     19  C   UNL     1      49.164   6.159  16.369  0.00  0.00    +0.000 A 
ATOM     20  C   UNL     1      48.457   4.989  16.879  0.00  0.00    +0.000 A 
BRANCH  12  22
ATOM     21  C   UNL     1      47.096   3.648  14.196  0.00  0.00    +0.000 C 
ATOM     22  O   UNL     1      46.697   4.485  15.283  0.00  0.00    +0.000 OA
ENDBRANCH  12  22
ENDBRANCH   8  19
ENDBRANCH   7  10
ENDBRANCH   1   7
BRANCH   4  23
ATOM     23  C   UNL     1      44.073   5.525  10.243  0.00  0.00    +0.000 C 
BRANCH  23  24
ATOM     24  N   UNL     1      44.570   4.172   9.909  0.00  0.00    +0.000 NA
ATOM     25  C   UNL     1      43.850   3.137  10.662  0.00  0.00    +0.000 C 
BRANCH  24  26
ATOM     26  C   UNL     1      44.436   3.898   8.464  0.00  0.00    +0.000 C 
BRANCH  26  27
ATOM     27  C   UNL     1      45.513   2.986   7.939  0.00  0.00    +0.000 A 
ATOM     28  C   UNL     1      45.743   1.737   8.517  0.00  0.00    +0.000 A 
ATOM     29  N   UNL     1      46.620   0.826   8.034  0.00  0.00    +0.000 NA
ATOM     30  C   UNL     1      47.305   1.183   6.922  0.00  0.00    +0.000 A 
ATOM     31  C   UNL     1      47.171   2.410   6.298  0.00  0.00    +0.000 A 
ATOM     32  F   UNL     1      47.874   2.699   5.197  0.00  0.00    +0.000 F 
ATOM     33  C   UNL     1      46.271   3.330   6.814  0.00  0.00    +0.000 A 
ENDBRANCH  26  27
ENDBRANCH  24  26
ENDBRANCH  23  24
ENDBRANCH   4  23
TORSDOF 8
ENDMDL
MODEL 2
REMARK VINA RESULT:    -8.174      0.945      1.144
REMARK INTER + INTRA:         -13.007
REMARK INTER:                 -11.602
REMARK INTRA:                  -1.405
REMARK UNBOUND:                -1.010
REMARK  Name = 
REMARK  10 active torsions:
REMARK  status: ('A' for Active; 'I' for Inactive)
REMARK    1  A    between atoms: C_1  and  O_2
REMARK    2  A    between atoms: O_2  and  C_3
REMARK    3  A    between atoms: C_10  and  C_11
REMARK    4  A    between atoms: N_13  and  C_14
REMARK    5  A    between atoms: C_14  and  C_15
REMARK    6  A    between atoms: C_18  and  C_19
REMARK    7  A    between atoms: C_19  and  N_20
REMARK    8  A    between atoms: N_20  and  C_21
REMARK    9  A    between atoms: N_20  and  C_22
REMARK   10  A    between atoms: C_22  and  C_23
REMARK                            x       y       z     vdW  Elec       q    Type
REMARK                         _______ _______ _______ _____ _____    ______ ____
ROOT
ATOM      1  C   UNL     1      46.799   7.820  12.857  0.00  0.00    +0.000 A 
ATOM      2  C   UNL     1      47.411   6.997  11.903  0.00  0.00    +0.000 A 
ATOM      3  C   UNL     1      46.635   6.259  11.007  0.00  0.00    +0.000 A 
ATOM      4  C   UNL     1      45.235   6.331  11.052  0.00  0.00    +0.000 A 
ATOM      5  C   UNL     1      44.630   7.206  11.961  0.00  0.00    +0.000 A 
ATOM      6  C   UNL     1      45.404   7.950  12.851  0.00  0.00    +0.000 A 
ENDROOT
BRANCH   1   7
ATOM      7  C   UNL     1      47.617   8.544  13.889  0.00  0.00    +0.000 C 
BRANCH   7  10
ATOM      8  C   UNL     1      48.990   6.990  15.155  0.00  0.00    +0.000 C 
ATOM      9  O   UNL     1      49.822   6.989  14.250  0.00  0.00    +0.000 OA
ATOM     10  N   UNL     1      47.853   7.743  15.061  0.00  0.00    +0.000 N 
ATOM     11  H   UNL     1      47.169   7.757  15.808  0.00  0.00    +0.000 HD
BRANCH   8  19
ATOM     12  C   UNL     1      47.353   4.242  16.474  0.00  0.00    +0.000 A 
ATOM     13  N   UNL     1      46.938   3.187  17.207  0.00  0.00    +0.000 NA
ATOM     14  C   UNL     1      47.604   2.888  18.324  0.00  0.00    +0.000 A 
ATOM     15  N   UNL     1      48.656   3.524  18.819  0.00  0.00    +0.000 NA
ATOM     16  C   UNL     1      49.042   4.567  18.066  0.00  0.00    +0.000 A 
ATOM     17  S   UNL     1      50.373   5.494  18.561  0.00  0.00    +0.000 S 
ATOM     18  C   UNL     1      50.227   6.508  17.210  0.00  0.00    +0.000 A 
ATOM     19  C   UNL     1      49.181   6.168  16.360  0.00  0.00    +0.000 A 
ATOM     20  C   UNL     1      48.465   5.006  16.876  0.00  0.00    +0.000 A 
BRANCH  12  22
ATOM     21  C   UNL     1      47.147   3.840  14.173  0.00  0.00    +0.000 C 
ATOM     22  O   UNL     1      46.661   4.546  15.316  0.00  0.00    +0.000 OA
ENDBRANCH  12  22
ENDBRANCH   8  19
ENDBRANCH   7  10
ENDBRANCH   1   7
BRANCH   4  23
ATOM     23  C   UNL     1      44.379   5.470  10.145  0.00  0.00    +0.000 C 
BRANCH  23  24
ATOM     24  N   UNL     1      44.702   4.027  10.205  0.00  0.00    +0.000 NA
ATOM     25  C   UNL     1      44.047   3.380  11.349  0.00  0.00    +0.000 C 
BRANCH  24  26
ATOM     26  C   UNL     1      44.294   3.340   8.964  0.00  0.00    +0.000 C 
BRANCH  26  27
ATOM     27  C   UNL     1      45.457   2.734   8.222  0.00  0.00    +0.000 A 
ATOM     28  C   UNL     1      46.356   3.535   7.516  0.00  0.00    +0.000 A 
ATOM     29  N   UNL     1      47.477   3.072   6.916  0.00  0.00    +0.000 NA
ATOM     30  C   UNL     1      47.709   1.742   7.021  0.00  0.00    +0.000 A 
ATOM     31  C   UNL     1      46.860   0.863   7.670  0.00  0.00    +0.000 A 
ATOM     32  F   UNL     1      47.149  -0.441   7.743  0.00  0.00    +0.000 F 
ATOM     33  C   UNL     1      45.714   1.360   8.272  0.00  0.00    +0.000 A 
ENDBRANCH  26  27
ENDBRANCH  24  26
ENDBRANCH  23  24
ENDBRANCH   4  23
TORSDOF 8
ENDMDL
MODEL 3
REMARK VINA RESULT:    -7.827      2.161      2.610
REMARK INTER + INTRA:         -12.498
REMARK INTER:                 -11.537
REMARK INTRA:                  -0.961
REMARK UNBOUND:                -1.010
REMARK  Name = 
REMARK  10 active torsions:
REMARK  status: ('A' for Active; 'I' for Inactive)
REMARK    1  A    between atoms: C_1  and  O_2
REMARK    2  A    between atoms: O_2  and  C_3
REMARK    3  A    between atoms: C_10  and  C_11
REMARK    4  A    between atoms: N_13  and  C_14
REMARK    5  A    between atoms: C_14  and  C_15
REMARK    6  A    between atoms: C_18  and  C_19
REMARK    7  A    between atoms: C_19  and  N_20
REMARK    8  A    between atoms: N_20  and  C_21
REMARK    9  A    between atoms: N_20  and  C_22
REMARK   10  A    between atoms: C_22  and  C_23
REMARK                            x       y       z     vdW  Elec       q    Type
REMARK                         _______ _______ _______ _____ _____    ______ ____
ROOT
ATOM      1  C   UNL     1      48.019   6.983  14.297  0.00  0.00    +0.000 A 
ATOM      2  C   UNL     1      47.527   5.679  14.153  0.00  0.00    +0.000 A 
ATOM      3  C   UNL     1      46.783   5.327  13.025  0.00  0.00    +0.000 A 
ATOM      4  C   UNL     1      46.518   6.273  12.025  0.00  0.00    +0.000 A 
ATOM      5  C   UNL     1      47.068   7.555  12.140  0.00  0.00    +0.000 A 
ATOM      6  C   UNL     1      47.818   7.905  13.263  0.00  0.00    +0.000 A 
ENDROOT
BRANCH   1   7
ATOM      7  C   UNL     1      48.737   7.401  15.549  0.00  0.00    +0.000 C 
BRANCH   7  10
ATOM      8  C   UNL     1      49.844   6.108  17.283  0.00  0.00    +0.000 C 
ATOM      9  O   UNL     1      49.114   6.618  18.130  0.00  0.00    +0.000 OA
ATOM     10  N   UNL     1      49.725   6.439  15.961  0.00  0.00    +0.000 N 
ATOM     11  H   UNL     1      50.317   6.014  15.258  0.00  0.00    +0.000 HD
BRANCH   8  19
ATOM     12  C   UNL     1      50.156   2.675  16.981  0.00  0.00    +0.000 A 
ATOM     13  N   UNL     1      50.558   1.386  16.991  0.00  0.00    +0.000 NA
ATOM     14  C   UNL     1      51.749   1.097  17.519  0.00  0.00    +0.000 A 
ATOM     15  N   UNL     1      52.612   1.949  18.055  0.00  0.00    +0.000 NA
ATOM     16  C   UNL     1      52.180   3.220  18.028  0.00  0.00    +0.000 A 
ATOM     17  S   UNL     1      53.164   4.439  18.680  0.00  0.00    +0.000 S 
ATOM     18  C   UNL     1      52.021   5.630  18.294  0.00  0.00    +0.000 A 
ATOM     19  C   UNL     1      50.883   5.138  17.665  0.00  0.00    +0.000 A 
ATOM     20  C   UNL     1      50.975   3.690  17.511  0.00  0.00    +0.000 A 
BRANCH  12  22
ATOM     21  C   UNL     1      47.859   2.930  17.382  0.00  0.00    +0.000 C 
ATOM     22  O   UNL     1      48.923   2.969  16.430  0.00  0.00    +0.000 OA
ENDBRANCH  12  22
ENDBRANCH   8  19
ENDBRANCH   7  10
ENDBRANCH   1   7
BRANCH   4  23
ATOM     23  C   UNL     1      45.640   5.931  10.838  0.00  0.00    +0.000 C 
BRANCH  23  24
ATOM     24  N   UNL     1      44.587   4.935  11.137  0.00  0.00    +0.000 NA
ATOM     25  C   UNL     1      43.543   5.503  11.999  0.00  0.00    +0.000 C 
BRANCH  24  26
ATOM     26  C   UNL     1      43.966   4.430   9.897  0.00  0.00    +0.000 C 
BRANCH  26  27
ATOM     27  C   UNL     1      44.903   3.580   9.078  0.00  0.00    +0.000 A 
ATOM     28  C   UNL     1      45.148   2.249   9.417  0.00  0.00    +0.000 A 
ATOM     29  N   UNL     1      45.893   1.400   8.671  0.00  0.00    +0.000 NA
ATOM     30  C   UNL     1      46.424   1.908   7.533  0.00  0.00    +0.000 A 
ATOM     31  C   UNL     1      46.264   3.222   7.132  0.00  0.00    +0.000 A 
ATOM     32  F   UNL     1      46.811   3.661   5.992  0.00  0.00    +0.000 F 
ATOM     33  C   UNL     1      45.502   4.075   7.915  0.00  0.00    +0.000 A 
ENDBRANCH  26  27
ENDBRANCH  24  26
ENDBRANCH  23  24
ENDBRANCH   4  23
TORSDOF 8
ENDMDL
MODEL 4
REMARK VINA RESULT:    -7.298      2.207      2.459
REMARK INTER + INTRA:         -11.722
REMARK INTER:                 -10.602
REMARK INTRA:                  -1.120
REMARK UNBOUND:                -1.010
REMARK  Name = 
REMARK  10 active torsions:
REMARK  status: ('A' for Active; 'I' for Inactive)
REMARK    1  A    between atoms: C_1  and  O_2
REMARK    2  A    between atoms: O_2  and  C_3
REMARK    3  A    between atoms: C_10  and  C_11
REMARK    4  A    between atoms: N_13  and  C_14
REMARK    5  A    between atoms: C_14  and  C_15
REMARK    6  A    between atoms: C_18  and  C_19
REMARK    7  A    between atoms: C_19  and  N_20
REMARK    8  A    between atoms: N_20  and  C_21
REMARK    9  A    between atoms: N_20  and  C_22
REMARK   10  A    between atoms: C_22  and  C_23
REMARK                            x       y       z     vdW  Elec       q    Type
REMARK                         _______ _______ _______ _____ _____    ______ ____
ROOT
ATOM      1  C   UNL     1      47.180   8.311  13.055  0.00  0.00    +0.000 A 
ATOM      2  C   UNL     1      47.512   7.060  12.519  0.00  0.00    +0.000 A 
ATOM      3  C   UNL     1      46.542   6.288  11.877  0.00  0.00    +0.000 A 
ATOM      4  C   UNL     1      45.224   6.753  11.763  0.00  0.00    +0.000 A 
ATOM      5  C   UNL     1      44.913   8.032  12.239  0.00  0.00    +0.000 A 
ATOM      6  C   UNL     1      45.883   8.807  12.873  0.00  0.00    +0.000 A 
ENDROOT
BRANCH   1   7
ATOM      7  C   UNL     1      48.189   9.108  13.832  0.00  0.00    +0.000 C 
BRANCH   7  10
ATOM      8  C   UNL     1      48.571   8.444  16.138  0.00  0.00    +0.000 C 
ATOM      9  O   UNL     1      49.487   7.710  15.775  0.00  0.00    +0.000 OA
ATOM     10  N   UNL     1      47.864   9.186  15.232  0.00  0.00    +0.000 N 
ATOM     11  H   UNL     1      47.116   9.801  15.527  0.00  0.00    +0.000 HD
BRANCH   8  19
ATOM     12  C   UNL     1      48.071   6.115  18.648  0.00  0.00    +0.000 A 
ATOM     13  N   UNL     1      47.828   5.460  19.803  0.00  0.00    +0.000 NA
ATOM     14  C   UNL     1      47.511   6.176  20.884  0.00  0.00    +0.000 A 
ATOM     15  N   UNL     1      47.399   7.494  20.963  0.00  0.00    +0.000 NA
ATOM     16  C   UNL     1      47.648   8.113  19.797  0.00  0.00    +0.000 A 
ATOM     17  S   UNL     1      47.544   9.805  19.723  0.00  0.00    +0.000 S 
ATOM     18  C   UNL     1      47.961   9.803  18.080  0.00  0.00    +0.000 A 
ATOM     19  C   UNL     1      48.191   8.536  17.557  0.00  0.00    +0.000 A 
ATOM     20  C   UNL     1      47.997   7.520  18.586  0.00  0.00    +0.000 A 
BRANCH  12  22
ATOM     21  C   UNL     1      47.438   4.362  17.225  0.00  0.00    +0.000 C 
ATOM     22  O   UNL     1      48.403   5.369  17.533  0.00  0.00    +0.000 OA
ENDBRANCH  12  22
ENDBRANCH   8  19
ENDBRANCH   7  10
ENDBRANCH   1   7
BRANCH   4  23
ATOM     23  C   UNL     1      44.141   5.891  11.147  0.00  0.00    +0.000 C 
BRANCH  23  24
ATOM     24  N   UNL     1      44.429   4.440  11.194  0.00  0.00    +0.000 NA
ATOM     25  C   UNL     1      43.912   3.831  12.425  0.00  0.00    +0.000 C 
BRANCH  24  26
ATOM     26  C   UNL     1      43.845   3.745  10.030  0.00  0.00    +0.000 C 
BRANCH  26  27
ATOM     27  C   UNL     1      44.888   3.173   9.106  0.00  0.00    +0.000 A 
ATOM     28  C   UNL     1      45.272   1.835   9.194  0.00  0.00    +0.000 A 
ATOM     29  N   UNL     1      46.123   1.230   8.333  0.00  0.00    +0.000 NA
ATOM     30  C   UNL     1      46.620   2.001   7.338  0.00  0.00    +0.000 A 
ATOM     31  C   UNL     1      46.326   3.345   7.188  0.00  0.00    +0.000 A 
ATOM     32  F   UNL     1      46.846   4.051   6.178  0.00  0.00    +0.000 F 
ATOM     33  C   UNL     1      45.456   3.945   8.086  0.00  0.00    +0.000 A 
ENDBRANCH  26  27
ENDBRANCH  24  26
ENDBRANCH  23  24
ENDBRANCH   4  23
TORSDOF 8
ENDMDL
MODEL 5
REMARK VINA RESULT:    -6.827      2.247      2.990
REMARK INTER + INTRA:         -11.031
REMARK INTER:                  -9.857
REMARK INTRA:                  -1.174
REMARK UNBOUND:                -1.010
REMARK  Name = 
REMARK  10 active torsions:
REMARK  status: ('A' for Active; 'I' for Inactive)
REMARK    1  A    between atoms: C_1  and  O_2
REMARK    2  A    between atoms: O_2  and  C_3
REMARK    3  A    between atoms: C_10  and  C_11
REMARK    4  A    between atoms: N_13  and  C_14
REMARK    5  A    between atoms: C_14  and  C_15
REMARK    6  A    between atoms: C_18  and  C_19
REMARK    7  A    between atoms: C_19  and  N_20
REMARK    8  A    between atoms: N_20  and  C_21
REMARK    9  A    between atoms: N_20  and  C_22
REMARK   10  A    between atoms: C_22  and  C_23
REMARK                            x       y       z     vdW  Elec       q    Type
REMARK                         _______ _______ _______ _____ _____    ______ ____
ROOT
ATOM      1  C   UNL     1      46.555   8.625  12.087  0.00  0.00    +0.000 A 
ATOM      2  C   UNL     1      47.085   7.340  11.915  0.00  0.00    +0.000 A 
ATOM      3  C   UNL     1      46.269   6.291  11.485  0.00  0.00    +0.000 A 
ATOM      4  C   UNL     1      44.909   6.511  11.223  0.00  0.00    +0.000 A 
ATOM      5  C   UNL     1      44.399   7.810  11.329  0.00  0.00    +0.000 A 
ATOM      6  C   UNL     1      45.216   8.859  11.751  0.00  0.00    +0.000 A 
ENDROOT
BRANCH   1   7
ATOM      7  C   UNL     1      47.397   9.739  12.641  0.00  0.00    +0.000 C 
BRANCH   7  10
ATOM      8  C   UNL     1      49.761   9.209  12.836  0.00  0.00    +0.000 C 
ATOM      9  O   UNL     1      49.941   9.586  11.680  0.00  0.00    +0.000 OA
ATOM     10  N   UNL     1      48.517   9.251  13.403  0.00  0.00    +0.000 N 
ATOM     11  H   UNL     1      48.365   8.952  14.359  0.00  0.00    +0.000 HD
BRANCH   8  19
ATOM     12  C   UNL     1      49.973   6.987  15.481  0.00  0.00    +0.000 A 
ATOM     13  N   UNL     1      50.363   6.170  16.482  0.00  0.00    +0.000 NA
ATOM     14  C   UNL     1      51.664   6.092  16.768  0.00  0.00    +0.000 A 
ATOM     15  N   UNL     1      52.652   6.743  16.170  0.00  0.00    +0.000 NA
ATOM     16  C   UNL     1      52.229   7.545  15.179  0.00  0.00    +0.000 A 
ATOM     17  S   UNL     1      53.368   8.455  14.312  0.00  0.00    +0.000 S 
ATOM     18  C   UNL     1      52.154   9.130  13.339  0.00  0.00    +0.000 A 
ATOM     19  C   UNL     1      50.873   8.682  13.642  0.00  0.00    +0.000 A 
ATOM     20  C   UNL     1      50.917   7.735  14.751  0.00  0.00    +0.000 A 
BRANCH  12  22
ATOM     21  C   UNL     1      48.006   5.780  15.065  0.00  0.00    +0.000 C 
ATOM     22  O   UNL     1      48.624   7.062  15.186  0.00  0.00    +0.000 OA
ENDBRANCH  12  22
ENDBRANCH   8  19
ENDBRANCH   7  10
ENDBRANCH   1   7
BRANCH   4  23
ATOM     23  C   UNL     1      43.993   5.367  10.840  0.00  0.00    +0.000 C 
BRANCH  23  24
ATOM     24  N   UNL     1      44.696   4.088  10.600  0.00  0.00    +0.000 NA
ATOM     25  C   UNL     1      44.607   3.201  11.767  0.00  0.00    +0.000 C 
BRANCH  24  26
ATOM     26  C   UNL     1      44.144   3.391   9.421  0.00  0.00    +0.000 C 
BRANCH  26  27
ATOM     27  C   UNL     1      45.213   2.853   8.506  0.00  0.00    +0.000 A 
ATOM     28  C   UNL     1      45.783   1.599   8.724  0.00  0.00    +0.000 A 
ATOM     29  N   UNL     1      46.669   1.011   7.887  0.00  0.00    +0.000 NA
ATOM     30  C   UNL     1      47.007   1.713   6.780  0.00  0.00    +0.000 A 
ATOM     31  C   UNL     1      46.522   2.977   6.495  0.00  0.00    +0.000 A 
ATOM     32  F   UNL     1      46.892   3.617   5.380  0.00  0.00    +0.000 F 
ATOM     33  C   UNL     1      45.620   3.562   7.370  0.00  0.00    +0.000 A 
ENDBRANCH  26  27
ENDBRANCH  24  26
ENDBRANCH  23  24
ENDBRANCH   4  23
TORSDOF 8
ENDMDL
MODEL 6
REMARK VINA RESULT:    -6.118      5.474      7.198
REMARK INTER + INTRA:          -9.990
REMARK INTER:                  -8.899
REMARK INTRA:                  -1.091
REMARK UNBOUND:                -1.010
REMARK  Name = 
REMARK  10 active torsions:
REMARK  status: ('A' for Active; 'I' for Inactive)
REMARK    1  A    between atoms: C_1  and  O_2
REMARK    2  A    between atoms: O_2  and  C_3
REMARK    3  A    between atoms: C_10  and  C_11
REMARK    4  A    between atoms: N_13  and  C_14
REMARK    5  A    between atoms: C_14  and  C_15
REMARK    6  A    between atoms: C_18  and  C_19
REMARK    7  A    between atoms: C_19  and  N_20
REMARK    8  A    between atoms: N_20  and  C_21
REMARK    9  A    between atoms: N_20  and  C_22
REMARK   10  A    between atoms: C_22  and  C_23
REMARK                            x       y       z     vdW  Elec       q    Type
REMARK                         _______ _______ _______ _____ _____    ______ ____
ROOT
ATOM      1  C   UNL     1      48.601   8.662  11.945  0.00  0.00    +0.000 A 
ATOM      2  C   UNL     1      48.491   7.272  11.812  0.00  0.00    +0.000 A 
ATOM      3  C   UNL     1      47.250   6.646  11.948  0.00  0.00    +0.000 A 
ATOM      4  C   UNL     1      46.100   7.401  12.222  0.00  0.00    +0.000 A 
ATOM      5  C   UNL     1      46.203   8.795  12.286  0.00  0.00    +0.000 A 
ATOM      6  C   UNL     1      47.441   9.421  12.142  0.00  0.00    +0.000 A 
ENDROOT
BRANCH   1   7
ATOM      7  C   UNL     1      49.943   9.337  11.897  0.00  0.00    +0.000 C 
BRANCH   7  10
ATOM      8  C   UNL     1      51.907   9.092  10.487  0.00  0.00    +0.000 C 
ATOM      9  O   UNL     1      51.928  10.307  10.305  0.00  0.00    +0.000 OA
ATOM     10  N   UNL     1      50.947   8.516  11.274  0.00  0.00    +0.000 N 
ATOM     11  H   UNL     1      50.931   7.516  11.435  0.00  0.00    +0.000 HD
BRANCH   8  19
ATOM     12  C   UNL     1      53.305   8.941   7.325  0.00  0.00    +0.000 A 
ATOM     13  N   UNL     1      54.017   8.649   6.216  0.00  0.00    +0.000 NA
ATOM     14  C   UNL     1      54.876   7.629   6.264  0.00  0.00    +0.000 A 
ATOM     15  N   UNL     1      55.121   6.840   7.301  0.00  0.00    +0.000 NA
ATOM     16  C   UNL     1      54.397   7.160   8.386  0.00  0.00    +0.000 A 
ATOM     17  S   UNL     1      54.586   6.245   9.802  0.00  0.00    +0.000 S 
ATOM     18  C   UNL     1      53.442   7.191  10.620  0.00  0.00    +0.000 A 
ATOM     19  C   UNL     1      52.900   8.214   9.849  0.00  0.00    +0.000 A 
ATOM     20  C   UNL     1      53.468   8.191   8.506  0.00  0.00    +0.000 A 
BRANCH  12  22
ATOM     21  C   UNL     1      53.048  11.241   6.946  0.00  0.00    +0.000 C 
ATOM     22  O   UNL     1      52.419  10.001   7.272  0.00  0.00    +0.000 OA
ENDBRANCH  12  22
ENDBRANCH   8  19
ENDBRANCH   7  10
ENDBRANCH   1   7
BRANCH   4  23
ATOM     23  C   UNL     1      44.763   6.729  12.458  0.00  0.00    +0.000 C 
BRANCH  23  24
ATOM     24  N   UNL     1      44.730   5.302  12.069  0.00  0.00    +0.000 NA
ATOM     25  C   UNL     1      44.078   4.482  13.098  0.00  0.00    +0.000 C 
BRANCH  24  26
ATOM     26  C   UNL     1      44.023   5.118  10.786  0.00  0.00    +0.000 C 
BRANCH  26  27
ATOM     27  C   UNL     1      44.737   4.171   9.856  0.00  0.00    +0.000 A 
ATOM     28  C   UNL     1      44.585   2.790   9.979  0.00  0.00    +0.000 A 
ATOM     29  N   UNL     1      45.111   1.888   9.117  0.00  0.00    +0.000 NA
ATOM     30  C   UNL     1      45.828   2.391   8.085  0.00  0.00    +0.000 A 
ATOM     31  C   UNL     1      46.062   3.741   7.899  0.00  0.00    +0.000 A 
ATOM     32  F   UNL     1      46.777   4.175   6.853  0.00  0.00    +0.000 F 
ATOM     33  C   UNL     1      45.519   4.647   8.797  0.00  0.00    +0.000 A 
ENDBRANCH  26  27
ENDBRANCH  24  26
ENDBRANCH  23  24
ENDBRANCH   4  23
TORSDOF 8
ENDMDL
MODEL 7
REMARK VINA RESULT:    -6.057      5.638      7.545
REMARK INTER + INTRA:          -9.899
REMARK INTER:                  -9.046
REMARK INTRA:                  -0.853
REMARK UNBOUND:                -1.010
REMARK  Name = 
REMARK  10 active torsions:
REMARK  status: ('A' for Active; 'I' for Inactive)
REMARK    1  A    between atoms: C_1  and  O_2
REMARK    2  A    between atoms: O_2  and  C_3
REMARK    3  A    between atoms: C_10  and  C_11
REMARK    4  A    between atoms: N_13  and  C_14
REMARK    5  A    between atoms: C_14  and  C_15
REMARK    6  A    between atoms: C_18  and  C_19
REMARK    7  A    between atoms: C_19  and  N_20
REMARK    8  A    between atoms: N_20  and  C_21
REMARK    9  A    between atoms: N_20  and  C_22
REMARK   10  A    between atoms: C_22  and  C_23
REMARK                            x       y       z     vdW  Elec       q    Type
REMARK                         _______ _______ _______ _____ _____    ______ ____
ROOT
ATOM      1  C   UNL     1      50.249   8.680  11.791  0.00  0.00    +0.000 A 
ATOM      2  C   UNL     1      49.965   7.318  11.951  0.00  0.00    +0.000 A 
ATOM      3  C   UNL     1      48.650   6.889  12.147  0.00  0.00    +0.000 A 
ATOM      4  C   UNL     1      47.599   7.817  12.187  0.00  0.00    +0.000 A 
ATOM      5  C   UNL     1      47.879   9.169  11.958  0.00  0.00    +0.000 A 
ATOM      6  C   UNL     1      49.190   9.597  11.755  0.00  0.00    +0.000 A 
ENDROOT
BRANCH   1   7
ATOM      7  C   UNL     1      51.667   9.164  11.677  0.00  0.00    +0.000 C 
BRANCH   7  10
ATOM      8  C   UNL     1      52.903   8.113   9.868  0.00  0.00    +0.000 C 
ATOM      9  O   UNL     1      52.468   8.953   9.083  0.00  0.00    +0.000 OA
ATOM     10  N   UNL     1      52.556   8.142  11.191  0.00  0.00    +0.000 N 
ATOM     11  H   UNL     1      52.920   7.459  11.844  0.00  0.00    +0.000 HD
BRANCH   8  19
ATOM     12  C   UNL     1      53.483   6.617   6.803  0.00  0.00    +0.000 A 
ATOM     13  N   UNL     1      53.926   5.873   5.767  0.00  0.00    +0.000 NA
ATOM     14  C   UNL     1      54.874   4.963   5.997  0.00  0.00    +0.000 A 
ATOM     15  N   UNL     1      55.451   4.689   7.159  0.00  0.00    +0.000 NA
ATOM     16  C   UNL     1      54.988   5.447   8.167  0.00  0.00    +0.000 A 
ATOM     17  S   UNL     1      55.618   5.222   9.725  0.00  0.00    +0.000 S 
ATOM     18  C   UNL     1      54.618   6.437  10.355  0.00  0.00    +0.000 A 
ATOM     19  C   UNL     1      53.796   7.038   9.408  0.00  0.00    +0.000 A 
ATOM     20  C   UNL     1      54.013   6.440   8.095  0.00  0.00    +0.000 A 
BRANCH  12  22
ATOM     21  C   UNL     1      52.903   8.547   5.605  0.00  0.00    +0.000 C 
ATOM     22  O   UNL     1      52.504   7.561   6.557  0.00  0.00    +0.000 OA
ENDBRANCH  12  22
ENDBRANCH   8  19
ENDBRANCH   7  10
ENDBRANCH   1   7
BRANCH   4  23
ATOM     23  C   UNL     1      46.180   7.378  12.485  0.00  0.00    +0.000 C 
BRANCH  23  24
ATOM     24  N   UNL     1      45.935   5.937  12.251  0.00  0.00    +0.000 NA
ATOM     25  C   UNL     1      45.787   5.208  13.517  0.00  0.00    +0.000 C 
BRANCH  24  26
ATOM     26  C   UNL     1      44.726   5.730  11.430  0.00  0.00    +0.000 C 
BRANCH  26  27
ATOM     27  C   UNL     1      44.974   4.844  10.237  0.00  0.00    +0.000 A 
ATOM     28  C   UNL     1      45.769   5.273   9.175  0.00  0.00    +0.000 A 
ATOM     29  N   UNL     1      46.118   4.495   8.124  0.00  0.00    +0.000 NA
ATOM     30  C   UNL     1      45.644   3.227   8.132  0.00  0.00    +0.000 A 
ATOM     31  C   UNL     1      44.822   2.721   9.123  0.00  0.00    +0.000 A 
ATOM     32  F   UNL     1      44.391   1.455   9.075  0.00  0.00    +0.000 F 
ATOM     33  C   UNL     1      44.472   3.538  10.186  0.00  0.00    +0.000 A 
ENDBRANCH  26  27
ENDBRANCH  24  26
ENDBRANCH  23  24
ENDBRANCH   4  23
TORSDOF 8
ENDMDL
MODEL 8
REMARK VINA RESULT:    -6.017      3.461      4.869
REMARK INTER + INTRA:          -9.841
REMARK INTER:                  -9.087
REMARK INTRA:                  -0.754
REMARK UNBOUND:                -1.010
REMARK  Name = 
REMARK  10 active torsions:
REMARK  status: ('A' for Active; 'I' for Inactive)
REMARK    1  A    between atoms: C_1  and  O_2
REMARK    2  A    between atoms: O_2  and  C_3
REMARK    3  A    between atoms: C_10  and  C_11
REMARK    4  A    between atoms: N_13  and  C_14
REMARK    5  A    between atoms: C_14  and  C_15
REMARK    6  A    between atoms: C_18  and  C_19
REMARK    7  A    between atoms: C_19  and  N_20
REMARK    8  A    between atoms: N_20  and  C_21
REMARK    9  A    between atoms: N_20  and  C_22
REMARK   10  A    between atoms: C_22  and  C_23
REMARK                            x       y       z     vdW  Elec       q    Type
REMARK                         _______ _______ _______ _____ _____    ______ ____
ROOT
ATOM      1  C   UNL     1      46.091   7.423  12.784  0.00  0.00    +0.000 A 
ATOM      2  C   UNL     1      46.191   6.346  13.673  0.00  0.00    +0.000 A 
ATOM      3  C   UNL     1      46.045   5.035  13.213  0.00  0.00    +0.000 A 
ATOM      4  C   UNL     1      45.795   4.783  11.857  0.00  0.00    +0.000 A 
ATOM      5  C   UNL     1      45.764   5.857  10.961  0.00  0.00    +0.000 A 
ATOM      6  C   UNL     1      45.917   7.165  11.419  0.00  0.00    +0.000 A 
ENDROOT
BRANCH   1   7
ATOM      7  C   UNL     1      46.149   8.840  13.281  0.00  0.00    +0.000 C 
BRANCH   7  10
ATOM      8  C   UNL     1      48.235   9.402  14.393  0.00  0.00    +0.000 C 
ATOM      9  O   UNL     1      47.787   8.968  15.452  0.00  0.00    +0.000 OA
ATOM     10  N   UNL     1      47.484   9.377  13.250  0.00  0.00    +0.000 N 
ATOM     11  H   UNL     1      47.852   9.724  12.373  0.00  0.00    +0.000 HD
BRANCH   8  19
ATOM     12  C   UNL     1      50.674   9.527  11.942  0.00  0.00    +0.000 A 
ATOM     13  N   UNL     1      51.778   9.746  11.198  0.00  0.00    +0.000 NA
ATOM     14  C   UNL     1      52.785  10.432  11.743  0.00  0.00    +0.000 A 
ATOM     15  N   UNL     1      52.834  10.939  12.967  0.00  0.00    +0.000 NA
ATOM     16  C   UNL     1      51.720  10.703  13.678  0.00  0.00    +0.000 A 
ATOM     17  S   UNL     1      51.620  11.280  15.270  0.00  0.00    +0.000 S 
ATOM     18  C   UNL     1      50.062  10.636  15.453  0.00  0.00    +0.000 A 
ATOM     19  C   UNL     1      49.585   9.981  14.324  0.00  0.00    +0.000 A 
ATOM     20  C   UNL     1      50.583  10.015  13.259  0.00  0.00    +0.000 A 
BRANCH  12  22
ATOM     21  C   UNL     1      49.753   7.406  11.548  0.00  0.00    +0.000 C 
ATOM     22  O   UNL     1      49.632   8.818  11.371  0.00  0.00    +0.000 OA
ENDBRANCH  12  22
ENDBRANCH   8  19
ENDBRANCH   7  10
ENDBRANCH   1   7
BRANCH   4  23
ATOM     23  C   UNL     1      45.548   3.374  11.357  0.00  0.00    +0.000 C 
BRANCH  23  24
ATOM     24  N   UNL     1      44.254   3.201  10.660  0.00  0.00    +0.000 NA
ATOM     25  C   UNL     1      43.168   3.887  11.372  0.00  0.00    +0.000 C 
BRANCH  24  26
ATOM     26  C   UNL     1      44.323   3.713   9.277  0.00  0.00    +0.000 C 
BRANCH  26  27
ATOM     27  C   UNL     1      45.361   3.007   8.443  0.00  0.00    +0.000 A 
ATOM     28  C   UNL     1      46.250   3.725   7.643  0.00  0.00    +0.000 A 
ATOM     29  N   UNL     1      47.270   3.166   6.952  0.00  0.00    +0.000 NA
ATOM     30  C   UNL     1      47.406   1.823   7.061  0.00  0.00    +0.000 A 
ATOM     31  C   UNL     1      46.554   1.023   7.802  0.00  0.00    +0.000 A 
ATOM     32  F   UNL     1      46.746  -0.299   7.873  0.00  0.00    +0.000 F 
ATOM     33  C   UNL     1      45.512   1.617   8.497  0.00  0.00    +0.000 A 
ENDBRANCH  26  27
ENDBRANCH  24  26
ENDBRANCH  23  24
ENDBRANCH   4  23
TORSDOF 8
ENDMDL
MODEL 9
REMARK VINA RESULT:    -5.468      3.664      4.902
REMARK INTER + INTRA:          -9.035
REMARK INTER:                  -8.312
REMARK INTRA:                  -0.723
REMARK UNBOUND:                -1.010
REMARK  Name = 
REMARK  10 active torsions:
REMARK  status: ('A' for Active; 'I' for Inactive)
REMARK    1  A    between atoms: C_1  and  O_2
REMARK    2  A    between atoms: O_2  and  C_3
REMARK    3  A    between atoms: C_10  and  C_11
REMARK    4  A    between atoms: N_13  and  C_14
REMARK    5  A    between atoms: C_14  and  C_15
REMARK    6  A    between atoms: C_18  and  C_19
REMARK    7  A    between atoms: C_19  and  N_20
REMARK    8  A    between atoms: N_20  and  C_21
REMARK    9  A    between atoms: N_20  and  C_22
REMARK   10  A    between atoms: C_22  and  C_23
REMARK                            x       y       z     vdW  Elec       q    Type
REMARK                         _______ _______ _______ _____ _____    ______ ____
ROOT
ATOM      1  C   UNL     1      46.190   7.407  12.713  0.00  0.00    +0.000 A 
ATOM      2  C   UNL     1      45.625   6.494  13.613  0.00  0.00    +0.000 A 
ATOM      3  C   UNL     1      45.381   5.176  13.221  0.00  0.00    +0.000 A 
ATOM      4  C   UNL     1      45.695   4.751  11.922  0.00  0.00    +0.000 A 
ATOM      5  C   UNL     1      46.321   5.647  11.048  0.00  0.00    +0.000 A 
ATOM      6  C   UNL     1      46.573   6.961  11.441  0.00  0.00    +0.000 A 
ENDROOT
BRANCH   1   7
ATOM      7  C   UNL     1      46.368   8.850  13.089  0.00  0.00    +0.000 C 
BRANCH   7  10
ATOM      8  C   UNL     1      48.270  10.318  12.718  0.00  0.00    +0.000 C 
ATOM      9  O   UNL     1      47.571  11.045  12.016  0.00  0.00    +0.000 OA
ATOM     10  N   UNL     1      47.750   9.194  13.300  0.00  0.00    +0.000 N 
ATOM     11  H   UNL     1      48.318   8.597  13.888  0.00  0.00    +0.000 HD
BRANCH   8  19
ATOM     12  C   UNL     1      50.434   9.874  15.382  0.00  0.00    +0.000 A 
ATOM     13  N   UNL     1      51.489   9.819  16.222  0.00  0.00    +0.000 NA
ATOM     14  C   UNL     1      52.664  10.287  15.798  0.00  0.00    +0.000 A 
ATOM     15  N   UNL     1      52.929  10.820  14.613  0.00  0.00    +0.000 NA
ATOM     16  C   UNL     1      51.859  10.858  13.803  0.00  0.00    +0.000 A 
ATOM     17  S   UNL     1      52.024  11.515  12.248  0.00  0.00    +0.000 S 
ATOM     18  C   UNL     1      50.391  11.221  11.900  0.00  0.00    +0.000 A 
ATOM     19  C   UNL     1      49.692  10.620  12.941  0.00  0.00    +0.000 A 
ATOM     20  C   UNL     1      50.571  10.408  14.086  0.00  0.00    +0.000 A 
BRANCH  12  22
ATOM     21  C   UNL     1      48.585  10.239  16.777  0.00  0.00    +0.000 C 
ATOM     22  O   UNL     1      49.220   9.384  15.825  0.00  0.00    +0.000 OA
ENDBRANCH  12  22
ENDBRANCH   8  19
ENDBRANCH   7  10
ENDBRANCH   1   7
BRANCH   4  23
ATOM     23  C   UNL     1      45.356   3.350  11.455  0.00  0.00    +0.000 C 
BRANCH  23  24
ATOM     24  N   UNL     1      44.130   3.272  10.628  0.00  0.00    +0.000 NA
ATOM     25  C   UNL     1      43.000   3.942  11.284  0.00  0.00    +0.000 C 
BRANCH  24  26
ATOM     26  C   UNL     1      44.346   3.879   9.300  0.00  0.00    +0.000 C 
BRANCH  26  27
ATOM     27  C   UNL     1      45.354   3.128   8.470  0.00  0.00    +0.000 A 
ATOM     28  C   UNL     1      46.250   3.803   7.642  0.00  0.00    +0.000 A 
ATOM     29  N   UNL     1      47.246   3.201   6.950  0.00  0.00    +0.000 NA
ATOM     30  C   UNL     1      47.348   1.858   7.089  0.00  0.00    +0.000 A 
ATOM     31  C   UNL     1      46.486   1.099   7.859  0.00  0.00    +0.000 A 
ATOM     32  F   UNL     1      46.644  -0.226   7.959  0.00  0.00    +0.000 F 
ATOM     33  C   UNL     1      45.469   1.736   8.554  0.00  0.00    +0.000 A 
ENDBRANCH  26  27
ENDBRANCH  24  26
ENDBRANCH  23  24
ENDBRANCH   4  23
TORSDOF 8
ENDMDL
