MODEL 1
REMARK VINA RESULT:    -7.714      0.000      0.000
REMARK INTER + INTRA:         -12.041
REMARK INTER:                 -10.871
REMARK INTRA:                  -1.170
REMARK UNBOUND:                -1.170
REMARK  Name = 
REMARK  10 active torsions:
REMARK  status: ('A' for Active; 'I' for Inactive)
REMARK    1  A    between atoms: C_1  and  O_2
REMARK    2  A    between atoms: O_2  and  C_3
REMARK    3  A    between atoms: C_10  and  C_11
REMARK    4  A    between atoms: N_13  and  C_14
REMARK    5  A    between atoms: C_14  and  C_15
REMARK    6  A    between atoms: C_18  and  C_19
REMARK    7  A    between atoms: C_20  and  C_21
REMARK    8  A    between atoms: C_21  and  C_22
REMARK    9  A    between atoms: C_21  and  C_23
REMARK   10  A    between atoms: C_21  and  C_24
REMARK                            x       y       z     vdW  Elec       q    Type
REMARK                         _______ _______ _______ _____ _____    ______ ____
ROOT
ATOM      1  C   UNL     1      48.658   6.012  16.154  0.00  0.00    +0.000 A 
ATOM      2  C   UNL     1      48.620   6.690  14.928  0.00  0.00    +0.000 A 
ATOM      3  C   UNL     1      47.794   6.249  13.878  0.00  0.00    +0.000 A 
ATOM      4  C   UNL     1      46.978   5.126  14.038  0.00  0.00    +0.000 A 
ATOM      5  C   UNL     1      47.060   4.406  15.234  0.00  0.00    +0.000 A 
ATOM      6  C   UNL     1      47.890   4.844  16.282  0.00  0.00    +0.000 A 
ENDROOT
BRANCH   4   7
ATOM      7  C   UNL     1      46.045   4.739  13.007  0.00  0.00    +0.000 C 
ATOM      8  C   UNL     1      45.196   4.390  12.081  0.00  0.00    +0.000 C 
BRANCH   8   9
ATOM      9  C   UNL     1      44.206   3.986  11.001  0.00  0.00    +0.000 C 
ATOM     10  C   UNL     1      43.335   2.826  11.518  0.00  0.00    +0.000 C 
ATOM     11  C   UNL     1      43.293   5.190  10.708  0.00  0.00    +0.000 C 
BRANCH   9  12
ATOM     12  C   UNL     1      45.002   3.545   9.760  0.00  0.00    +0.000 A 
ATOM     13  C   UNL     1      45.471   4.495   8.844  0.00  0.00    +0.000 A 
ATOM     14  C   UNL     1      46.097   4.073   7.673  0.00  0.00    +0.000 A 
ATOM     15  C   UNL     1      46.253   2.716   7.440  0.00  0.00    +0.000 A 
ATOM     16  C   UNL     1      45.793   1.834   8.401  0.00  0.00    +0.000 A 
ATOM     17  N   UNL     1      45.180   2.215   9.544  0.00  0.00    +0.000 NA
ENDBRANCH   9  12
ENDBRANCH   8   9
ENDBRANCH   4   7
BRANCH   1  18
ATOM     18  C   UNL     1      49.437   6.576  17.328  0.00  0.00    +0.000 C 
BRANCH  18  21
ATOM     19  C   UNL     1      51.698   5.539  17.406  0.00  0.00    +0.000 C 
ATOM     20  O   UNL     1      52.135   6.308  16.550  0.00  0.00    +0.000 OA
ATOM     21  N   UNL     1      50.398   5.611  17.829  0.00  0.00    +0.000 N 
ATOM     22  H   UNL     1      50.072   4.978  18.545  0.00  0.00    +0.000 HD
BRANCH  19  30
ATOM     23  C   UNL     1      51.583   2.101  17.392  0.00  0.00    +0.000 A 
ATOM     24  N   UNL     1      51.803   0.777  17.477  0.00  0.00    +0.000 NA
ATOM     25  C   UNL     1      52.892   0.363  18.133  0.00  0.00    +0.000 A 
ATOM     26  N   UNL     1      53.797   1.124  18.743  0.00  0.00    +0.000 NA
ATOM     27  C   UNL     1      53.542   2.439  18.624  0.00  0.00    +0.000 A 
ATOM     28  S   UNL     1      54.579   3.567  19.356  0.00  0.00    +0.000 S 
ATOM     29  C   UNL     1      53.657   4.872  18.768  0.00  0.00    +0.000 A 
ATOM     30  C   UNL     1      52.558   4.491  18.006  0.00  0.00    +0.000 A 
ATOM     31  C   UNL     1      52.476   3.031  17.950  0.00  0.00    +0.000 A 
BRANCH  23  33
ATOM     32  C   UNL     1      49.247   2.138  17.338  0.00  0.00    +0.000 C 
ATOM     33  O   UNL     1      50.464   2.528  16.707  0.00  0.00    +0.000 OA
ENDBRANCH  23  33
ENDBRANCH  19  30
ENDBRANCH  18  21
ENDBRANCH   1  18
TORSDOF 7
ENDMDL
MODEL 2
REMARK VINA RESULT:    -7.700      1.075      1.578
REMARK INTER + INTRA:         -12.021
REMARK INTER:                 -10.736
REMARK INTRA:                  -1.285
REMARK UNBOUND:                -1.170
REMARK  Name = 
REMARK  10 active torsions:
REMARK  status: ('A' for Active; 'I' for Inactive)
REMARK    1  A    between atoms: C_1  and  O_2
REMARK    2  A    between atoms: O_2  and  C_3
REMARK    3  A    between atoms: C_10  and  C_11
REMARK    4  A    between atoms: N_13  and  C_14
REMARK    5  A    between atoms: C_14  and  C_15
REMARK    6  A    between atoms: C_18  and  C_19
REMARK    7  A    between atoms: C_20  and  C_21
REMARK    8  A    between atoms: C_21  and  C_22
REMARK    9  A    between atoms: C_21  and  C_23
REMARK   10  A    between atoms: C_21  and  C_24
REMARK                            x       y       z     vdW  Elec       q    Type
REMARK                         _______ _______ _______ _____ _____    ______ ____
ROOT
ATOM      1  C   UNL     1      49.432   7.027  15.021  0.00  0.00    +0.000 A 
ATOM      2  C   UNL     1      48.519   6.129  15.591  0.00  0.00    +0.000 A 
ATOM      3  C   UNL     1      47.454   5.600  14.839  0.00  0.00    +0.000 A 
ATOM      4  C   UNL     1      47.289   5.949  13.496  0.00  0.00    +0.000 A 
ATOM      5  C   UNL     1      48.156   6.894  12.940  0.00  0.00    +0.000 A 
ATOM      6  C   UNL     1      49.218   7.428  13.693  0.00  0.00    +0.000 A 
ENDROOT
BRANCH   4   7
ATOM      7  C   UNL     1      46.269   5.321  12.691  0.00  0.00    +0.000 C 
ATOM      8  C   UNL     1      45.346   4.761  11.959  0.00  0.00    +0.000 C 
BRANCH   8   9
ATOM      9  C   UNL     1      44.272   4.108  11.105  0.00  0.00    +0.000 C 
ATOM     10  C   UNL     1      43.655   2.928  11.878  0.00  0.00    +0.000 C 
ATOM     11  C   UNL     1      43.169   5.148  10.838  0.00  0.00    +0.000 C 
BRANCH   9  12
ATOM     12  C   UNL     1      44.928   3.610   9.805  0.00  0.00    +0.000 A 
ATOM     13  C   UNL     1      45.019   2.238   9.536  0.00  0.00    +0.000 A 
ATOM     14  C   UNL     1      45.708   1.801   8.408  0.00  0.00    +0.000 A 
ATOM     15  C   UNL     1      46.288   2.735   7.564  0.00  0.00    +0.000 A 
ATOM     16  C   UNL     1      46.135   4.074   7.874  0.00  0.00    +0.000 A 
ATOM     17  N   UNL     1      45.474   4.526   8.963  0.00  0.00    +0.000 NA
ENDBRANCH   9  12
ENDBRANCH   8   9
ENDBRANCH   4   7
BRANCH   1  18
ATOM     18  C   UNL     1      50.659   7.477  15.792  0.00  0.00    +0.000 C 
BRANCH  18  21
ATOM     19  C   UNL     1      51.373   5.967  17.636  0.00  0.00    +0.000 C 
ATOM     20  O   UNL     1      50.718   6.593  18.470  0.00  0.00    +0.000 OA
ATOM     21  N   UNL     1      51.392   6.341  16.320  0.00  0.00    +0.000 N 
ATOM     22  H   UNL     1      51.925   5.799  15.656  0.00  0.00    +0.000 HD
BRANCH  19  30
ATOM     23  C   UNL     1      50.883   2.573  17.361  0.00  0.00    +0.000 A 
ATOM     24  N   UNL     1      50.966   1.232  17.309  0.00  0.00    +0.000 NA
ATOM     25  C   UNL     1      52.078   0.654  17.775  0.00  0.00    +0.000 A 
ATOM     26  N   UNL     1      53.131   1.262  18.314  0.00  0.00    +0.000 NA
ATOM     27  C   UNL     1      53.008   2.601  18.337  0.00  0.00    +0.000 A 
ATOM     28  S   UNL     1      54.246   3.548  19.009  0.00  0.00    +0.000 S 
ATOM     29  C   UNL     1      53.405   4.986  18.659  0.00  0.00    +0.000 A 
ATOM     30  C   UNL     1      52.183   4.788  18.026  0.00  0.00    +0.000 A 
ATOM     31  C   UNL     1      51.936   3.355  17.865  0.00  0.00    +0.000 A 
BRANCH  23  33
ATOM     32  C   UNL     1      48.698   3.247  17.844  0.00  0.00    +0.000 C 
ATOM     33  O   UNL     1      49.739   3.170  16.873  0.00  0.00    +0.000 OA
ENDBRANCH  23  33
ENDBRANCH  19  30
ENDBRANCH  18  21
ENDBRANCH   1  18
TORSDOF 7
ENDMDL
MODEL 3
REMARK VINA RESULT:    -6.543      3.182      4.042
REMARK INTER + INTRA:         -10.391
REMARK INTER:                  -8.912
REMARK INTRA:                  -1.479
REMARK UNBOUND:                -1.170
REMARK  Name = 
REMARK  10 active torsions:
REMARK  status: ('A' for Active; 'I' for Inactive)
REMARK    1  A    between atoms: C_1  and  O_2
REMARK    2  A    between atoms: O_2  and  C_3
REMARK    3  A    between atoms: C_10  and  C_11
REMARK    4  A    between atoms: N_13  and  C_14
REMARK    5  A    between atoms: C_14  and  C_15
REMARK    6  A    between atoms: C_18  and  C_19
REMARK    7  A    between atoms: C_20  and  C_21
REMARK    8  A    between atoms: C_21  and  C_22
REMARK    9  A    between atoms: C_21  and  C_23
REMARK   10  A    between atoms: C_21  and  C_24
REMARK                            x       y       z     vdW  Elec       q    Type
REMARK                         _______ _______ _______ _____ _____    ______ ____
ROOT
ATOM      1  C   UNL     1      49.027   8.728  14.005  0.00  0.00    +0.000 A 
ATOM      2  C   UNL     1      47.747   9.157  13.629  0.00  0.00    +0.000 A 
ATOM      3  C   UNL     1      46.868   8.303  12.936  0.00  0.00    +0.000 A 
ATOM      4  C   UNL     1      47.250   6.997  12.617  0.00  0.00    +0.000 A 
ATOM      5  C   UNL     1      48.548   6.584  12.930  0.00  0.00    +0.000 A 
ATOM      6  C   UNL     1      49.429   7.439  13.618  0.00  0.00    +0.000 A 
ENDROOT
BRANCH   4   7
ATOM      7  C   UNL     1      46.312   6.083  12.011  0.00  0.00    +0.000 C 
ATOM      8  C   UNL     1      45.470   5.250  11.465  0.00  0.00    +0.000 C 
BRANCH   8   9
ATOM      9  C   UNL     1      44.488   4.279  10.830  0.00  0.00    +0.000 C 
ATOM     10  C   UNL     1      44.185   3.140  11.821  0.00  0.00    +0.000 C 
ATOM     11  C   UNL     1      43.179   5.038  10.541  0.00  0.00    +0.000 C 
BRANCH   9  12
ATOM     12  C   UNL     1      45.128   3.717   9.548  0.00  0.00    +0.000 A 
ATOM     13  C   UNL     1      45.246   2.334   9.362  0.00  0.00    +0.000 A 
ATOM     14  C   UNL     1      45.922   1.844   8.247  0.00  0.00    +0.000 A 
ATOM     15  C   UNL     1      46.461   2.736   7.335  0.00  0.00    +0.000 A 
ATOM     16  C   UNL     1      46.282   4.088   7.566  0.00  0.00    +0.000 A 
ATOM     17  N   UNL     1      45.633   4.592   8.639  0.00  0.00    +0.000 NA
ENDBRANCH   9  12
ENDBRANCH   8   9
ENDBRANCH   4   7
BRANCH   1  18
ATOM     18  C   UNL     1      49.911   9.600  14.878  0.00  0.00    +0.000 C 
BRANCH  18  21
ATOM     19  C   UNL     1      49.198   9.471  17.258  0.00  0.00    +0.000 C 
ATOM     20  O   UNL     1      48.332  10.331  17.098  0.00  0.00    +0.000 OA
ATOM     21  N   UNL     1      50.002   9.069  16.226  0.00  0.00    +0.000 N 
ATOM     22  H   UNL     1      50.693   8.350  16.383  0.00  0.00    +0.000 HD
BRANCH  19  30
ATOM     23  C   UNL     1      49.183   6.210  18.356  0.00  0.00    +0.000 A 
ATOM     24  N   UNL     1      49.304   5.042  19.011  0.00  0.00    +0.000 NA
ATOM     25  C   UNL     1      49.640   5.081  20.305  0.00  0.00    +0.000 A 
ATOM     26  N   UNL     1      49.854   6.166  21.044  0.00  0.00    +0.000 NA
ATOM     27  C   UNL     1      49.732   7.309  20.347  0.00  0.00    +0.000 A 
ATOM     28  S   UNL     1      49.951   8.800  21.128  0.00  0.00    +0.000 S 
ATOM     29  C   UNL     1      49.674   9.656  19.682  0.00  0.00    +0.000 A 
ATOM     30  C   UNL     1      49.419   8.843  18.583  0.00  0.00    +0.000 A 
ATOM     31  C   UNL     1      49.423   7.439  18.995  0.00  0.00    +0.000 A 
BRANCH  23  33
ATOM     32  C   UNL     1      48.256   4.930  16.635  0.00  0.00    +0.000 C 
ATOM     33  O   UNL     1      48.846   6.170  17.019  0.00  0.00    +0.000 OA
ENDBRANCH  23  33
ENDBRANCH  19  30
ENDBRANCH  18  21
ENDBRANCH   1  18
TORSDOF 7
ENDMDL
MODEL 4
REMARK VINA RESULT:    -6.527      3.204      4.034
REMARK INTER + INTRA:         -10.368
REMARK INTER:                  -8.874
REMARK INTRA:                  -1.493
REMARK UNBOUND:                -1.170
REMARK  Name = 
REMARK  10 active torsions:
REMARK  status: ('A' for Active; 'I' for Inactive)
REMARK    1  A    between atoms: C_1  and  O_2
REMARK    2  A    between atoms: O_2  and  C_3
REMARK    3  A    between atoms: C_10  and  C_11
REMARK    4  A    between atoms: N_13  and  C_14
REMARK    5  A    between atoms: C_14  and  C_15
REMARK    6  A    between atoms: C_18  and  C_19
REMARK    7  A    between atoms: C_20  and  C_21
REMARK    8  A    between atoms: C_21  and  C_22
REMARK    9  A    between atoms: C_21  and  C_23
REMARK   10  A    between atoms: C_21  and  C_24
REMARK                            x       y       z     vdW  Elec       q    Type
REMARK                         _______ _______ _______ _____ _____    ______ ____
ROOT
ATOM      1  C   UNL     1      47.354   8.365  13.358  0.00  0.00    +0.000 A 
ATOM      2  C   UNL     1      45.974   8.216  13.158  0.00  0.00    +0.000 A 
ATOM      3  C   UNL     1      45.470   7.279  12.237  0.00  0.00    +0.000 A 
ATOM      4  C   UNL     1      46.337   6.463  11.506  0.00  0.00    +0.000 A 
ATOM      5  C   UNL     1      47.715   6.652  11.652  0.00  0.00    +0.000 A 
ATOM      6  C   UNL     1      48.219   7.592  12.569  0.00  0.00    +0.000 A 
ENDROOT
BRANCH   4   7
ATOM      7  C   UNL     1      45.822   5.423  10.648  0.00  0.00    +0.000 C 
ATOM      8  C   UNL     1      45.362   4.487   9.866  0.00  0.00    +0.000 C 
BRANCH   8   9
ATOM      9  C   UNL     1      44.826   3.395   8.955  0.00  0.00    +0.000 C 
ATOM     10  C   UNL     1      44.190   2.284   9.811  0.00  0.00    +0.000 C 
ATOM     11  C   UNL     1      43.734   4.007   8.059  0.00  0.00    +0.000 C 
BRANCH   9  12
ATOM     12  C   UNL     1      46.001   2.832   8.136  0.00  0.00    +0.000 A 
ATOM     13  C   UNL     1      46.732   3.666   7.280  0.00  0.00    +0.000 A 
ATOM     14  C   UNL     1      47.723   3.121   6.467  0.00  0.00    +0.000 A 
ATOM     15  C   UNL     1      47.975   1.759   6.526  0.00  0.00    +0.000 A 
ATOM     16  C   UNL     1      47.235   1.001   7.415  0.00  0.00    +0.000 A 
ATOM     17  N   UNL     1      46.266   1.502   8.213  0.00  0.00    +0.000 NA
ENDBRANCH   9  12
ENDBRANCH   8   9
ENDBRANCH   4   7
BRANCH   1  18
ATOM     18  C   UNL     1      47.884   9.270  14.455  0.00  0.00    +0.000 C 
BRANCH  18  21
ATOM     19  C   UNL     1      48.990   8.734  16.618  0.00  0.00    +0.000 C 
ATOM     20  O   UNL     1      49.915   9.516  16.397  0.00  0.00    +0.000 OA
ATOM     21  N   UNL     1      47.973   8.563  15.719  0.00  0.00    +0.000 N 
ATOM     22  H   UNL     1      47.220   7.926  15.935  0.00  0.00    +0.000 HD
BRANCH  19  30
ATOM     23  C   UNL     1      48.639   5.369  17.244  0.00  0.00    +0.000 A 
ATOM     24  N   UNL     1      48.592   4.122  17.745  0.00  0.00    +0.000 NA
ATOM     25  C   UNL     1      48.697   3.975  19.070  0.00  0.00    +0.000 A 
ATOM     26  N   UNL     1      48.828   4.940  19.975  0.00  0.00    +0.000 NA
ATOM     27  C   UNL     1      48.880   6.168  19.429  0.00  0.00    +0.000 A 
ATOM     28  S   UNL     1      49.025   7.530  20.431  0.00  0.00    +0.000 S 
ATOM     29  C   UNL     1      49.043   8.578  19.090  0.00  0.00    +0.000 A 
ATOM     30  C   UNL     1      48.948   7.930  17.864  0.00  0.00    +0.000 A 
ATOM     31  C   UNL     1      48.817   6.488  18.074  0.00  0.00    +0.000 A 
BRANCH  23  33
ATOM     32  C   UNL     1      47.384   4.886  15.332  0.00  0.00    +0.000 C 
ATOM     33  O   UNL     1      48.538   5.521  15.876  0.00  0.00    +0.000 OA
ENDBRANCH  23  33
ENDBRANCH  19  30
ENDBRANCH  18  21
ENDBRANCH   1  18
TORSDOF 7
ENDMDL
MODEL 5
REMARK VINA RESULT:    -6.193      3.651      9.701
REMARK INTER + INTRA:          -9.898
REMARK INTER:                  -8.837
REMARK INTRA:                  -1.060
REMARK UNBOUND:                -1.170
REMARK  Name = 
REMARK  10 active torsions:
REMARK  status: ('A' for Active; 'I' for Inactive)
REMARK    1  A    between atoms: C_1  and  O_2
REMARK    2  A    between atoms: O_2  and  C_3
REMARK    3  A    between atoms: C_10  and  C_11
REMARK    4  A    between atoms: N_13  and  C_14
REMARK    5  A    between atoms: C_14  and  C_15
REMARK    6  A    between atoms: C_18  and  C_19
REMARK    7  A    between atoms: C_20  and  C_21
REMARK    8  A    between atoms: C_21  and  C_22
REMARK    9  A    between atoms: C_21  and  C_23
REMARK   10  A    between atoms: C_21  and  C_24
REMARK                            x       y       z     vdW  Elec       q    Type
REMARK                         _______ _______ _______ _____ _____    ______ ____
ROOT
ATOM      1  C   UNL     1      48.966   7.831  13.386  0.00  0.00    +0.000 A 
ATOM      2  C   UNL     1      50.328   8.082  13.607  0.00  0.00    +0.000 A 
ATOM      3  C   UNL     1      50.987   7.570  14.739  0.00  0.00    +0.000 A 
ATOM      4  C   UNL     1      50.300   6.783  15.668  0.00  0.00    +0.000 A 
ATOM      5  C   UNL     1      48.928   6.583  15.488  0.00  0.00    +0.000 A 
ATOM      6  C   UNL     1      48.267   7.100  14.359  0.00  0.00    +0.000 A 
ENDROOT
BRANCH   4   7
ATOM      7  C   UNL     1      50.998   6.160  16.767  0.00  0.00    +0.000 C 
ATOM      8  C   UNL     1      51.627   5.605  17.764  0.00  0.00    +0.000 C 
BRANCH   8   9
ATOM      9  C   UNL     1      52.359   4.956  18.928  0.00  0.00    +0.000 C 
ATOM     10  C   UNL     1      53.630   5.765  19.245  0.00  0.00    +0.000 C 
ATOM     11  C   UNL     1      51.435   4.993  20.160  0.00  0.00    +0.000 C 
BRANCH   9  12
ATOM     12  C   UNL     1      52.727   3.518  18.522  0.00  0.00    +0.000 A 
ATOM     13  C   UNL     1      51.814   2.724  17.815  0.00  0.00    +0.000 A 
ATOM     14  C   UNL     1      52.121   1.392  17.548  0.00  0.00    +0.000 A 
ATOM     15  C   UNL     1      53.333   0.876  17.981  0.00  0.00    +0.000 A 
ATOM     16  C   UNL     1      54.199   1.724  18.647  0.00  0.00    +0.000 A 
ATOM     17  N   UNL     1      53.926   3.019  18.922  0.00  0.00    +0.000 NA
ENDBRANCH   9  12
ENDBRANCH   8   9
ENDBRANCH   4   7
BRANCH   1  18
ATOM     18  C   UNL     1      48.299   8.262  12.093  0.00  0.00    +0.000 C 
BRANCH  18  21
ATOM     19  C   UNL     1      46.241   6.999  11.491  0.00  0.00    +0.000 C 
ATOM     20  O   UNL     1      45.514   7.815  12.059  0.00  0.00    +0.000 OA
ATOM     21  N   UNL     1      47.601   7.152  11.470  0.00  0.00    +0.000 N 
ATOM     22  H   UNL     1      48.170   6.476  10.983  0.00  0.00    +0.000 HD
BRANCH  19  30
ATOM     23  C   UNL     1      44.542   4.234  12.631  0.00  0.00    +0.000 A 
ATOM     24  N   UNL     1      43.813   3.117  12.806  0.00  0.00    +0.000 NA
ATOM     25  C   UNL     1      43.489   2.404  11.722  0.00  0.00    +0.000 A 
ATOM     26  N   UNL     1      43.827   2.664  10.462  0.00  0.00    +0.000 NA
ATOM     27  C   UNL     1      44.546   3.793  10.333  0.00  0.00    +0.000 A 
ATOM     28  S   UNL     1      45.085   4.278   8.799  0.00  0.00    +0.000 S 
ATOM     29  C   UNL     1      45.823   5.671   9.443  0.00  0.00    +0.000 A 
ATOM     30  C   UNL     1      45.674   5.806  10.819  0.00  0.00    +0.000 A 
ATOM     31  C   UNL     1      44.936   4.660  11.352  0.00  0.00    +0.000 A 
BRANCH  23  33
ATOM     32  C   UNL     1      46.112   4.584  14.326  0.00  0.00    +0.000 C 
ATOM     33  O   UNL     1      44.869   4.974  13.748  0.00  0.00    +0.000 OA
ENDBRANCH  23  33
ENDBRANCH  19  30
ENDBRANCH  18  21
ENDBRANCH   1  18
TORSDOF 7
ENDMDL
MODEL 6
REMARK VINA RESULT:    -6.098      3.384      4.826
REMARK INTER + INTRA:          -9.763
REMARK INTER:                  -8.603
REMARK INTRA:                  -1.161
REMARK UNBOUND:                -1.170
REMARK  Name = 
REMARK  10 active torsions:
REMARK  status: ('A' for Active; 'I' for Inactive)
REMARK    1  A    between atoms: C_1  and  O_2
REMARK    2  A    between atoms: O_2  and  C_3
REMARK    3  A    between atoms: C_10  and  C_11
REMARK    4  A    between atoms: N_13  and  C_14
REMARK    5  A    between atoms: C_14  and  C_15
REMARK    6  A    between atoms: C_18  and  C_19
REMARK    7  A    between atoms: C_20  and  C_21
REMARK    8  A    between atoms: C_21  and  C_22
REMARK    9  A    between atoms: C_21  and  C_23
REMARK   10  A    between atoms: C_21  and  C_24
REMARK                            x       y       z     vdW  Elec       q    Type
REMARK                         _______ _______ _______ _____ _____    ______ ____
ROOT
ATOM      1  C   UNL     1      49.016   5.903  16.104  0.00  0.00    +0.000 A 
ATOM      2  C   UNL     1      48.155   4.822  16.346  0.00  0.00    +0.000 A 
ATOM      3  C   UNL     1      47.146   4.477  15.428  0.00  0.00    +0.000 A 
ATOM      4  C   UNL     1      46.986   5.198  14.242  0.00  0.00    +0.000 A 
ATOM      5  C   UNL     1      47.797   6.317  14.025  0.00  0.00    +0.000 A 
ATOM      6  C   UNL     1      48.803   6.666  14.945  0.00  0.00    +0.000 A 
ENDROOT
BRANCH   4   7
ATOM      7  C   UNL     1      46.030   4.777  13.246  0.00  0.00    +0.000 C 
ATOM      8  C   UNL     1      45.173   4.394  12.341  0.00  0.00    +0.000 C 
BRANCH   8   9
ATOM      9  C   UNL     1      44.174   3.947  11.287  0.00  0.00    +0.000 C 
ATOM     10  C   UNL     1      43.384   2.736  11.816  0.00  0.00    +0.000 C 
ATOM     11  C   UNL     1      43.188   5.103  11.036  0.00  0.00    +0.000 C 
BRANCH   9  12
ATOM     12  C   UNL     1      44.955   3.563  10.017  0.00  0.00    +0.000 A 
ATOM     13  C   UNL     1      45.482   4.556   9.182  0.00  0.00    +0.000 A 
ATOM     14  C   UNL     1      46.093   4.195   7.983  0.00  0.00    +0.000 A 
ATOM     15  C   UNL     1      46.177   2.855   7.642  0.00  0.00    +0.000 A 
ATOM     16  C   UNL     1      45.661   1.926   8.527  0.00  0.00    +0.000 A 
ATOM     17  N   UNL     1      45.060   2.248   9.695  0.00  0.00    +0.000 NA
ENDBRANCH   9  12
ENDBRANCH   8   9
ENDBRANCH   4   7
BRANCH   1  18
ATOM     18  C   UNL     1      50.191   6.178  17.024  0.00  0.00    +0.000 C 
BRANCH  18  21
ATOM     19  C   UNL     1      51.801   7.864  16.154  0.00  0.00    +0.000 C 
ATOM     20  O   UNL     1      51.202   8.791  16.699  0.00  0.00    +0.000 OA
ATOM     21  N   UNL     1      51.366   6.571  16.268  0.00  0.00    +0.000 N 
ATOM     22  H   UNL     1      51.887   5.830  15.824  0.00  0.00    +0.000 HD
BRANCH  19  30
ATOM     23  C   UNL     1      52.306   8.468  12.805  0.00  0.00    +0.000 A 
ATOM     24  N   UNL     1      52.758   8.786  11.580  0.00  0.00    +0.000 NA
ATOM     25  C   UNL     1      54.070   9.003  11.432  0.00  0.00    +0.000 A 
ATOM     26  N   UNL     1      55.006   8.920  12.373  0.00  0.00    +0.000 NA
ATOM     27  C   UNL     1      54.508   8.608  13.583  0.00  0.00    +0.000 A 
ATOM     28  S   UNL     1      55.556   8.438  14.906  0.00  0.00    +0.000 S 
ATOM     29  C   UNL     1      54.259   8.097  15.955  0.00  0.00    +0.000 A 
ATOM     30  C   UNL     1      53.013   8.110  15.337  0.00  0.00    +0.000 A 
ATOM     31  C   UNL     1      53.172   8.385  13.909  0.00  0.00    +0.000 A 
BRANCH  23  33
ATOM     32  C   UNL     1      50.170   8.919  11.972  0.00  0.00    +0.000 C 
ATOM     33  O   UNL     1      50.952   8.252  12.959  0.00  0.00    +0.000 OA
ENDBRANCH  23  33
ENDBRANCH  19  30
ENDBRANCH  18  21
ENDBRANCH   1  18
TORSDOF 7
ENDMDL
MODEL 7
REMARK VINA RESULT:    -6.065      4.208      5.353
REMARK INTER + INTRA:          -9.717
REMARK INTER:                  -8.645
REMARK INTRA:                  -1.073
REMARK UNBOUND:                -1.170
REMARK  Name = 
REMARK  10 active torsions:
REMARK  status: ('A' for Active; 'I' for Inactive)
REMARK    1  A    between atoms: C_1  and  O_2
REMARK    2  A    between atoms: O_2  and  C_3
REMARK    3  A    between atoms: C_10  and  C_11
REMARK    4  A    between atoms: N_13  and  C_14
REMARK    5  A    between atoms: C_14  and  C_15
REMARK    6  A    between atoms: C_18  and  C_19
REMARK    7  A    between atoms: C_20  and  C_21
REMARK    8  A    between atoms: C_21  and  C_22
REMARK    9  A    between atoms: C_21  and  C_23
REMARK   10  A    between atoms: C_21  and  C_24
REMARK                            x       y       z     vdW  Elec       q    Type
REMARK                         _______ _______ _______ _____ _____    ______ ____
ROOT
ATOM      1  C   UNL     1      47.918   8.774  13.087  0.00  0.00    +0.000 A 
ATOM      2  C   UNL     1      48.656   7.979  12.198  0.00  0.00    +0.000 A 
ATOM      3  C   UNL     1      48.055   6.912  11.506  0.00  0.00    +0.000 A 
ATOM      4  C   UNL     1      46.699   6.625  11.679  0.00  0.00    +0.000 A 
ATOM      5  C   UNL     1      45.972   7.371  12.613  0.00  0.00    +0.000 A 
ATOM      6  C   UNL     1      46.574   8.435  13.309  0.00  0.00    +0.000 A 
ENDROOT
BRANCH   4   7
ATOM      7  C   UNL     1      46.052   5.607  10.886  0.00  0.00    +0.000 C 
ATOM      8  C   UNL     1      45.469   4.693  10.163  0.00  0.00    +0.000 C 
BRANCH   8   9
ATOM      9  C   UNL     1      44.790   3.626   9.320  0.00  0.00    +0.000 C 
ATOM     10  C   UNL     1      44.106   2.604  10.246  0.00  0.00    +0.000 C 
ATOM     11  C   UNL     1      43.710   4.307   8.459  0.00  0.00    +0.000 C 
BRANCH   9  12
ATOM     12  C   UNL     1      45.865   2.935   8.462  0.00  0.00    +0.000 A 
ATOM     13  C   UNL     1      46.645   3.678   7.567  0.00  0.00    +0.000 A 
ATOM     14  C   UNL     1      47.538   3.024   6.723  0.00  0.00    +0.000 A 
ATOM     15  C   UNL     1      47.648   1.644   6.791  0.00  0.00    +0.000 A 
ATOM     16  C   UNL     1      46.869   0.976   7.718  0.00  0.00    +0.000 A 
ATOM     17  N   UNL     1      45.992   1.585   8.547  0.00  0.00    +0.000 NA
ENDBRANCH   9  12
ENDBRANCH   8   9
ENDBRANCH   4   7
BRANCH   1  18
ATOM     18  C   UNL     1      48.534  10.010  13.715  0.00  0.00    +0.000 C 
BRANCH  18  21
ATOM     19  C   UNL     1      48.797   9.530  16.143  0.00  0.00    +0.000 C 
ATOM     20  O   UNL     1      49.780   8.815  15.946  0.00  0.00    +0.000 OA
ATOM     21  N   UNL     1      48.142  10.140  15.107  0.00  0.00    +0.000 N 
ATOM     22  H   UNL     1      47.349  10.733  15.300  0.00  0.00    +0.000 HD
BRANCH  19  30
ATOM     23  C   UNL     1      48.115   7.421  18.774  0.00  0.00    +0.000 A 
ATOM     24  N   UNL     1      47.841   6.834  19.952  0.00  0.00    +0.000 NA
ATOM     25  C   UNL     1      47.447   7.613  20.964  0.00  0.00    +0.000 A 
ATOM     26  N   UNL     1      47.272   8.932  20.938  0.00  0.00    +0.000 NA
ATOM     27  C   UNL     1      47.567   9.477  19.745  0.00  0.00    +0.000 A 
ATOM     28  S   UNL     1      47.384  11.148  19.515  0.00  0.00    +0.000 S 
ATOM     29  C   UNL     1      47.932  11.038  17.907  0.00  0.00    +0.000 A 
ATOM     30  C   UNL     1      48.270   9.749  17.511  0.00  0.00    +0.000 A 
ATOM     31  C   UNL     1      48.018   8.813  18.607  0.00  0.00    +0.000 A 
BRANCH  23  33
ATOM     32  C   UNL     1      47.993   5.299  17.802  0.00  0.00    +0.000 C 
ATOM     33  O   UNL     1      48.530   6.618  17.731  0.00  0.00    +0.000 OA
ENDBRANCH  23  33
ENDBRANCH  19  30
ENDBRANCH  18  21
ENDBRANCH   1  18
TORSDOF 7
ENDMDL
MODEL 8
REMARK VINA RESULT:    -5.915      3.116      4.847
REMARK INTER + INTRA:          -9.506
REMARK INTER:                  -8.242
REMARK INTRA:                  -1.264
REMARK UNBOUND:                -1.170
REMARK  Name = 
REMARK  10 active torsions:
REMARK  status: ('A' for Active; 'I' for Inactive)
REMARK    1  A    between atoms: C_1  and  O_2
REMARK    2  A    between atoms: O_2  and  C_3
REMARK    3  A    between atoms: C_10  and  C_11
REMARK    4  A    between atoms: N_13  and  C_14
REMARK    5  A    between atoms: C_14  and  C_15
REMARK    6  A    between atoms: C_18  and  C_19
REMARK    7  A    between atoms: C_20  and  C_21
REMARK    8  A    between atoms: C_21  and  C_22
REMARK    9  A    between atoms: C_21  and  C_23
REMARK   10  A    between atoms: C_21  and  C_24
REMARK                            x       y       z     vdW  Elec       q    Type
REMARK                         _______ _______ _______ _____ _____    ______ ____
ROOT
ATOM      1  C   UNL     1      48.817   5.634  16.103  0.00  0.00    +0.000 A 
ATOM      2  C   UNL     1      47.955   4.547  16.306  0.00  0.00    +0.000 A 
ATOM      3  C   UNL     1      46.952   4.231  15.372  0.00  0.00    +0.000 A 
ATOM      4  C   UNL     1      46.799   4.988  14.207  0.00  0.00    +0.000 A 
ATOM      5  C   UNL     1      47.612   6.112  14.030  0.00  0.00    +0.000 A 
ATOM      6  C   UNL     1      48.611   6.432  14.967  0.00  0.00    +0.000 A 
ENDROOT
BRANCH   4   7
ATOM      7  C   UNL     1      45.850   4.597  13.193  0.00  0.00    +0.000 C 
ATOM      8  C   UNL     1      44.999   4.242  12.271  0.00  0.00    +0.000 C 
BRANCH   8   9
ATOM      9  C   UNL     1      44.006   3.827  11.197  0.00  0.00    +0.000 C 
ATOM     10  C   UNL     1      43.252   2.567  11.661  0.00  0.00    +0.000 C 
ATOM     11  C   UNL     1      42.989   4.968  11.015  0.00  0.00    +0.000 C 
BRANCH   9  12
ATOM     12  C   UNL     1      44.790   3.535   9.905  0.00  0.00    +0.000 A 
ATOM     13  C   UNL     1      45.050   2.215   9.516  0.00  0.00    +0.000 A 
ATOM     14  C   UNL     1      45.850   1.969   8.403  0.00  0.00    +0.000 A 
ATOM     15  C   UNL     1      46.370   3.040   7.693  0.00  0.00    +0.000 A 
ATOM     16  C   UNL     1      46.048   4.317   8.115  0.00  0.00    +0.000 A 
ATOM     17  N   UNL     1      45.277   4.584   9.193  0.00  0.00    +0.000 NA
ENDBRANCH   9  12
ENDBRANCH   8   9
ENDBRANCH   4   7
BRANCH   1  18
ATOM     18  C   UNL     1      49.986   5.881  17.038  0.00  0.00    +0.000 C 
BRANCH  18  21
ATOM     19  C   UNL     1      52.361   6.352  16.465  0.00  0.00    +0.000 C 
ATOM     20  O   UNL     1      52.763   5.392  17.123  0.00  0.00    +0.000 OA
ATOM     21  N   UNL     1      51.028   6.649  16.382  0.00  0.00    +0.000 N 
ATOM     22  H   UNL     1      50.727   7.433  15.822  0.00  0.00    +0.000 HD
BRANCH  19  30
ATOM     23  C   UNL     1      52.515   9.757  16.001  0.00  0.00    +0.000 A 
ATOM     24  N   UNL     1      52.839  11.036  15.739  0.00  0.00    +0.000 NA
ATOM     25  C   UNL     1      53.965  11.270  15.057  0.00  0.00    +0.000 A 
ATOM     26  N   UNL     1      54.815  10.365  14.579  0.00  0.00    +0.000 NA
ATOM     27  C   UNL     1      54.457   9.103  14.873  0.00  0.00    +0.000 A 
ATOM     28  S   UNL     1      55.411   7.809  14.328  0.00  0.00    +0.000 S 
ATOM     29  C   UNL     1      54.383   6.672  15.069  0.00  0.00    +0.000 A 
ATOM     30  C   UNL     1      53.308   7.238  15.746  0.00  0.00    +0.000 A 
ATOM     31  C   UNL     1      53.340   8.694  15.597  0.00  0.00    +0.000 A 
BRANCH  23  33
ATOM     32  C   UNL     1      51.288  10.260  17.925  0.00  0.00    +0.000 C 
ATOM     33  O   UNL     1      51.358   9.516  16.712  0.00  0.00    +0.000 OA
ENDBRANCH  23  33
ENDBRANCH  19  30
ENDBRANCH  18  21
ENDBRANCH   1  18
TORSDOF 7
ENDMDL
MODEL 9
REMARK VINA RESULT:    -5.915      3.568      4.365
REMARK INTER + INTRA:          -9.505
REMARK INTER:                  -7.957
REMARK INTRA:                  -1.549
REMARK UNBOUND:                -1.170
REMARK  Name = 
REMARK  10 active torsions:
REMARK  status: ('A' for Active; 'I' for Inactive)
REMARK    1  A    between atoms: C_1  and  O_2
REMARK    2  A    between atoms: O_2  and  C_3
REMARK    3  A    between atoms: C_10  and  C_11
REMARK    4  A    between atoms: N_13  and  C_14
REMARK    5  A    between atoms: C_14  and  C_15
REMARK    6  A    between atoms: C_18  and  C_19
REMARK    7  A    between atoms: C_20  and  C_21
REMARK    8  A    between atoms: C_21  and  C_22
REMARK    9  A    between atoms: C_21  and  C_23
REMARK   10  A    between atoms: C_21  and  C_24
REMARK                            x       y       z     vdW  Elec       q    Type
REMARK                         _______ _______ _______ _____ _____    ______ ____
ROOT
ATOM      1  C   UNL     1      49.349   9.172  13.221  0.00  0.00    +0.000 A 
ATOM      2  C   UNL     1      49.603   8.381  12.092  0.00  0.00    +0.000 A 
ATOM      3  C   UNL     1      48.694   7.388  11.680  0.00  0.00    +0.000 A 
ATOM      4  C   UNL     1      47.506   7.176  12.384  0.00  0.00    +0.000 A 
ATOM      5  C   UNL     1      47.277   7.915  13.548  0.00  0.00    +0.000 A 
ATOM      6  C   UNL     1      48.188   8.904  13.963  0.00  0.00    +0.000 A 
ENDROOT
BRANCH   4   7
ATOM      7  C   UNL     1      46.520   6.240  11.899  0.00  0.00    +0.000 C 
ATOM      8  C   UNL     1      45.626   5.401  11.456  0.00  0.00    +0.000 C 
BRANCH   8   9
ATOM      9  C   UNL     1      44.585   4.421  10.938  0.00  0.00    +0.000 C 
ATOM     10  C   UNL     1      44.337   3.334  12.000  0.00  0.00    +0.000 C 
ATOM     11  C   UNL     1      43.271   5.191  10.710  0.00  0.00    +0.000 C 
BRANCH   9  12
ATOM     12  C   UNL     1      45.121   3.791   9.641  0.00  0.00    +0.000 A 
ATOM     13  C   UNL     1      45.177   2.398   9.500  0.00  0.00    +0.000 A 
ATOM     14  C   UNL     1      45.762   1.843   8.365  0.00  0.00    +0.000 A 
ATOM     15  C   UNL     1      46.273   2.682   7.387  0.00  0.00    +0.000 A 
ATOM     16  C   UNL     1      46.159   4.047   7.578  0.00  0.00    +0.000 A 
ATOM     17  N   UNL     1      45.598   4.612   8.670  0.00  0.00    +0.000 NA
ENDBRANCH   9  12
ENDBRANCH   8   9
ENDBRANCH   4   7
BRANCH   1  18
ATOM     18  C   UNL     1      50.258  10.335  13.572  0.00  0.00    +0.000 C 
BRANCH  18  21
ATOM     19  C   UNL     1      52.161   9.476  14.925  0.00  0.00    +0.000 C 
ATOM     20  O   UNL     1      52.751   9.065  13.926  0.00  0.00    +0.000 OA
ATOM     21  N   UNL     1      50.947  10.100  14.828  0.00  0.00    +0.000 N 
ATOM     22  H   UNL     1      50.494  10.441  15.663  0.00  0.00    +0.000 HD
BRANCH  19  30
ATOM     23  C   UNL     1      51.003   7.981  17.799  0.00  0.00    +0.000 A 
ATOM     24  N   UNL     1      50.819   7.412  19.003  0.00  0.00    +0.000 NA
ATOM     25  C   UNL     1      51.809   7.502  19.897  0.00  0.00    +0.000 A 
ATOM     26  N   UNL     1      52.977   8.117  19.739  0.00  0.00    +0.000 NA
ATOM     27  C   UNL     1      53.122   8.662  18.518  0.00  0.00    +0.000 A 
ATOM     28  S   UNL     1      54.543   9.509  18.137  0.00  0.00    +0.000 S 
ATOM     29  C   UNL     1      53.991   9.826  16.558  0.00  0.00    +0.000 A 
ATOM     30  C   UNL     1      52.735   9.298  16.281  0.00  0.00    +0.000 A 
ATOM     31  C   UNL     1      52.205   8.630  17.470  0.00  0.00    +0.000 A 
BRANCH  23  33
ATOM     32  C   UNL     1      49.975   6.629  16.194  0.00  0.00    +0.000 C 
ATOM     33  O   UNL     1      49.985   7.882  16.874  0.00  0.00    +0.000 OA
ENDBRANCH  23  33
ENDBRANCH  19  30
ENDBRANCH  18  21
ENDBRANCH   1  18
TORSDOF 7
ENDMDL
