MODEL 1
REMARK VINA RESULT:    -6.522      0.000      0.000
REMARK INTER + INTRA:          -9.618
REMARK INTER:                  -8.810
REMARK INTRA:                  -0.808
REMARK UNBOUND:                -0.808
REMARK  Name = 
REMARK  10 active torsions:
REMARK  status: ('A' for Active; 'I' for Inactive)
REMARK    1  A    between atoms: C_1  and  C_2
REMARK    2  A    between atoms: C_2  and  C_3
REMARK    3  A    between atoms: C_2  and  N_4
REMARK    4  A    between atoms: C_5  and  C_7
REMARK    5  A    between atoms: C_10  and  O_11
REMARK    6  A    between atoms: O_11  and  C_12
REMARK    7  A    between atoms: C_12  and  C_13
REMARK    8  A    between atoms: C_13  and  C_14
REMARK    9  A    between atoms: C_13  and  C_15
REMARK   10  A    between atoms: C_13  and  C_16
REMARK                            x       y       z     vdW  Elec       q    Type
REMARK                         _______ _______ _______ _____ _____    ______ ____
ROOT
ATOM      1  C   UNL     1      48.782   7.187  12.534  0.00  0.00    +0.000 A 
ATOM      2  N   UNL     1      47.794   7.873  11.911  0.00  0.00    +0.000 NA
ATOM      3  C   UNL     1      46.556   7.348  12.045  0.00  0.00    +0.000 A 
ATOM      4  C   UNL     1      46.264   6.199  12.759  0.00  0.00    +0.000 A 
ATOM      5  C   UNL     1      47.358   5.589  13.338  0.00  0.00    +0.000 A 
ATOM      6  N   UNL     1      48.621   6.054  13.246  0.00  0.00    +0.000 NA
ENDROOT
BRANCH   1   8
ATOM      7  N   UNL     1      50.844   7.580  11.261  0.00  0.00    +0.000 N 
ATOM      8  C   UNL     1      50.168   7.787  12.459  0.00  0.00    +0.000 C 
ATOM      9  O   UNL     1      50.651   8.428  13.391  0.00  0.00    +0.000 OA
ATOM     10  H   UNL     1      50.407   6.957  10.589  0.00  0.00    +0.000 HD
BRANCH   7  12
ATOM     11  C   UNL     1      53.071   7.075  10.345  0.00  0.00    +0.000 C 
ATOM     12  C   UNL     1      52.182   8.105  11.035  0.00  0.00    +0.000 C 
ATOM     13  C   UNL     1      52.129   9.394  10.222  0.00  0.00    +0.000 C 
ENDBRANCH   7  12
ENDBRANCH   1   8
BRANCH   4  14
ATOM     14  O   UNL     1      45.043   5.624  12.948  0.00  0.00    +0.000 OA
BRANCH  14  15
ATOM     15  C   UNL     1      44.967   4.225  12.648  0.00  0.00    +0.000 C 
BRANCH  15  16
ATOM     16  C   UNL     1      44.029   3.928  11.440  0.00  0.00    +0.000 C 
ATOM     17  C   UNL     1      43.271   2.612  11.729  0.00  0.00    +0.000 C 
ATOM     18  C   UNL     1      43.002   5.076  11.322  0.00  0.00    +0.000 C 
BRANCH  16  19
ATOM     19  C   UNL     1      44.808   3.803  10.118  0.00  0.00    +0.000 A 
ATOM     20  C   UNL     1      45.017   2.554   9.514  0.00  0.00    +0.000 A 
ATOM     21  C   UNL     1      45.712   2.452   8.310  0.00  0.00    +0.000 A 
ATOM     22  C   UNL     1      46.191   3.611   7.728  0.00  0.00    +0.000 A 
ATOM     23  N   UNL     1      46.020   4.833   8.264  0.00  0.00    +0.000 NA
ATOM     24  C   UNL     1      45.340   4.899   9.433  0.00  0.00    +0.000 A 
ENDBRANCH  16  19
ENDBRANCH  15  16
ENDBRANCH  14  15
ENDBRANCH   4  14
TORSDOF 6
ENDMDL
MODEL 2
REMARK VINA RESULT:    -6.403      3.135      4.519
REMARK INTER + INTRA:          -9.457
REMARK INTER:                  -8.861
REMARK INTRA:                  -0.596
REMARK UNBOUND:                -0.808
REMARK  Name = 
REMARK  10 active torsions:
REMARK  status: ('A' for Active; 'I' for Inactive)
REMARK    1  A    between atoms: C_1  and  C_2
REMARK    2  A    between atoms: C_2  and  C_3
REMARK    3  A    between atoms: C_2  and  N_4
REMARK    4  A    between atoms: C_5  and  C_7
REMARK    5  A    between atoms: C_10  and  O_11
REMARK    6  A    between atoms: O_11  and  C_12
REMARK    7  A    between atoms: C_12  and  C_13
REMARK    8  A    between atoms: C_13  and  C_14
REMARK    9  A    between atoms: C_13  and  C_15
REMARK   10  A    between atoms: C_13  and  C_16
REMARK                            x       y       z     vdW  Elec       q    Type
REMARK                         _______ _______ _______ _____ _____    ______ ____
ROOT
ATOM      1  C   UNL     1      48.306   5.390  15.627  0.00  0.00    +0.000 A 
ATOM      2  N   UNL     1      48.489   6.359  14.699  0.00  0.00    +0.000 NA
ATOM      3  C   UNL     1      47.726   6.246  13.589  0.00  0.00    +0.000 A 
ATOM      4  C   UNL     1      46.807   5.236  13.369  0.00  0.00    +0.000 A 
ATOM      5  C   UNL     1      46.722   4.305  14.384  0.00  0.00    +0.000 A 
ATOM      6  N   UNL     1      47.452   4.353  15.518  0.00  0.00    +0.000 NA
ENDROOT
BRANCH   1   8
ATOM      7  N   UNL     1      48.415   6.119  17.968  0.00  0.00    +0.000 N 
ATOM      8  C   UNL     1      49.095   5.527  16.909  0.00  0.00    +0.000 C 
ATOM      9  O   UNL     1      50.253   5.124  17.007  0.00  0.00    +0.000 OA
ATOM     10  H   UNL     1      47.499   6.508  17.765  0.00  0.00    +0.000 HD
BRANCH   7  12
ATOM     11  C   UNL     1      48.921   7.760  19.730  0.00  0.00    +0.000 C 
ATOM     12  C   UNL     1      49.038   6.311  19.268  0.00  0.00    +0.000 C 
ATOM     13  C   UNL     1      48.432   5.370  20.305  0.00  0.00    +0.000 C 
ENDBRANCH   7  12
ENDBRANCH   1   8
BRANCH   4  14
ATOM     14  O   UNL     1      45.998   5.068  12.285  0.00  0.00    +0.000 OA
BRANCH  14  15
ATOM     15  C   UNL     1      45.286   3.826  12.233  0.00  0.00    +0.000 C 
BRANCH  15  16
ATOM     16  C   UNL     1      44.297   3.759  11.031  0.00  0.00    +0.000 C 
ATOM     17  C   UNL     1      43.277   2.631  11.308  0.00  0.00    +0.000 C 
ATOM     18  C   UNL     1      43.539   5.103  10.944  0.00  0.00    +0.000 C 
BRANCH  16  19
ATOM     19  C   UNL     1      45.019   3.494   9.698  0.00  0.00    +0.000 A 
ATOM     20  C   UNL     1      45.271   2.187   9.256  0.00  0.00    +0.000 A 
ATOM     21  C   UNL     1      45.915   1.957   8.041  0.00  0.00    +0.000 A 
ATOM     22  C   UNL     1      46.299   3.048   7.285  0.00  0.00    +0.000 A 
ATOM     23  N   UNL     1      46.084   4.322   7.662  0.00  0.00    +0.000 NA
ATOM     24  C   UNL     1      45.456   4.512   8.845  0.00  0.00    +0.000 A 
ENDBRANCH  16  19
ENDBRANCH  15  16
ENDBRANCH  14  15
ENDBRANCH   4  14
TORSDOF 6
ENDMDL
MODEL 3
REMARK VINA RESULT:    -6.315      3.225      4.943
REMARK INTER + INTRA:          -9.338
REMARK INTER:                  -8.900
REMARK INTRA:                  -0.437
REMARK UNBOUND:                -0.808
REMARK  Name = 
REMARK  10 active torsions:
REMARK  status: ('A' for Active; 'I' for Inactive)
REMARK    1  A    between atoms: C_1  and  C_2
REMARK    2  A    between atoms: C_2  and  C_3
REMARK    3  A    between atoms: C_2  and  N_4
REMARK    4  A    between atoms: C_5  and  C_7
REMARK    5  A    between atoms: C_10  and  O_11
REMARK    6  A    between atoms: O_11  and  C_12
REMARK    7  A    between atoms: C_12  and  C_13
REMARK    8  A    between atoms: C_13  and  C_14
REMARK    9  A    between atoms: C_13  and  C_15
REMARK   10  A    between atoms: C_13  and  C_16
REMARK                            x       y       z     vdW  Elec       q    Type
REMARK                         _______ _______ _______ _____ _____    ______ ____
ROOT
ATOM      1  C   UNL     1      46.839   5.303  13.891  0.00  0.00    +0.000 A 
ATOM      2  N   UNL     1      45.845   4.388  13.799  0.00  0.00    +0.000 NA
ATOM      3  C   UNL     1      45.206   4.348  12.609  0.00  0.00    +0.000 A 
ATOM      4  C   UNL     1      45.508   5.158  11.529  0.00  0.00    +0.000 A 
ATOM      5  C   UNL     1      46.534   6.055  11.753  0.00  0.00    +0.000 A 
ATOM      6  N   UNL     1      47.215   6.152  12.913  0.00  0.00    +0.000 NA
ENDROOT
BRANCH   1   8
ATOM      7  N   UNL     1      47.139   4.483  16.184  0.00  0.00    +0.000 N 
ATOM      8  C   UNL     1      47.618   5.325  15.186  0.00  0.00    +0.000 C 
ATOM      9  O   UNL     1      48.617   6.027  15.334  0.00  0.00    +0.000 OA
ATOM     10  H   UNL     1      46.254   4.017  16.007  0.00  0.00    +0.000 HD
BRANCH   7  12
ATOM     11  C   UNL     1      47.229   5.415  18.460  0.00  0.00    +0.000 C 
ATOM     12  C   UNL     1      47.788   4.386  17.483  0.00  0.00    +0.000 C 
ATOM     13  C   UNL     1      47.651   2.978  18.054  0.00  0.00    +0.000 C 
ENDBRANCH   7  12
ENDBRANCH   1   8
BRANCH   4  14
ATOM     14  O   UNL     1      44.918   5.163  10.301  0.00  0.00    +0.000 OA
BRANCH  14  15
ATOM     15  C   UNL     1      45.752   4.741   9.214  0.00  0.00    +0.000 C 
BRANCH  15  16
ATOM     16  C   UNL     1      45.229   3.441   8.535  0.00  0.00    +0.000 C 
ATOM     17  C   UNL     1      45.016   2.374   9.633  0.00  0.00    +0.000 C 
ATOM     18  C   UNL     1      43.867   3.748   7.871  0.00  0.00    +0.000 C 
BRANCH  16  19
ATOM     19  C   UNL     1      46.206   2.909   7.471  0.00  0.00    +0.000 A 
ATOM     20  C   UNL     1      46.396   3.586   6.256  0.00  0.00    +0.000 A 
ATOM     21  C   UNL     1      47.293   3.104   5.304  0.00  0.00    +0.000 A 
ATOM     22  C   UNL     1      47.987   1.942   5.585  0.00  0.00    +0.000 A 
ATOM     23  N   UNL     1      47.841   1.252   6.731  0.00  0.00    +0.000 NA
ATOM     24  C   UNL     1      46.965   1.747   7.636  0.00  0.00    +0.000 A 
ENDBRANCH  16  19
ENDBRANCH  15  16
ENDBRANCH  14  15
ENDBRANCH   4  14
TORSDOF 6
ENDMDL
MODEL 4
REMARK VINA RESULT:    -6.251      3.418      4.496
REMARK INTER + INTRA:          -9.252
REMARK INTER:                  -8.749
REMARK INTRA:                  -0.503
REMARK UNBOUND:                -0.808
REMARK  Name = 
REMARK  10 active torsions:
REMARK  status: ('A' for Active; 'I' for Inactive)
REMARK    1  A    between atoms: C_1  and  C_2
REMARK    2  A    between atoms: C_2  and  C_3
REMARK    3  A    between atoms: C_2  and  N_4
REMARK    4  A    between atoms: C_5  and  C_7
REMARK    5  A    between atoms: C_10  and  O_11
REMARK    6  A    between atoms: O_11  and  C_12
REMARK    7  A    between atoms: C_12  and  C_13
REMARK    8  A    between atoms: C_13  and  C_14
REMARK    9  A    between atoms: C_13  and  C_15
REMARK   10  A    between atoms: C_13  and  C_16
REMARK                            x       y       z     vdW  Elec       q    Type
REMARK                         _______ _______ _______ _____ _____    ______ ____
ROOT
ATOM      1  C   UNL     1      48.171   4.324  15.927  0.00  0.00    +0.000 A 
ATOM      2  N   UNL     1      48.223   5.602  15.481  0.00  0.00    +0.000 NA
ATOM      3  C   UNL     1      47.597   5.828  14.304  0.00  0.00    +0.000 A 
ATOM      4  C   UNL     1      46.933   4.861  13.571  0.00  0.00    +0.000 A 
ATOM      5  C   UNL     1      46.960   3.599  14.128  0.00  0.00    +0.000 A 
ATOM      6  N   UNL     1      47.565   3.299  15.296  0.00  0.00    +0.000 NA
ENDROOT
BRANCH   1   8
ATOM      7  N   UNL     1      50.053   4.630  17.471  0.00  0.00    +0.000 N 
ATOM      8  C   UNL     1      48.803   4.055  17.273  0.00  0.00    +0.000 C 
ATOM      9  O   UNL     1      48.236   3.387  18.136  0.00  0.00    +0.000 OA
ATOM     10  H   UNL     1      50.484   5.080  16.669  0.00  0.00    +0.000 HD
BRANCH   7  12
ATOM     11  C   UNL     1      52.100   3.730  18.500  0.00  0.00    +0.000 C 
ATOM     12  C   UNL     1      50.783   4.469  18.719  0.00  0.00    +0.000 C 
ATOM     13  C   UNL     1      51.033   5.820  19.381  0.00  0.00    +0.000 C 
ENDBRANCH   7  12
ENDBRANCH   1   8
BRANCH   4  14
ATOM     14  O   UNL     1      46.270   5.020  12.391  0.00  0.00    +0.000 OA
BRANCH  14  15
ATOM     15  C   UNL     1      44.893   5.400  12.503  0.00  0.00    +0.000 C 
BRANCH  15  16
ATOM     16  C   UNL     1      43.959   4.508  11.631  0.00  0.00    +0.000 C 
ATOM     17  C   UNL     1      43.576   3.259  12.457  0.00  0.00    +0.000 C 
ATOM     18  C   UNL     1      42.675   5.306  11.314  0.00  0.00    +0.000 C 
BRANCH  16  19
ATOM     19  C   UNL     1      44.630   4.078  10.314  0.00  0.00    +0.000 A 
ATOM     20  C   UNL     1      44.625   2.737   9.900  0.00  0.00    +0.000 A 
ATOM     21  C   UNL     1      45.224   2.360   8.700  0.00  0.00    +0.000 A 
ATOM     22  C   UNL     1      45.823   3.338   7.929  0.00  0.00    +0.000 A 
ATOM     23  N   UNL     1      45.858   4.637   8.279  0.00  0.00    +0.000 NA
ATOM     24  C   UNL     1      45.267   4.972   9.449  0.00  0.00    +0.000 A 
ENDBRANCH  16  19
ENDBRANCH  15  16
ENDBRANCH  14  15
ENDBRANCH   4  14
TORSDOF 6
ENDMDL
MODEL 5
REMARK VINA RESULT:    -6.065      1.947      2.628
REMARK INTER + INTRA:          -9.000
REMARK INTER:                  -8.337
REMARK INTRA:                  -0.663
REMARK UNBOUND:                -0.808
REMARK  Name = 
REMARK  10 active torsions:
REMARK  status: ('A' for Active; 'I' for Inactive)
REMARK    1  A    between atoms: C_1  and  C_2
REMARK    2  A    between atoms: C_2  and  C_3
REMARK    3  A    between atoms: C_2  and  N_4
REMARK    4  A    between atoms: C_5  and  C_7
REMARK    5  A    between atoms: C_10  and  O_11
REMARK    6  A    between atoms: O_11  and  C_12
REMARK    7  A    between atoms: C_12  and  C_13
REMARK    8  A    between atoms: C_13  and  C_14
REMARK    9  A    between atoms: C_13  and  C_15
REMARK   10  A    between atoms: C_13  and  C_16
REMARK                            x       y       z     vdW  Elec       q    Type
REMARK                         _______ _______ _______ _____ _____    ______ ____
ROOT
ATOM      1  C   UNL     1      48.873   7.125  13.666  0.00  0.00    +0.000 A 
ATOM      2  N   UNL     1      48.285   7.911  12.733  0.00  0.00    +0.000 NA
ATOM      3  C   UNL     1      47.079   7.484  12.296  0.00  0.00    +0.000 A 
ATOM      4  C   UNL     1      46.446   6.336  12.739  0.00  0.00    +0.000 A 
ATOM      5  C   UNL     1      47.153   5.618  13.682  0.00  0.00    +0.000 A 
ATOM      6  N   UNL     1      48.359   5.982  14.163  0.00  0.00    +0.000 NA
ENDROOT
BRANCH   1   8
ATOM      7  N   UNL     1      50.436   7.277  15.552  0.00  0.00    +0.000 N 
ATOM      8  C   UNL     1      50.190   7.612  14.224  0.00  0.00    +0.000 C 
ATOM      9  O   UNL     1      50.992   8.246  13.541  0.00  0.00    +0.000 OA
ATOM     10  H   UNL     1      49.676   6.840  16.063  0.00  0.00    +0.000 HD
BRANCH   7  12
ATOM     11  C   UNL     1      51.378   8.248  17.607  0.00  0.00    +0.000 C 
ATOM     12  C   UNL     1      51.665   7.667  16.226  0.00  0.00    +0.000 C 
ATOM     13  C   UNL     1      52.624   6.486  16.333  0.00  0.00    +0.000 C 
ENDBRANCH   7  12
ENDBRANCH   1   8
BRANCH   4  14
ATOM     14  O   UNL     1      45.230   5.855  12.355  0.00  0.00    +0.000 OA
BRANCH  14  15
ATOM     15  C   UNL     1      45.131   4.428  12.268  0.00  0.00    +0.000 C 
BRANCH  15  16
ATOM     16  C   UNL     1      44.156   3.968  11.143  0.00  0.00    +0.000 C 
ATOM     17  C   UNL     1      43.383   2.730  11.651  0.00  0.00    +0.000 C 
ATOM     18  C   UNL     1      43.147   5.107  10.873  0.00  0.00    +0.000 C 
BRANCH  16  19
ATOM     19  C   UNL     1      44.896   3.624   9.839  0.00  0.00    +0.000 A 
ATOM     20  C   UNL     1      45.139   2.291   9.472  0.00  0.00    +0.000 A 
ATOM     21  C   UNL     1      45.799   1.989   8.282  0.00  0.00    +0.000 A 
ATOM     22  C   UNL     1      46.209   3.033   7.475  0.00  0.00    +0.000 A 
ATOM     23  N   UNL     1      46.004   4.328   7.779  0.00  0.00    +0.000 NA
ATOM     24  C   UNL     1      45.360   4.589   8.940  0.00  0.00    +0.000 A 
ENDBRANCH  16  19
ENDBRANCH  15  16
ENDBRANCH  14  15
ENDBRANCH   4  14
TORSDOF 6
ENDMDL
MODEL 6
REMARK VINA RESULT:    -5.882      4.864      8.528
REMARK INTER + INTRA:          -8.753
REMARK INTER:                  -8.040
REMARK INTRA:                  -0.714
REMARK UNBOUND:                -0.808
REMARK  Name = 
REMARK  10 active torsions:
REMARK  status: ('A' for Active; 'I' for Inactive)
REMARK    1  A    between atoms: C_1  and  C_2
REMARK    2  A    between atoms: C_2  and  C_3
REMARK    3  A    between atoms: C_2  and  N_4
REMARK    4  A    between atoms: C_5  and  C_7
REMARK    5  A    between atoms: C_10  and  O_11
REMARK    6  A    between atoms: O_11  and  C_12
REMARK    7  A    between atoms: C_12  and  C_13
REMARK    8  A    between atoms: C_13  and  C_14
REMARK    9  A    between atoms: C_13  and  C_15
REMARK   10  A    between atoms: C_13  and  C_16
REMARK                            x       y       z     vdW  Elec       q    Type
REMARK                         _______ _______ _______ _____ _____    ______ ____
ROOT
ATOM      1  C   UNL     1      46.770   4.616  14.180  0.00  0.00    +0.000 A 
ATOM      2  N   UNL     1      46.794   3.968  15.369  0.00  0.00    +0.000 NA
ATOM      3  C   UNL     1      47.634   4.489  16.291  0.00  0.00    +0.000 A 
ATOM      4  C   UNL     1      48.429   5.602  16.088  0.00  0.00    +0.000 A 
ATOM      5  C   UNL     1      48.320   6.165  14.833  0.00  0.00    +0.000 A 
ATOM      6  N   UNL     1      47.506   5.700  13.863  0.00  0.00    +0.000 NA
ENDROOT
BRANCH   1   8
ATOM      7  N   UNL     1      44.949   5.055  12.593  0.00  0.00    +0.000 N 
ATOM      8  C   UNL     1      45.790   4.098  13.151  0.00  0.00    +0.000 C 
ATOM      9  O   UNL     1      45.757   2.914  12.822  0.00  0.00    +0.000 OA
ATOM     10  H   UNL     1      44.982   5.986  12.997  0.00  0.00    +0.000 HD
BRANCH   7  12
ATOM     11  C   UNL     1      42.701   5.561  11.730  0.00  0.00    +0.000 C 
ATOM     12  C   UNL     1      43.960   4.713  11.583  0.00  0.00    +0.000 C 
ATOM     13  C   UNL     1      44.542   4.861  10.181  0.00  0.00    +0.000 C 
ENDBRANCH   7  12
ENDBRANCH   1   8
BRANCH   4  14
ATOM     14  O   UNL     1      49.283   6.188  16.974  0.00  0.00    +0.000 OA
BRANCH  14  15
ATOM     15  C   UNL     1      49.682   5.369  18.080  0.00  0.00    +0.000 C 
BRANCH  15  16
ATOM     16  C   UNL     1      51.218   5.110  18.104  0.00  0.00    +0.000 C 
ATOM     17  C   UNL     1      51.870   5.973  17.000  0.00  0.00    +0.000 C 
ATOM     18  C   UNL     1      51.770   5.560  19.476  0.00  0.00    +0.000 C 
BRANCH  16  19
ATOM     19  C   UNL     1      51.560   3.627  17.880  0.00  0.00    +0.000 A 
ATOM     20  C   UNL     1      52.835   3.122  18.178  0.00  0.00    +0.000 A 
ATOM     21  C   UNL     1      53.131   1.774  17.984  0.00  0.00    +0.000 A 
ATOM     22  C   UNL     1      52.140   0.948  17.489  0.00  0.00    +0.000 A 
ATOM     23  N   UNL     1      50.902   1.379  17.185  0.00  0.00    +0.000 NA
ATOM     24  C   UNL     1      50.644   2.693  17.386  0.00  0.00    +0.000 A 
ENDBRANCH  16  19
ENDBRANCH  15  16
ENDBRANCH  14  15
ENDBRANCH   4  14
TORSDOF 6
ENDMDL
MODEL 7
REMARK VINA RESULT:    -5.381      3.261      7.319
REMARK INTER + INTRA:          -8.077
REMARK INTER:                  -7.293
REMARK INTRA:                  -0.783
REMARK UNBOUND:                -0.808
REMARK  Name = 
REMARK  10 active torsions:
REMARK  status: ('A' for Active; 'I' for Inactive)
REMARK    1  A    between atoms: C_1  and  C_2
REMARK    2  A    between atoms: C_2  and  C_3
REMARK    3  A    between atoms: C_2  and  N_4
REMARK    4  A    between atoms: C_5  and  C_7
REMARK    5  A    between atoms: C_10  and  O_11
REMARK    6  A    between atoms: O_11  and  C_12
REMARK    7  A    between atoms: C_12  and  C_13
REMARK    8  A    between atoms: C_13  and  C_14
REMARK    9  A    between atoms: C_13  and  C_15
REMARK   10  A    between atoms: C_13  and  C_16
REMARK                            x       y       z     vdW  Elec       q    Type
REMARK                         _______ _______ _______ _____ _____    ______ ____
ROOT
ATOM      1  C   UNL     1      45.765   6.302  12.189  0.00  0.00    +0.000 A 
ATOM      2  N   UNL     1      45.631   7.630  12.417  0.00  0.00    +0.000 NA
ATOM      3  C   UNL     1      46.531   8.162  13.273  0.00  0.00    +0.000 A 
ATOM      4  C   UNL     1      47.539   7.446  13.895  0.00  0.00    +0.000 A 
ATOM      5  C   UNL     1      47.563   6.101  13.586  0.00  0.00    +0.000 A 
ATOM      6  N   UNL     1      46.697   5.502  12.743  0.00  0.00    +0.000 NA
ENDROOT
BRANCH   1   8
ATOM      7  N   UNL     1      45.367   4.723  10.352  0.00  0.00    +0.000 N 
ATOM      8  C   UNL     1      44.815   5.693  11.183  0.00  0.00    +0.000 C 
ATOM      9  O   UNL     1      43.632   6.023  11.121  0.00  0.00    +0.000 OA
ATOM     10  H   UNL     1      46.372   4.588  10.409  0.00  0.00    +0.000 HD
BRANCH   7  12
ATOM     11  C   UNL     1      45.323   3.962   8.012  0.00  0.00    +0.000 C 
ATOM     12  C   UNL     1      44.576   4.039   9.340  0.00  0.00    +0.000 C 
ATOM     13  C   UNL     1      44.181   2.644   9.812  0.00  0.00    +0.000 C 
ENDBRANCH   7  12
ENDBRANCH   1   8
BRANCH   4  14
ATOM     14  O   UNL     1      48.487   7.917  14.754  0.00  0.00    +0.000 OA
BRANCH  14  15
ATOM     15  C   UNL     1      49.503   6.978  15.127  0.00  0.00    +0.000 C 
BRANCH  15  16
ATOM     16  C   UNL     1      49.536   6.719  16.663  0.00  0.00    +0.000 C 
ATOM     17  C   UNL     1      51.006   6.789  17.133  0.00  0.00    +0.000 C 
ATOM     18  C   UNL     1      48.736   7.840  17.367  0.00  0.00    +0.000 C 
BRANCH  16  19
ATOM     19  C   UNL     1      48.932   5.353  17.035  0.00  0.00    +0.000 A 
ATOM     20  C   UNL     1      49.750   4.270  17.391  0.00  0.00    +0.000 A 
ATOM     21  C   UNL     1      49.194   3.041  17.738  0.00  0.00    +0.000 A 
ATOM     22  C   UNL     1      47.818   2.915  17.722  0.00  0.00    +0.000 A 
ATOM     23  N   UNL     1      46.987   3.919  17.388  0.00  0.00    +0.000 NA
ATOM     24  C   UNL     1      47.557   5.101  17.056  0.00  0.00    +0.000 A 
ENDBRANCH  16  19
ENDBRANCH  15  16
ENDBRANCH  14  15
ENDBRANCH   4  14
TORSDOF 6
ENDMDL
MODEL 8
REMARK VINA RESULT:    -5.199      5.776      9.396
REMARK INTER + INTRA:          -7.830
REMARK INTER:                  -7.252
REMARK INTRA:                  -0.578
REMARK UNBOUND:                -0.808
REMARK  Name = 
REMARK  10 active torsions:
REMARK  status: ('A' for Active; 'I' for Inactive)
REMARK    1  A    between atoms: C_1  and  C_2
REMARK    2  A    between atoms: C_2  and  C_3
REMARK    3  A    between atoms: C_2  and  N_4
REMARK    4  A    between atoms: C_5  and  C_7
REMARK    5  A    between atoms: C_10  and  O_11
REMARK    6  A    between atoms: O_11  and  C_12
REMARK    7  A    between atoms: C_12  and  C_13
REMARK    8  A    between atoms: C_13  and  C_14
REMARK    9  A    between atoms: C_13  and  C_15
REMARK   10  A    between atoms: C_13  and  C_16
REMARK                            x       y       z     vdW  Elec       q    Type
REMARK                         _______ _______ _______ _____ _____    ______ ____
ROOT
ATOM      1  C   UNL     1      47.116   4.819  14.782  0.00  0.00    +0.000 A 
ATOM      2  N   UNL     1      46.832   3.807  15.636  0.00  0.00    +0.000 NA
ATOM      3  C   UNL     1      47.573   3.781  16.766  0.00  0.00    +0.000 A 
ATOM      4  C   UNL     1      48.560   4.699  17.077  0.00  0.00    +0.000 A 
ATOM      5  C   UNL     1      48.760   5.675  16.122  0.00  0.00    +0.000 A 
ATOM      6  N   UNL     1      48.060   5.763  14.972  0.00  0.00    +0.000 NA
ENDROOT
BRANCH   1   8
ATOM      7  N   UNL     1      45.070   4.192  13.581  0.00  0.00    +0.000 N 
ATOM      8  C   UNL     1      46.257   4.915  13.542  0.00  0.00    +0.000 C 
ATOM      9  O   UNL     1      46.583   5.603  12.575  0.00  0.00    +0.000 OA
ATOM     10  H   UNL     1      44.932   3.577  14.378  0.00  0.00    +0.000 HD
BRANCH   7  12
ATOM     11  C   UNL     1      43.612   2.788  12.180  0.00  0.00    +0.000 C 
ATOM     12  C   UNL     1      44.133   4.193  12.468  0.00  0.00    +0.000 C 
ATOM     13  C   UNL     1      42.974   5.147  12.734  0.00  0.00    +0.000 C 
ENDBRANCH   7  12
ENDBRANCH   1   8
BRANCH   4  14
ATOM     14  O   UNL     1      49.333   4.742  18.199  0.00  0.00    +0.000 OA
BRANCH  14  15
ATOM     15  C   UNL     1      50.581   5.432  18.062  0.00  0.00    +0.000 C 
BRANCH  15  16
ATOM     16  C   UNL     1      51.529   5.192  19.275  0.00  0.00    +0.000 C 
ATOM     17  C   UNL     1      52.429   6.438  19.440  0.00  0.00    +0.000 C 
ATOM     18  C   UNL     1      50.666   5.032  20.547  0.00  0.00    +0.000 C 
BRANCH  16  19
ATOM     19  C   UNL     1      52.401   3.937  19.091  0.00  0.00    +0.000 A 
ATOM     20  C   UNL     1      52.289   3.137  17.944  0.00  0.00    +0.000 A 
ATOM     21  C   UNL     1      53.092   2.010  17.780  0.00  0.00    +0.000 A 
ATOM     22  C   UNL     1      54.000   1.700  18.774  0.00  0.00    +0.000 A 
ATOM     23  N   UNL     1      54.148   2.432  19.895  0.00  0.00    +0.000 NA
ATOM     24  C   UNL     1      53.355   3.520  20.024  0.00  0.00    +0.000 A 
ENDBRANCH  16  19
ENDBRANCH  15  16
ENDBRANCH  14  15
ENDBRANCH   4  14
TORSDOF 6
ENDMDL
MODEL 9
REMARK VINA RESULT:    -5.127      3.127      3.540
REMARK INTER + INTRA:          -7.733
REMARK INTER:                  -7.139
REMARK INTRA:                  -0.594
REMARK UNBOUND:                -0.808
REMARK  Name = 
REMARK  10 active torsions:
REMARK  status: ('A' for Active; 'I' for Inactive)
REMARK    1  A    between atoms: C_1  and  C_2
REMARK    2  A    between atoms: C_2  and  C_3
REMARK    3  A    between atoms: C_2  and  N_4
REMARK    4  A    between atoms: C_5  and  C_7
REMARK    5  A    between atoms: C_10  and  O_11
REMARK    6  A    between atoms: O_11  and  C_12
REMARK    7  A    between atoms: C_12  and  C_13
REMARK    8  A    between atoms: C_13  and  C_14
REMARK    9  A    between atoms: C_13  and  C_15
REMARK   10  A    between atoms: C_13  and  C_16
REMARK                            x       y       z     vdW  Elec       q    Type
REMARK                         _______ _______ _______ _____ _____    ______ ____
ROOT
ATOM      1  C   UNL     1      49.738   6.373  15.688  0.00  0.00    +0.000 A 
ATOM      2  N   UNL     1      49.962   7.159  14.608  0.00  0.00    +0.000 NA
ATOM      3  C   UNL     1      48.973   7.168  13.687  0.00  0.00    +0.000 A 
ATOM      4  C   UNL     1      47.797   6.448  13.792  0.00  0.00    +0.000 A 
ATOM      5  C   UNL     1      47.694   5.679  14.933  0.00  0.00    +0.000 A 
ATOM      6  N   UNL     1      48.639   5.619  15.894  0.00  0.00    +0.000 NA
ENDROOT
BRANCH   1   8
ATOM      7  N   UNL     1      52.101   6.563  16.322  0.00  0.00    +0.000 N 
ATOM      8  C   UNL     1      50.795   6.396  16.768  0.00  0.00    +0.000 C 
ATOM      9  O   UNL     1      50.510   6.291  17.960  0.00  0.00    +0.000 OA
ATOM     10  H   UNL     1      52.250   6.542  15.318  0.00  0.00    +0.000 HD
BRANCH   7  12
ATOM     11  C   UNL     1      54.220   5.491  16.968  0.00  0.00    +0.000 C 
ATOM     12  C   UNL     1      53.226   6.616  17.243  0.00  0.00    +0.000 C 
ATOM     13  C   UNL     1      53.922   7.971  17.174  0.00  0.00    +0.000 C 
ENDBRANCH   7  12
ENDBRANCH   1   8
BRANCH   4  14
ATOM     14  O   UNL     1      46.756   6.421  12.912  0.00  0.00    +0.000 OA
BRANCH  14  15
ATOM     15  C   UNL     1      46.086   5.160  12.788  0.00  0.00    +0.000 C 
BRANCH  15  16
ATOM     16  C   UNL     1      44.789   5.260  11.932  0.00  0.00    +0.000 C 
ATOM     17  C   UNL     1      43.632   4.620  12.732  0.00  0.00    +0.000 C 
ATOM     18  C   UNL     1      44.466   6.754  11.702  0.00  0.00    +0.000 C 
BRANCH  16  19
ATOM     19  C   UNL     1      44.935   4.555  10.571  0.00  0.00    +0.000 A 
ATOM     20  C   UNL     1      44.407   3.273  10.356  0.00  0.00    +0.000 A 
ATOM     21  C   UNL     1      44.534   2.648   9.117  0.00  0.00    +0.000 A 
ATOM     22  C   UNL     1      45.192   3.322   8.106  0.00  0.00    +0.000 A 
ATOM     23  N   UNL     1      45.719   4.552   8.258  0.00  0.00    +0.000 NA
ATOM     24  C   UNL     1      45.579   5.132   9.472  0.00  0.00    +0.000 A 
ENDBRANCH  16  19
ENDBRANCH  15  16
ENDBRANCH  14  15
ENDBRANCH   4  14
TORSDOF 6
ENDMDL
