MODEL 1
REMARK VINA RESULT:    -8.511      0.000      0.000
REMARK INTER + INTRA:         -12.756
REMARK INTER:                 -11.994
REMARK INTRA:                  -0.762
REMARK UNBOUND:                -0.762
REMARK  Name = 
REMARK  7 active torsions:
REMARK  status: ('A' for Active; 'I' for Inactive)
REMARK    1  A    between atoms: C_2  and  C_4
REMARK    2  A    between atoms: C_7  and  N_8
REMARK    3  A    between atoms: N_8  and  C_9
REMARK    4  A    between atoms: C_9  and  C_10
REMARK    5  A    between atoms: C_10  and  C_11
REMARK    6  A    between atoms: C_15  and  O_16
REMARK    7  A    between atoms: O_16  and  C_17
REMARK                            x       y       z     vdW  Elec       q    Type
REMARK                         _______ _______ _______ _____ _____    ______ ____
ROOT
ATOM      1  C   UNL     1      43.214   4.280  11.304  0.00  0.00    +0.000 C 
ENDROOT
BRANCH   1   2
ATOM      2  N   UNL     1      43.713   4.761  10.015  0.00  0.00    +0.000 N 
ATOM      3  H   UNL     1      43.020   5.232   9.436  0.00  0.00    +0.000 HD
BRANCH   2   7
ATOM      4  C   UNL     1      46.332   2.290   7.795  0.00  0.00    +0.000 A 
ATOM      5  C   UNL     1      45.448   1.712   8.706  0.00  0.00    +0.000 A 
ATOM      6  C   UNL     1      44.570   2.522   9.433  0.00  0.00    +0.000 A 
ATOM      7  C   UNL     1      44.532   3.913   9.256  0.00  0.00    +0.000 A 
ATOM      8  C   UNL     1      45.447   4.476   8.356  0.00  0.00    +0.000 A 
ATOM      9  C   UNL     1      46.345   3.676   7.634  0.00  0.00    +0.000 A 
BRANCH   4  11
ATOM     10  N   UNL     1      48.417   2.067   6.556  0.00  0.00    +0.000 N 
ATOM     11  C   UNL     1      47.286   1.455   7.021  0.00  0.00    +0.000 C 
ATOM     12  O   UNL     1      47.088   0.262   6.827  0.00  0.00    +0.000 OA
ATOM     13  H   UNL     1      49.104   1.471   6.111  0.00  0.00    +0.000 HD
ATOM     14  H   UNL     1      48.724   2.966   6.897  0.00  0.00    +0.000 HD
ENDBRANCH   4  11
ENDBRANCH   2   7
ENDBRANCH   1   2
BRANCH   1  15
ATOM     15  C   UNL     1      43.368   5.328  12.406  0.00  0.00    +0.000 C 
BRANCH  15  16
ATOM     16  C   UNL     1      44.828   5.557  12.731  0.00  0.00    +0.000 A 
ATOM     17  C   UNL     1      45.517   6.646  12.183  0.00  0.00    +0.000 A 
ATOM     18  C   UNL     1      46.869   6.846  12.474  0.00  0.00    +0.000 A 
ATOM     19  C   UNL     1      47.552   5.954  13.304  0.00  0.00    +0.000 A 
ATOM     20  C   UNL     1      46.885   4.851  13.830  0.00  0.00    +0.000 A 
ATOM     21  C   UNL     1      45.529   4.658  13.547  0.00  0.00    +0.000 A 
BRANCH  20  22
ATOM     22  O   UNL     1      47.450   3.914  14.661  0.00  0.00    +0.000 OA
BRANCH  22  23
ATOM     23  C   UNL     1      47.362   4.102  16.093  0.00  0.00    +0.000 C 
ATOM     24  C   UNL     1      48.462   4.938  16.778  0.00  0.00    +0.000 C 
ATOM     25  N   UNL     1      48.684   3.863  17.761  0.00  0.00    +0.000 NA
ATOM     26  C   UNL     1      47.906   2.928  16.934  0.00  0.00    +0.000 C 
ATOM     27  H   UNL     1      48.276   4.044  18.677  0.00  0.00    +0.000 HD
ENDBRANCH  22  23
ENDBRANCH  20  22
ENDBRANCH  15  16
ENDBRANCH   1  15
TORSDOF 7
ENDMDL
MODEL 2
REMARK VINA RESULT:    -7.666      1.453      1.981
REMARK INTER + INTRA:         -11.565
REMARK INTER:                 -10.645
REMARK INTRA:                  -0.920
REMARK UNBOUND:                -0.762
REMARK  Name = 
REMARK  7 active torsions:
REMARK  status: ('A' for Active; 'I' for Inactive)
REMARK    1  A    between atoms: C_2  and  C_4
REMARK    2  A    between atoms: C_7  and  N_8
REMARK    3  A    between atoms: N_8  and  C_9
REMARK    4  A    between atoms: C_9  and  C_10
REMARK    5  A    between atoms: C_10  and  C_11
REMARK    6  A    between atoms: C_15  and  O_16
REMARK    7  A    between atoms: O_16  and  C_17
REMARK                            x       y       z     vdW  Elec       q    Type
REMARK                         _______ _______ _______ _____ _____    ______ ____
ROOT
ATOM      1  C   UNL     1      44.202   5.599  11.102  0.00  0.00    +0.000 C 
ENDROOT
BRANCH   1   2
ATOM      2  N   UNL     1      43.735   4.630  10.109  0.00  0.00    +0.000 N 
ATOM      3  H   UNL     1      42.997   4.008  10.432  0.00  0.00    +0.000 HD
BRANCH   2   7
ATOM      4  C   UNL     1      46.477   2.470   7.719  0.00  0.00    +0.000 A 
ATOM      5  C   UNL     1      46.426   3.860   7.621  0.00  0.00    +0.000 A 
ATOM      6  C   UNL     1      45.531   4.582   8.419  0.00  0.00    +0.000 A 
ATOM      7  C   UNL     1      44.690   3.946   9.343  0.00  0.00    +0.000 A 
ATOM      8  C   UNL     1      44.737   2.546   9.406  0.00  0.00    +0.000 A 
ATOM      9  C   UNL     1      45.617   1.811   8.598  0.00  0.00    +0.000 A 
BRANCH   4  11
ATOM     10  N   UNL     1      48.541   2.303   6.436  0.00  0.00    +0.000 N 
ATOM     11  C   UNL     1      47.406   1.677   6.873  0.00  0.00    +0.000 C 
ATOM     12  O   UNL     1      47.185   0.504   6.598  0.00  0.00    +0.000 OA
ATOM     13  H   UNL     1      49.211   1.729   5.939  0.00  0.00    +0.000 HD
ATOM     14  H   UNL     1      48.868   3.171   6.836  0.00  0.00    +0.000 HD
ENDBRANCH   4  11
ENDBRANCH   2   7
ENDBRANCH   1   2
BRANCH   1  15
ATOM     15  C   UNL     1      45.037   4.938  12.200  0.00  0.00    +0.000 C 
BRANCH  15  16
ATOM     16  C   UNL     1      46.317   5.708  12.439  0.00  0.00    +0.000 A 
ATOM     17  C   UNL     1      46.792   6.614  11.483  0.00  0.00    +0.000 A 
ATOM     18  C   UNL     1      47.982   7.314  11.702  0.00  0.00    +0.000 A 
ATOM     19  C   UNL     1      48.718   7.107  12.871  0.00  0.00    +0.000 A 
ATOM     20  C   UNL     1      48.270   6.186  13.815  0.00  0.00    +0.000 A 
ATOM     21  C   UNL     1      47.074   5.495  13.600  0.00  0.00    +0.000 A 
BRANCH  20  22
ATOM     22  O   UNL     1      48.905   5.906  15.000  0.00  0.00    +0.000 OA
BRANCH  22  23
ATOM     23  C   UNL     1      48.665   6.760  16.143  0.00  0.00    +0.000 C 
ATOM     24  C   UNL     1      49.869   7.514  16.744  0.00  0.00    +0.000 C 
ATOM     25  N   UNL     1      49.531   7.011  18.087  0.00  0.00    +0.000 NA
ATOM     26  C   UNL     1      48.609   6.026  17.500  0.00  0.00    +0.000 C 
ATOM     27  H   UNL     1      49.076   7.697  18.687  0.00  0.00    +0.000 HD
ENDBRANCH  22  23
ENDBRANCH  20  22
ENDBRANCH  15  16
ENDBRANCH   1  15
TORSDOF 7
ENDMDL
MODEL 3
REMARK VINA RESULT:    -7.614      3.241      5.101
REMARK INTER + INTRA:         -11.491
REMARK INTER:                 -10.750
REMARK INTRA:                  -0.741
REMARK UNBOUND:                -0.762
REMARK  Name = 
REMARK  7 active torsions:
REMARK  status: ('A' for Active; 'I' for Inactive)
REMARK    1  A    between atoms: C_2  and  C_4
REMARK    2  A    between atoms: C_7  and  N_8
REMARK    3  A    between atoms: N_8  and  C_9
REMARK    4  A    between atoms: C_9  and  C_10
REMARK    5  A    between atoms: C_10  and  C_11
REMARK    6  A    between atoms: C_15  and  O_16
REMARK    7  A    between atoms: O_16  and  C_17
REMARK                            x       y       z     vdW  Elec       q    Type
REMARK                         _______ _______ _______ _____ _____    ______ ____
ROOT
ATOM      1  C   UNL     1      44.162   4.941  11.492  0.00  0.00    +0.000 C 
ENDROOT
BRANCH   1   2
ATOM      2  N   UNL     1      43.896   4.868  10.054  0.00  0.00    +0.000 N 
ATOM      3  H   UNL     1      42.910   4.821   9.803  0.00  0.00    +0.000 HD
BRANCH   2   7
ATOM      4  C   UNL     1      46.387   2.323   7.772  0.00  0.00    +0.000 A 
ATOM      5  C   UNL     1      45.485   1.769   8.680  0.00  0.00    +0.000 A 
ATOM      6  C   UNL     1      44.649   2.604   9.428  0.00  0.00    +0.000 A 
ATOM      7  C   UNL     1      44.670   3.997   9.275  0.00  0.00    +0.000 A 
ATOM      8  C   UNL     1      45.603   4.536   8.377  0.00  0.00    +0.000 A 
ATOM      9  C   UNL     1      46.460   3.709   7.635  0.00  0.00    +0.000 A 
BRANCH   4  11
ATOM     10  N   UNL     1      48.415   2.048   6.451  0.00  0.00    +0.000 N 
ATOM     11  C   UNL     1      47.298   1.460   6.976  0.00  0.00    +0.000 C 
ATOM     12  O   UNL     1      47.079   0.266   6.817  0.00  0.00    +0.000 OA
ATOM     13  H   UNL     1      49.075   1.435   5.990  0.00  0.00    +0.000 HD
ATOM     14  H   UNL     1      48.747   2.951   6.760  0.00  0.00    +0.000 HD
ENDBRANCH   4  11
ENDBRANCH   2   7
ENDBRANCH   1   2
BRANCH   1  15
ATOM     15  C   UNL     1      45.646   5.158  11.790  0.00  0.00    +0.000 C 
BRANCH  15  16
ATOM     16  C   UNL     1      45.967   6.634  11.878  0.00  0.00    +0.000 A 
ATOM     17  C   UNL     1      47.285   7.066  12.068  0.00  0.00    +0.000 A 
ATOM     18  C   UNL     1      47.575   8.430  12.162  0.00  0.00    +0.000 A 
ATOM     19  C   UNL     1      46.550   9.377  12.081  0.00  0.00    +0.000 A 
ATOM     20  C   UNL     1      45.233   8.957  11.922  0.00  0.00    +0.000 A 
ATOM     21  C   UNL     1      44.945   7.593  11.816  0.00  0.00    +0.000 A 
BRANCH  20  22
ATOM     22  O   UNL     1      44.149   9.794  11.822  0.00  0.00    +0.000 OA
BRANCH  22  23
ATOM     23  C   UNL     1      43.268   9.670  10.681  0.00  0.00    +0.000 C 
ATOM     24  C   UNL     1      43.493  10.624   9.490  0.00  0.00    +0.000 C 
ATOM     25  N   UNL     1      42.070  11.004   9.508  0.00  0.00    +0.000 NA
ATOM     26  C   UNL     1      41.908  10.383  10.832  0.00  0.00    +0.000 C 
ATOM     27  H   UNL     1      41.513  10.567   8.775  0.00  0.00    +0.000 HD
ENDBRANCH  22  23
ENDBRANCH  20  22
ENDBRANCH  15  16
ENDBRANCH   1  15
TORSDOF 7
ENDMDL
MODEL 4
REMARK VINA RESULT:    -7.464      2.863      3.497
REMARK INTER + INTRA:         -11.279
REMARK INTER:                 -10.427
REMARK INTRA:                  -0.853
REMARK UNBOUND:                -0.762
REMARK  Name = 
REMARK  7 active torsions:
REMARK  status: ('A' for Active; 'I' for Inactive)
REMARK    1  A    between atoms: C_2  and  C_4
REMARK    2  A    between atoms: C_7  and  N_8
REMARK    3  A    between atoms: N_8  and  C_9
REMARK    4  A    between atoms: C_9  and  C_10
REMARK    5  A    between atoms: C_10  and  C_11
REMARK    6  A    between atoms: C_15  and  O_16
REMARK    7  A    between atoms: O_16  and  C_17
REMARK                            x       y       z     vdW  Elec       q    Type
REMARK                         _______ _______ _______ _____ _____    ______ ____
ROOT
ATOM      1  C   UNL     1      44.138   4.935  11.532  0.00  0.00    +0.000 C 
ENDROOT
BRANCH   1   2
ATOM      2  N   UNL     1      44.015   5.002  10.074  0.00  0.00    +0.000 N 
ATOM      3  H   UNL     1      43.062   5.093   9.729  0.00  0.00    +0.000 HD
BRANCH   2   7
ATOM      4  C   UNL     1      46.431   2.377   7.803  0.00  0.00    +0.000 A 
ATOM      5  C   UNL     1      45.524   1.853   8.724  0.00  0.00    +0.000 A 
ATOM      6  C   UNL     1      44.712   2.715   9.468  0.00  0.00    +0.000 A 
ATOM      7  C   UNL     1      44.764   4.106   9.299  0.00  0.00    +0.000 A 
ATOM      8  C   UNL     1      45.702   4.613   8.389  0.00  0.00    +0.000 A 
ATOM      9  C   UNL     1      46.534   3.759   7.649  0.00  0.00    +0.000 A 
BRANCH   4  11
ATOM     10  N   UNL     1      48.376   2.066   6.369  0.00  0.00    +0.000 N 
ATOM     11  C   UNL     1      47.317   1.485   7.010  0.00  0.00    +0.000 C 
ATOM     12  O   UNL     1      47.129   0.276   6.952  0.00  0.00    +0.000 OA
ATOM     13  H   UNL     1      49.025   1.440   5.908  0.00  0.00    +0.000 HD
ATOM     14  H   UNL     1      48.695   2.998   6.588  0.00  0.00    +0.000 HD
ENDBRANCH   4  11
ENDBRANCH   2   7
ENDBRANCH   1   2
BRANCH   1  15
ATOM     15  C   UNL     1      45.591   5.064  11.991  0.00  0.00    +0.000 C 
BRANCH  15  16
ATOM     16  C   UNL     1      45.981   6.517  12.142  0.00  0.00    +0.000 A 
ATOM     17  C   UNL     1      45.062   7.454  12.632  0.00  0.00    +0.000 A 
ATOM     18  C   UNL     1      45.422   8.798  12.758  0.00  0.00    +0.000 A 
ATOM     19  C   UNL     1      46.698   9.226  12.382  0.00  0.00    +0.000 A 
ATOM     20  C   UNL     1      47.609   8.308  11.866  0.00  0.00    +0.000 A 
ATOM     21  C   UNL     1      47.252   6.961  11.751  0.00  0.00    +0.000 A 
BRANCH  20  22
ATOM     22  O   UNL     1      48.890   8.611  11.472  0.00  0.00    +0.000 OA
BRANCH  22  23
ATOM     23  C   UNL     1      49.981   7.779  11.931  0.00  0.00    +0.000 C 
ATOM     24  C   UNL     1      50.639   8.133  13.280  0.00  0.00    +0.000 C 
ATOM     25  N   UNL     1      51.971   8.108  12.652  0.00  0.00    +0.000 NA
ATOM     26  C   UNL     1      51.355   8.115  11.316  0.00  0.00    +0.000 C 
ATOM     27  H   UNL     1      52.512   7.268  12.853  0.00  0.00    +0.000 HD
ENDBRANCH  22  23
ENDBRANCH  20  22
ENDBRANCH  15  16
ENDBRANCH   1  15
TORSDOF 7
ENDMDL
MODEL 5
REMARK VINA RESULT:    -7.276      2.603      3.612
REMARK INTER + INTRA:         -11.014
REMARK INTER:                 -10.195
REMARK INTRA:                  -0.820
REMARK UNBOUND:                -0.762
REMARK  Name = 
REMARK  7 active torsions:
REMARK  status: ('A' for Active; 'I' for Inactive)
REMARK    1  A    between atoms: C_2  and  C_4
REMARK    2  A    between atoms: C_7  and  N_8
REMARK    3  A    between atoms: N_8  and  C_9
REMARK    4  A    between atoms: C_9  and  C_10
REMARK    5  A    between atoms: C_10  and  C_11
REMARK    6  A    between atoms: C_15  and  O_16
REMARK    7  A    between atoms: O_16  and  C_17
REMARK                            x       y       z     vdW  Elec       q    Type
REMARK                         _______ _______ _______ _____ _____    ______ ____
ROOT
ATOM      1  C   UNL     1      43.370   5.091  11.060  0.00  0.00    +0.000 C 
ENDROOT
BRANCH   1   2
ATOM      2  N   UNL     1      43.473   3.685  10.667  0.00  0.00    +0.000 N 
ATOM      3  H   UNL     1      43.500   3.025  11.441  0.00  0.00    +0.000 HD
BRANCH   2   7
ATOM      4  C   UNL     1      46.348   2.742   7.711  0.00  0.00    +0.000 A 
ATOM      5  C   UNL     1      45.749   1.716   8.440  0.00  0.00    +0.000 A 
ATOM      6  C   UNL     1      44.787   2.019   9.409  0.00  0.00    +0.000 A 
ATOM      7  C   UNL     1      44.383   3.338   9.658  0.00  0.00    +0.000 A 
ATOM      8  C   UNL     1      45.018   4.358   8.935  0.00  0.00    +0.000 A 
ATOM      9  C   UNL     1      45.997   4.067   7.973  0.00  0.00    +0.000 A 
BRANCH   4  11
ATOM     10  N   UNL     1      47.341   3.178   5.530  0.00  0.00    +0.000 N 
ATOM     11  C   UNL     1      47.383   2.450   6.686  0.00  0.00    +0.000 C 
ATOM     12  O   UNL     1      48.258   1.613   6.875  0.00  0.00    +0.000 OA
ATOM     13  H   UNL     1      48.103   3.037   4.878  0.00  0.00    +0.000 HD
ATOM     14  H   UNL     1      46.798   4.025   5.443  0.00  0.00    +0.000 HD
ENDBRANCH   4  11
ENDBRANCH   2   7
ENDBRANCH   1   2
BRANCH   1  15
ATOM     15  C   UNL     1      43.587   5.284  12.562  0.00  0.00    +0.000 C 
BRANCH  15  16
ATOM     16  C   UNL     1      45.021   5.666  12.854  0.00  0.00    +0.000 A 
ATOM     17  C   UNL     1      45.830   4.845  13.649  0.00  0.00    +0.000 A 
ATOM     18  C   UNL     1      47.150   5.208  13.927  0.00  0.00    +0.000 A 
ATOM     19  C   UNL     1      47.674   6.403  13.425  0.00  0.00    +0.000 A 
ATOM     20  C   UNL     1      46.870   7.242  12.658  0.00  0.00    +0.000 A 
ATOM     21  C   UNL     1      45.552   6.871  12.372  0.00  0.00    +0.000 A 
BRANCH  20  22
ATOM     22  O   UNL     1      47.278   8.432  12.108  0.00  0.00    +0.000 OA
BRANCH  22  23
ATOM     23  C   UNL     1      48.557   8.984  12.498  0.00  0.00    +0.000 C 
ATOM     24  C   UNL     1      48.556  10.241  13.392  0.00  0.00    +0.000 C 
ATOM     25  N   UNL     1      49.474  10.920  12.461  0.00  0.00    +0.000 NA
ATOM     26  C   UNL     1      49.221   9.891  11.441  0.00  0.00    +0.000 C 
ATOM     27  H   UNL     1      50.441  10.956  12.780  0.00  0.00    +0.000 HD
ENDBRANCH  22  23
ENDBRANCH  20  22
ENDBRANCH  15  16
ENDBRANCH   1  15
TORSDOF 7
ENDMDL
MODEL 6
REMARK VINA RESULT:    -7.036      1.886      8.049
REMARK INTER + INTRA:         -10.676
REMARK INTER:                 -10.031
REMARK INTRA:                  -0.645
REMARK UNBOUND:                -0.762
REMARK  Name = 
REMARK  7 active torsions:
REMARK  status: ('A' for Active; 'I' for Inactive)
REMARK    1  A    between atoms: C_2  and  C_4
REMARK    2  A    between atoms: C_7  and  N_8
REMARK    3  A    between atoms: N_8  and  C_9
REMARK    4  A    between atoms: C_9  and  C_10
REMARK    5  A    between atoms: C_10  and  C_11
REMARK    6  A    between atoms: C_15  and  O_16
REMARK    7  A    between atoms: O_16  and  C_17
REMARK                            x       y       z     vdW  Elec       q    Type
REMARK                         _______ _______ _______ _____ _____    ______ ____
ROOT
ATOM      1  C   UNL     1      45.736   6.152  12.539  0.00  0.00    +0.000 C 
ENDROOT
BRANCH   1   2
ATOM      2  N   UNL     1      47.025   6.517  13.129  0.00  0.00    +0.000 N 
ATOM      3  H   UNL     1      47.775   6.669  12.458  0.00  0.00    +0.000 HD
BRANCH   2   7
ATOM      4  C   UNL     1      48.309   4.514  16.626  0.00  0.00    +0.000 A 
ATOM      5  C   UNL     1      47.377   3.904  15.788  0.00  0.00    +0.000 A 
ATOM      6  C   UNL     1      46.959   4.555  14.622  0.00  0.00    +0.000 A 
ATOM      7  C   UNL     1      47.470   5.807  14.253  0.00  0.00    +0.000 A 
ATOM      8  C   UNL     1      48.385   6.415  15.123  0.00  0.00    +0.000 A 
ATOM      9  C   UNL     1      48.799   5.780  16.305  0.00  0.00    +0.000 A 
BRANCH   4  11
ATOM     10  N   UNL     1      47.799   3.537  18.799  0.00  0.00    +0.000 N 
ATOM     11  C   UNL     1      48.759   3.853  17.879  0.00  0.00    +0.000 C 
ATOM     12  O   UNL     1      49.936   3.574  18.072  0.00  0.00    +0.000 OA
ATOM     13  H   UNL     1      48.102   3.005  19.605  0.00  0.00    +0.000 HD
ATOM     14  H   UNL     1      46.815   3.530  18.572  0.00  0.00    +0.000 HD
ENDBRANCH   4  11
ENDBRANCH   2   7
ENDBRANCH   1   2
BRANCH   1  15
ATOM     15  C   UNL     1      45.751   6.262  11.014  0.00  0.00    +0.000 C 
BRANCH  15  16
ATOM     16  C   UNL     1      45.294   4.968  10.377  0.00  0.00    +0.000 A 
ATOM     17  C   UNL     1      44.565   4.029  11.117  0.00  0.00    +0.000 A 
ATOM     18  C   UNL     1      44.156   2.829  10.528  0.00  0.00    +0.000 A 
ATOM     19  C   UNL     1      44.482   2.547   9.199  0.00  0.00    +0.000 A 
ATOM     20  C   UNL     1      45.232   3.461   8.464  0.00  0.00    +0.000 A 
ATOM     21  C   UNL     1      45.631   4.666   9.050  0.00  0.00    +0.000 A 
BRANCH  20  22
ATOM     22  O   UNL     1      45.604   3.295   7.152  0.00  0.00    +0.000 OA
BRANCH  22  23
ATOM     23  C   UNL     1      47.009   3.176   6.830  0.00  0.00    +0.000 C 
ATOM     24  C   UNL     1      47.388   2.829   5.376  0.00  0.00    +0.000 C 
ATOM     25  N   UNL     1      48.247   1.730   5.848  0.00  0.00    +0.000 NA
ATOM     26  C   UNL     1      47.643   1.815   7.187  0.00  0.00    +0.000 C 
ATOM     27  H   UNL     1      49.244   1.941   5.830  0.00  0.00    +0.000 HD
ENDBRANCH  22  23
ENDBRANCH  20  22
ENDBRANCH  15  16
ENDBRANCH   1  15
TORSDOF 7
ENDMDL
MODEL 7
REMARK VINA RESULT:    -6.444      2.579      8.194
REMARK INTER + INTRA:          -9.842
REMARK INTER:                  -9.373
REMARK INTRA:                  -0.469
REMARK UNBOUND:                -0.762
REMARK  Name = 
REMARK  7 active torsions:
REMARK  status: ('A' for Active; 'I' for Inactive)
REMARK    1  A    between atoms: C_2  and  C_4
REMARK    2  A    between atoms: C_7  and  N_8
REMARK    3  A    between atoms: N_8  and  C_9
REMARK    4  A    between atoms: C_9  and  C_10
REMARK    5  A    between atoms: C_10  and  C_11
REMARK    6  A    between atoms: C_15  and  O_16
REMARK    7  A    between atoms: O_16  and  C_17
REMARK                            x       y       z     vdW  Elec       q    Type
REMARK                         _______ _______ _______ _____ _____    ______ ____
ROOT
ATOM      1  C   UNL     1      46.743   4.321  14.619  0.00  0.00    +0.000 C 
ENDROOT
BRANCH   1   2
ATOM      2  N   UNL     1      47.138   4.750  15.962  0.00  0.00    +0.000 N 
ATOM      3  H   UNL     1      47.084   5.753  16.125  0.00  0.00    +0.000 HD
BRANCH   2   7
ATOM      4  C   UNL     1      50.660   2.988  17.506  0.00  0.00    +0.000 A 
ATOM      5  C   UNL     1      50.536   4.377  17.490  0.00  0.00    +0.000 A 
ATOM      6  C   UNL     1      49.368   4.966  16.994  0.00  0.00    +0.000 A 
ATOM      7  C   UNL     1      48.294   4.194  16.528  0.00  0.00    +0.000 A 
ATOM      8  C   UNL     1      48.450   2.801  16.527  0.00  0.00    +0.000 A 
ATOM      9  C   UNL     1      49.624   2.199  17.005  0.00  0.00    +0.000 A 
BRANCH   4  11
ATOM     10  N   UNL     1      51.915   0.970  18.040  0.00  0.00    +0.000 N 
ATOM     11  C   UNL     1      51.896   2.336  18.013  0.00  0.00    +0.000 C 
ATOM     12  O   UNL     1      52.870   2.989  18.366  0.00  0.00    +0.000 OA
ATOM     13  H   UNL     1      52.791   0.534  18.299  0.00  0.00    +0.000 HD
ATOM     14  H   UNL     1      51.240   0.409  17.540  0.00  0.00    +0.000 HD
ENDBRANCH   4  11
ENDBRANCH   2   7
ENDBRANCH   1   2
BRANCH   1  15
ATOM     15  C   UNL     1      46.571   5.506  13.667  0.00  0.00    +0.000 C 
BRANCH  15  16
ATOM     16  C   UNL     1      45.445   5.251  12.690  0.00  0.00    +0.000 A 
ATOM     17  C   UNL     1      44.128   5.104  13.143  0.00  0.00    +0.000 A 
ATOM     18  C   UNL     1      43.093   4.855  12.238  0.00  0.00    +0.000 A 
ATOM     19  C   UNL     1      43.362   4.736  10.872  0.00  0.00    +0.000 A 
ATOM     20  C   UNL     1      44.672   4.851  10.414  0.00  0.00    +0.000 A 
ATOM     21  C   UNL     1      45.705   5.111  11.319  0.00  0.00    +0.000 A 
BRANCH  20  22
ATOM     22  O   UNL     1      45.053   4.760   9.098  0.00  0.00    +0.000 OA
BRANCH  22  23
ATOM     23  C   UNL     1      44.931   3.489   8.417  0.00  0.00    +0.000 C 
ATOM     24  C   UNL     1      45.278   2.212   9.208  0.00  0.00    +0.000 C 
ATOM     25  N   UNL     1      46.177   1.771   8.128  0.00  0.00    +0.000 NA
ATOM     26  C   UNL     1      46.134   3.113   7.527  0.00  0.00    +0.000 C 
ATOM     27  H   UNL     1      45.789   1.039   7.535  0.00  0.00    +0.000 HD
ENDBRANCH  22  23
ENDBRANCH  20  22
ENDBRANCH  15  16
ENDBRANCH   1  15
TORSDOF 7
ENDMDL
MODEL 8
REMARK VINA RESULT:    -6.379      3.353      7.470
REMARK INTER + INTRA:          -9.751
REMARK INTER:                  -9.231
REMARK INTRA:                  -0.520
REMARK UNBOUND:                -0.762
REMARK  Name = 
REMARK  7 active torsions:
REMARK  status: ('A' for Active; 'I' for Inactive)
REMARK    1  A    between atoms: C_2  and  C_4
REMARK    2  A    between atoms: C_7  and  N_8
REMARK    3  A    between atoms: N_8  and  C_9
REMARK    4  A    between atoms: C_9  and  C_10
REMARK    5  A    between atoms: C_10  and  C_11
REMARK    6  A    between atoms: C_15  and  O_16
REMARK    7  A    between atoms: O_16  and  C_17
REMARK                            x       y       z     vdW  Elec       q    Type
REMARK                         _______ _______ _______ _____ _____    ______ ____
ROOT
ATOM      1  C   UNL     1      44.622   6.025  12.163  0.00  0.00    +0.000 C 
ENDROOT
BRANCH   1   2
ATOM      2  N   UNL     1      44.934   7.426  12.451  0.00  0.00    +0.000 N 
ATOM      3  H   UNL     1      44.214   8.091  12.176  0.00  0.00    +0.000 HD
BRANCH   2   7
ATOM      4  C   UNL     1      48.820   8.926  11.713  0.00  0.00    +0.000 A 
ATOM      5  C   UNL     1      48.574   7.560  11.582  0.00  0.00    +0.000 A 
ATOM      6  C   UNL     1      47.288   7.059  11.811  0.00  0.00    +0.000 A 
ATOM      7  C   UNL     1      46.219   7.901  12.149  0.00  0.00    +0.000 A 
ATOM      8  C   UNL     1      46.493   9.267  12.302  0.00  0.00    +0.000 A 
ATOM      9  C   UNL     1      47.782   9.778  12.093  0.00  0.00    +0.000 A 
BRANCH   4  11
ATOM     10  N   UNL     1      50.306  10.845  11.502  0.00  0.00    +0.000 N 
ATOM     11  C   UNL     1      50.179   9.484  11.491  0.00  0.00    +0.000 C 
ATOM     12  O   UNL     1      51.154   8.760  11.333  0.00  0.00    +0.000 OA
ATOM     13  H   UNL     1      51.247  11.212  11.443  0.00  0.00    +0.000 HD
ATOM     14  H   UNL     1      49.585  11.452  11.864  0.00  0.00    +0.000 HD
ENDBRANCH   4  11
ENDBRANCH   2   7
ENDBRANCH   1   2
BRANCH   1  15
ATOM     15  C   UNL     1      43.866   5.866  10.843  0.00  0.00    +0.000 C 
BRANCH  15  16
ATOM     16  C   UNL     1      44.151   4.518  10.219  0.00  0.00    +0.000 A 
ATOM     17  C   UNL     1      43.874   3.337  10.919  0.00  0.00    +0.000 A 
ATOM     18  C   UNL     1      44.152   2.094  10.344  0.00  0.00    +0.000 A 
ATOM     19  C   UNL     1      44.721   2.016   9.070  0.00  0.00    +0.000 A 
ATOM     20  C   UNL     1      45.027   3.184   8.378  0.00  0.00    +0.000 A 
ATOM     21  C   UNL     1      44.739   4.427   8.950  0.00  0.00    +0.000 A 
BRANCH  20  22
ATOM     22  O   UNL     1      45.579   3.230   7.121  0.00  0.00    +0.000 OA
BRANCH  22  23
ATOM     23  C   UNL     1      47.006   3.041   6.973  0.00  0.00    +0.000 C 
ATOM     24  C   UNL     1      47.572   2.916   5.544  0.00  0.00    +0.000 C 
ATOM     25  N   UNL     1      48.276   1.678   5.917  0.00  0.00    +0.000 NA
ATOM     26  C   UNL     1      47.488   1.586   7.155  0.00  0.00    +0.000 C 
ATOM     27  H   UNL     1      49.277   1.797   6.071  0.00  0.00    +0.000 HD
ENDBRANCH  22  23
ENDBRANCH  20  22
ENDBRANCH  15  16
ENDBRANCH   1  15
TORSDOF 7
ENDMDL
MODEL 9
REMARK VINA RESULT:    -6.132      3.171      7.898
REMARK INTER + INTRA:          -9.403
REMARK INTER:                  -8.678
REMARK INTRA:                  -0.725
REMARK UNBOUND:                -0.762
REMARK  Name = 
REMARK  7 active torsions:
REMARK  status: ('A' for Active; 'I' for Inactive)
REMARK    1  A    between atoms: C_2  and  C_4
REMARK    2  A    between atoms: C_7  and  N_8
REMARK    3  A    between atoms: N_8  and  C_9
REMARK    4  A    between atoms: C_9  and  C_10
REMARK    5  A    between atoms: C_10  and  C_11
REMARK    6  A    between atoms: C_15  and  O_16
REMARK    7  A    between atoms: O_16  and  C_17
REMARK                            x       y       z     vdW  Elec       q    Type
REMARK                         _______ _______ _______ _____ _____    ______ ____
ROOT
ATOM      1  C   UNL     1      48.575   7.378  15.397  0.00  0.00    +0.000 C 
ENDROOT
BRANCH   1   2
ATOM      2  N   UNL     1      48.312   6.584  16.598  0.00  0.00    +0.000 N 
ATOM      3  H   UNL     1      48.192   7.124  17.452  0.00  0.00    +0.000 HD
BRANCH   2   7
ATOM      4  C   UNL     1      50.682   3.180  17.430  0.00  0.00    +0.000 A 
ATOM      5  C   UNL     1      49.320   3.024  17.173  0.00  0.00    +0.000 A 
ATOM      6  C   UNL     1      48.534   4.143  16.883  0.00  0.00    +0.000 A 
ATOM      7  C   UNL     1      49.082   5.432  16.818  0.00  0.00    +0.000 A 
ATOM      8  C   UNL     1      50.446   5.571  17.108  0.00  0.00    +0.000 A 
ATOM      9  C   UNL     1      51.242   4.458  17.417  0.00  0.00    +0.000 A 
BRANCH   4  11
ATOM     10  N   UNL     1      52.619   2.232  18.562  0.00  0.00    +0.000 N 
ATOM     11  C   UNL     1      51.538   2.010  17.755  0.00  0.00    +0.000 C 
ATOM     12  O   UNL     1      51.276   0.886  17.346  0.00  0.00    +0.000 OA
ATOM     13  H   UNL     1      53.142   1.416  18.853  0.00  0.00    +0.000 HD
ATOM     14  H   UNL     1      52.725   3.077  19.104  0.00  0.00    +0.000 HD
ENDBRANCH   4  11
ENDBRANCH   2   7
ENDBRANCH   1   2
BRANCH   1  15
ATOM     15  C   UNL     1      48.430   6.551  14.119  0.00  0.00    +0.000 C 
BRANCH  15  16
ATOM     16  C   UNL     1      47.240   7.016  13.309  0.00  0.00    +0.000 A 
ATOM     17  C   UNL     1      46.762   8.326  13.435  0.00  0.00    +0.000 A 
ATOM     18  C   UNL     1      45.654   8.748  12.695  0.00  0.00    +0.000 A 
ATOM     19  C   UNL     1      45.003   7.863  11.831  0.00  0.00    +0.000 A 
ATOM     20  C   UNL     1      45.453   6.550  11.721  0.00  0.00    +0.000 A 
ATOM     21  C   UNL     1      46.568   6.132  12.453  0.00  0.00    +0.000 A 
BRANCH  20  22
ATOM     22  O   UNL     1      44.899   5.597  10.901  0.00  0.00    +0.000 OA
BRANCH  22  23
ATOM     23  C   UNL     1      44.632   4.279  11.436  0.00  0.00    +0.000 C 
ATOM     24  C   UNL     1      44.098   3.204  10.468  0.00  0.00    +0.000 C 
ATOM     25  N   UNL     1      42.992   2.903  11.393  0.00  0.00    +0.000 NA
ATOM     26  C   UNL     1      43.272   4.133  12.149  0.00  0.00    +0.000 C 
ATOM     27  H   UNL     1      43.119   2.047  11.932  0.00  0.00    +0.000 HD
ENDBRANCH  22  23
ENDBRANCH  20  22
ENDBRANCH  15  16
ENDBRANCH   1  15
TORSDOF 7
ENDMDL
