MODEL 1
REMARK VINA RESULT:    -9.039      0.000      0.000
REMARK INTER + INTRA:         -13.363
REMARK INTER:                 -12.209
REMARK INTRA:                  -1.154
REMARK UNBOUND:                -1.154
REMARK  Name = 
REMARK  9 active torsions:
REMARK  status: ('A' for Active; 'I' for Inactive)
REMARK    1  A    between atoms: C_1  and  C_2
REMARK    2  A    between atoms: C_5  and  C_6
REMARK    3  A    between atoms: C_8  and  C_9
REMARK    4  A    between atoms: C_9  and  C_10
REMARK    5  A    between atoms: C_9  and  C_11
REMARK    6  A    between atoms: C_9  and  C_12
REMARK    7  A    between atoms: C_12  and  N_13
REMARK    8  A    between atoms: N_13  and  C_14
REMARK    9  A    between atoms: C_17  and  C_18
REMARK                            x       y       z     vdW  Elec       q    Type
REMARK                         _______ _______ _______ _____ _____    ______ ____
ROOT
ATOM      1  C   UNL     1      44.110   4.582  12.254  0.00  0.00    +0.000 C 
ATOM      2  C   UNL     1      43.862   3.078  12.495  0.00  0.00    +0.000 C 
ATOM      3  C   UNL     1      43.131   5.393  13.141  0.00  0.00    +0.000 C 
ENDROOT
BRANCH   1   6
ATOM      4  C   UNL     1      47.478   6.418  12.582  0.00  0.00    +0.000 A 
ATOM      5  C   UNL     1      46.171   6.119  12.212  0.00  0.00    +0.000 A 
ATOM      6  C   UNL     1      45.542   4.953  12.655  0.00  0.00    +0.000 A 
ATOM      7  C   UNL     1      46.299   4.157  13.506  0.00  0.00    +0.000 A 
ATOM      8  N   UNL     1      47.559   4.456  13.884  0.00  0.00    +0.000 NA
ATOM      9  N   UNL     1      48.153   5.594  13.414  0.00  0.00    +0.000 NA
BRANCH   4  14
ATOM     10  C   UNL     1      50.251  11.274  11.011  0.00  0.00    +0.000 C 
ATOM     11  C   UNL     1      49.528  10.011  11.378  0.00  0.00    +0.000 A 
ATOM     12  C   UNL     1      50.190   8.778  11.373  0.00  0.00    +0.000 A 
ATOM     13  C   UNL     1      49.510   7.612  11.741  0.00  0.00    +0.000 A 
ATOM     14  C   UNL     1      48.162   7.642  12.130  0.00  0.00    +0.000 A 
ATOM     15  C   UNL     1      47.509   8.891  12.102  0.00  0.00    +0.000 A 
ATOM     16  C   UNL     1      48.185  10.059  11.739  0.00  0.00    +0.000 A 
ENDBRANCH   4  14
ENDBRANCH   1   6
BRANCH   1  17
ATOM     17  C   UNL     1      43.735   4.927  10.775  0.00  0.00    +0.000 C 
BRANCH  17  18
ATOM     18  N   UNL     1      43.538   3.742   9.920  0.00  0.00    +0.000 N 
ATOM     19  H   UNL     1      42.643   3.736   9.438  0.00  0.00    +0.000 HD
BRANCH  18  20
ATOM     20  C   UNL     1      44.588   3.394   9.056  0.00  0.00    +0.000 A 
ATOM     21  C   UNL     1      45.334   4.343   8.351  0.00  0.00    +0.000 A 
ATOM     22  C   UNL     1      46.379   3.966   7.509  0.00  0.00    +0.000 A 
ATOM     23  C   UNL     1      46.738   2.624   7.387  0.00  0.00    +0.000 A 
ATOM     24  C   UNL     1      46.050   1.663   8.134  0.00  0.00    +0.000 A 
ATOM     25  C   UNL     1      44.995   2.052   8.974  0.00  0.00    +0.000 A 
BRANCH  23  26
ATOM     26  C   UNL     1      47.833   2.290   6.443  0.00  0.00    +0.000 C 
ATOM     27  N   UNL     1      47.904   2.992   5.276  0.00  0.00    +0.000 N 
ATOM     28  O   UNL     1      48.630   1.392   6.685  0.00  0.00    +0.000 OA
ATOM     29  H   UNL     1      47.171   3.604   4.950  0.00  0.00    +0.000 HD
ATOM     30  H   UNL     1      48.591   2.670   4.606  0.00  0.00    +0.000 HD
ENDBRANCH  23  26
ENDBRANCH  18  20
ENDBRANCH  17  18
ENDBRANCH   1  17
TORSDOF 6
ENDMDL
MODEL 2
REMARK VINA RESULT:    -8.466      2.429      4.187
REMARK INTER + INTRA:         -12.590
REMARK INTER:                 -11.660
REMARK INTRA:                  -0.930
REMARK UNBOUND:                -1.154
REMARK  Name = 
REMARK  9 active torsions:
REMARK  status: ('A' for Active; 'I' for Inactive)
REMARK    1  A    between atoms: C_1  and  C_2
REMARK    2  A    between atoms: C_5  and  C_6
REMARK    3  A    between atoms: C_8  and  C_9
REMARK    4  A    between atoms: C_9  and  C_10
REMARK    5  A    between atoms: C_9  and  C_11
REMARK    6  A    between atoms: C_9  and  C_12
REMARK    7  A    between atoms: C_12  and  N_13
REMARK    8  A    between atoms: N_13  and  C_14
REMARK    9  A    between atoms: C_17  and  C_18
REMARK                            x       y       z     vdW  Elec       q    Type
REMARK                         _______ _______ _______ _____ _____    ______ ____
ROOT
ATOM      1  C   UNL     1      44.012   4.777  12.137  0.00  0.00    +0.000 C 
ATOM      2  C   UNL     1      43.015   4.816  13.314  0.00  0.00    +0.000 C 
ATOM      3  C   UNL     1      43.532   5.772  11.050  0.00  0.00    +0.000 C 
ENDROOT
BRANCH   1   6
ATOM      4  C   UNL     1      47.166   5.327  14.274  0.00  0.00    +0.000 A 
ATOM      5  C   UNL     1      45.904   4.901  13.873  0.00  0.00    +0.000 A 
ATOM      6  C   UNL     1      45.404   5.213  12.607  0.00  0.00    +0.000 A 
ATOM      7  C   UNL     1      46.267   5.932  11.788  0.00  0.00    +0.000 A 
ATOM      8  N   UNL     1      47.500   6.328  12.168  0.00  0.00    +0.000 NA
ATOM      9  N   UNL     1      47.949   6.025  13.423  0.00  0.00    +0.000 NA
BRANCH   4  14
ATOM     10  C   UNL     1      49.156   4.180  19.609  0.00  0.00    +0.000 C 
ATOM     11  C   UNL     1      48.670   4.451  18.216  0.00  0.00    +0.000 A 
ATOM     12  C   UNL     1      47.770   3.583  17.588  0.00  0.00    +0.000 A 
ATOM     13  C   UNL     1      47.305   3.861  16.298  0.00  0.00    +0.000 A 
ATOM     14  C   UNL     1      47.716   5.009  15.604  0.00  0.00    +0.000 A 
ATOM     15  C   UNL     1      48.643   5.855  16.245  0.00  0.00    +0.000 A 
ATOM     16  C   UNL     1      49.106   5.583  17.535  0.00  0.00    +0.000 A 
ENDBRANCH   4  14
ENDBRANCH   1   6
BRANCH   1  17
ATOM     17  C   UNL     1      43.959   3.360  11.475  0.00  0.00    +0.000 C 
BRANCH  17  18
ATOM     18  N   UNL     1      43.642   3.387  10.035  0.00  0.00    +0.000 N 
ATOM     19  H   UNL     1      43.119   4.211   9.752  0.00  0.00    +0.000 HD
BRANCH  18  20
ATOM     20  C   UNL     1      44.690   3.113   9.142  0.00  0.00    +0.000 A 
ATOM     21  C   UNL     1      45.173   1.821   8.916  0.00  0.00    +0.000 A 
ATOM     22  C   UNL     1      46.208   1.579   8.015  0.00  0.00    +0.000 A 
ATOM     23  C   UNL     1      46.757   2.626   7.275  0.00  0.00    +0.000 A 
ATOM     24  C   UNL     1      46.245   3.917   7.435  0.00  0.00    +0.000 A 
ATOM     25  C   UNL     1      45.207   4.151   8.350  0.00  0.00    +0.000 A 
BRANCH  23  26
ATOM     26  C   UNL     1      47.883   2.304   6.363  0.00  0.00    +0.000 C 
ATOM     27  N   UNL     1      47.890   2.887   5.130  0.00  0.00    +0.000 N 
ATOM     28  O   UNL     1      48.761   1.515   6.689  0.00  0.00    +0.000 OA
ATOM     29  H   UNL     1      47.103   3.390   4.749  0.00  0.00    +0.000 HD
ATOM     30  H   UNL     1      48.607   2.566   4.492  0.00  0.00    +0.000 HD
ENDBRANCH  23  26
ENDBRANCH  18  20
ENDBRANCH  17  18
ENDBRANCH   1  17
TORSDOF 6
ENDMDL
MODEL 3
REMARK VINA RESULT:    -7.307      1.674      2.228
REMARK INTER + INTRA:         -11.024
REMARK INTER:                 -10.594
REMARK INTRA:                  -0.430
REMARK UNBOUND:                -1.154
REMARK  Name = 
REMARK  9 active torsions:
REMARK  status: ('A' for Active; 'I' for Inactive)
REMARK    1  A    between atoms: C_1  and  C_2
REMARK    2  A    between atoms: C_5  and  C_6
REMARK    3  A    between atoms: C_8  and  C_9
REMARK    4  A    between atoms: C_9  and  C_10
REMARK    5  A    between atoms: C_9  and  C_11
REMARK    6  A    between atoms: C_9  and  C_12
REMARK    7  A    between atoms: C_12  and  N_13
REMARK    8  A    between atoms: N_13  and  C_14
REMARK    9  A    between atoms: C_17  and  C_18
REMARK                            x       y       z     vdW  Elec       q    Type
REMARK                         _______ _______ _______ _____ _____    ______ ____
ROOT
ATOM      1  C   UNL     1      45.144   5.153  12.406  0.00  0.00    +0.000 C 
ATOM      2  C   UNL     1      43.825   5.561  13.097  0.00  0.00    +0.000 C 
ATOM      3  C   UNL     1      45.382   6.095  11.199  0.00  0.00    +0.000 C 
ENDROOT
BRANCH   1   6
ATOM      4  C   UNL     1      48.274   6.488  14.206  0.00  0.00    +0.000 A 
ATOM      5  C   UNL     1      47.207   6.385  13.320  0.00  0.00    +0.000 A 
ATOM      6  C   UNL     1      46.319   5.308  13.377  0.00  0.00    +0.000 A 
ATOM      7  C   UNL     1      46.562   4.391  14.392  0.00  0.00    +0.000 A 
ATOM      8  N   UNL     1      47.584   4.500  15.267  0.00  0.00    +0.000 NA
ATOM      9  N   UNL     1      48.447   5.555  15.168  0.00  0.00    +0.000 NA
BRANCH   4  14
ATOM     10  C   UNL     1      52.125  10.824  13.886  0.00  0.00    +0.000 C 
ATOM     11  C   UNL     1      51.107   9.727  13.993  0.00  0.00    +0.000 A 
ATOM     12  C   UNL     1      49.976   9.715  13.169  0.00  0.00    +0.000 A 
ATOM     13  C   UNL     1      49.047   8.672  13.262  0.00  0.00    +0.000 A 
ATOM     14  C   UNL     1      49.222   7.615  14.167  0.00  0.00    +0.000 A 
ATOM     15  C   UNL     1      50.354   7.662  15.005  0.00  0.00    +0.000 A 
ATOM     16  C   UNL     1      51.286   8.699  14.913  0.00  0.00    +0.000 A 
ENDBRANCH   4  14
ENDBRANCH   1   6
BRANCH   1  17
ATOM     17  C   UNL     1      44.977   3.718  11.805  0.00  0.00    +0.000 C 
BRANCH  17  18
ATOM     18  N   UNL     1      44.354   3.702  10.468  0.00  0.00    +0.000 N 
ATOM     19  H   UNL     1      43.810   4.536  10.266  0.00  0.00    +0.000 HD
BRANCH  18  20
ATOM     20  C   UNL     1      45.173   3.348   9.383  0.00  0.00    +0.000 A 
ATOM     21  C   UNL     1      45.471   2.021   9.062  0.00  0.00    +0.000 A 
ATOM     22  C   UNL     1      46.278   1.701   7.972  0.00  0.00    +0.000 A 
ATOM     23  C   UNL     1      46.772   2.706   7.141  0.00  0.00    +0.000 A 
ATOM     24  C   UNL     1      46.432   4.037   7.403  0.00  0.00    +0.000 A 
ATOM     25  C   UNL     1      45.623   4.349   8.507  0.00  0.00    +0.000 A 
BRANCH  23  26
ATOM     26  C   UNL     1      47.657   2.298   6.022  0.00  0.00    +0.000 C 
ATOM     27  N   UNL     1      47.550   2.977   4.845  0.00  0.00    +0.000 N 
ATOM     28  O   UNL     1      48.436   1.360   6.137  0.00  0.00    +0.000 OA
ATOM     29  H   UNL     1      46.803   3.625   4.643  0.00  0.00    +0.000 HD
ATOM     30  H   UNL     1      48.085   2.608   4.069  0.00  0.00    +0.000 HD
ENDBRANCH  23  26
ENDBRANCH  18  20
ENDBRANCH  17  18
ENDBRANCH   1  17
TORSDOF 6
ENDMDL
MODEL 4
REMARK VINA RESULT:    -6.971      3.493      8.010
REMARK INTER + INTRA:         -10.570
REMARK INTER:                  -9.358
REMARK INTRA:                  -1.212
REMARK UNBOUND:                -1.154
REMARK  Name = 
REMARK  9 active torsions:
REMARK  status: ('A' for Active; 'I' for Inactive)
REMARK    1  A    between atoms: C_1  and  C_2
REMARK    2  A    between atoms: C_5  and  C_6
REMARK    3  A    between atoms: C_8  and  C_9
REMARK    4  A    between atoms: C_9  and  C_10
REMARK    5  A    between atoms: C_9  and  C_11
REMARK    6  A    between atoms: C_9  and  C_12
REMARK    7  A    between atoms: C_12  and  N_13
REMARK    8  A    between atoms: N_13  and  C_14
REMARK    9  A    between atoms: C_17  and  C_18
REMARK                            x       y       z     vdW  Elec       q    Type
REMARK                         _______ _______ _______ _____ _____    ______ ____
ROOT
ATOM      1  C   UNL     1      49.411   8.587  12.588  0.00  0.00    +0.000 C 
ATOM      2  C   UNL     1      50.219   8.250  11.316  0.00  0.00    +0.000 C 
ATOM      3  C   UNL     1      49.534  10.108  12.863  0.00  0.00    +0.000 C 
ENDROOT
BRANCH   1   6
ATOM      4  C   UNL     1      46.149   6.813  11.572  0.00  0.00    +0.000 A 
ATOM      5  C   UNL     1      47.501   7.076  11.762  0.00  0.00    +0.000 A 
ATOM      6  C   UNL     1      47.930   8.255  12.378  0.00  0.00    +0.000 A 
ATOM      7  C   UNL     1      46.916   9.102  12.809  0.00  0.00    +0.000 A 
ATOM      8  N   UNL     1      45.603   8.838  12.645  0.00  0.00    +0.000 NA
ATOM      9  N   UNL     1      45.219   7.686  12.017  0.00  0.00    +0.000 NA
BRANCH   4  14
ATOM     10  C   UNL     1      44.480   1.851   9.056  0.00  0.00    +0.000 C 
ATOM     11  C   UNL     1      44.872   3.144   9.708  0.00  0.00    +0.000 A 
ATOM     12  C   UNL     1      44.810   3.296  11.098  0.00  0.00    +0.000 A 
ATOM     13  C   UNL     1      45.203   4.499  11.693  0.00  0.00    +0.000 A 
ATOM     14  C   UNL     1      45.673   5.576  10.927  0.00  0.00    +0.000 A 
ATOM     15  C   UNL     1      45.701   5.410   9.528  0.00  0.00    +0.000 A 
ATOM     16  C   UNL     1      45.314   4.209   8.929  0.00  0.00    +0.000 A 
ENDBRANCH   4  14
ENDBRANCH   1   6
BRANCH   1  17
ATOM     17  C   UNL     1      50.074   7.875  13.813  0.00  0.00    +0.000 C 
BRANCH  17  18
ATOM     18  N   UNL     1      49.352   8.079  15.082  0.00  0.00    +0.000 N 
ATOM     19  H   UNL     1      48.610   8.770  15.018  0.00  0.00    +0.000 HD
BRANCH  18  20
ATOM     20  C   UNL     1      48.926   6.930  15.769  0.00  0.00    +0.000 A 
ATOM     21  C   UNL     1      49.151   6.739  17.135  0.00  0.00    +0.000 A 
ATOM     22  C   UNL     1      48.706   5.593  17.792  0.00  0.00    +0.000 A 
ATOM     23  C   UNL     1      47.975   4.625  17.103  0.00  0.00    +0.000 A 
ATOM     24  C   UNL     1      47.680   4.827  15.752  0.00  0.00    +0.000 A 
ATOM     25  C   UNL     1      48.138   5.981  15.098  0.00  0.00    +0.000 A 
BRANCH  23  26
ATOM     26  C   UNL     1      47.566   3.412  17.853  0.00  0.00    +0.000 C 
ATOM     27  N   UNL     1      48.292   3.071  18.956  0.00  0.00    +0.000 N 
ATOM     28  O   UNL     1      46.629   2.718  17.479  0.00  0.00    +0.000 OA
ATOM     29  H   UNL     1      49.175   3.498  19.195  0.00  0.00    +0.000 HD
ATOM     30  H   UNL     1      48.060   2.183  19.383  0.00  0.00    +0.000 HD
ENDBRANCH  23  26
ENDBRANCH  18  20
ENDBRANCH  17  18
ENDBRANCH   1  17
TORSDOF 6
ENDMDL
MODEL 5
REMARK VINA RESULT:    -6.526      5.017      7.297
REMARK INTER + INTRA:          -9.969
REMARK INTER:                  -9.157
REMARK INTRA:                  -0.811
REMARK UNBOUND:                -1.154
REMARK  Name = 
REMARK  9 active torsions:
REMARK  status: ('A' for Active; 'I' for Inactive)
REMARK    1  A    between atoms: C_1  and  C_2
REMARK    2  A    between atoms: C_5  and  C_6
REMARK    3  A    between atoms: C_8  and  C_9
REMARK    4  A    between atoms: C_9  and  C_10
REMARK    5  A    between atoms: C_9  and  C_11
REMARK    6  A    between atoms: C_9  and  C_12
REMARK    7  A    between atoms: C_12  and  N_13
REMARK    8  A    between atoms: N_13  and  C_14
REMARK    9  A    between atoms: C_17  and  C_18
REMARK                            x       y       z     vdW  Elec       q    Type
REMARK                         _______ _______ _______ _____ _____    ______ ____
ROOT
ATOM      1  C   UNL     1      49.123   7.758  15.249  0.00  0.00    +0.000 C 
ATOM      2  C   UNL     1      48.181   8.953  15.510  0.00  0.00    +0.000 C 
ATOM      3  C   UNL     1      50.521   8.306  14.864  0.00  0.00    +0.000 C 
ENDROOT
BRANCH   1   6
ATOM      4  C   UNL     1      50.163   5.011  17.736  0.00  0.00    +0.000 A 
ATOM      5  C   UNL     1      50.064   5.765  16.572  0.00  0.00    +0.000 A 
ATOM      6  C   UNL     1      49.270   6.913  16.518  0.00  0.00    +0.000 A 
ATOM      7  C   UNL     1      48.634   7.251  17.706  0.00  0.00    +0.000 A 
ATOM      8  N   UNL     1      48.746   6.533  18.844  0.00  0.00    +0.000 NA
ATOM      9  N   UNL     1      49.514   5.402  18.854  0.00  0.00    +0.000 NA
BRANCH   4  14
ATOM     10  C   UNL     1      53.533   0.282  17.855  0.00  0.00    +0.000 C 
ATOM     11  C   UNL     1      52.653   1.497  17.864  0.00  0.00    +0.000 A 
ATOM     12  C   UNL     1      53.134   2.727  18.326  0.00  0.00    +0.000 A 
ATOM     13  C   UNL     1      52.310   3.859  18.305  0.00  0.00    +0.000 A 
ATOM     14  C   UNL     1      50.996   3.798  17.818  0.00  0.00    +0.000 A 
ATOM     15  C   UNL     1      50.526   2.543  17.382  0.00  0.00    +0.000 A 
ATOM     16  C   UNL     1      51.345   1.412  17.397  0.00  0.00    +0.000 A 
ENDBRANCH   4  14
ENDBRANCH   1   6
BRANCH   1  17
ATOM     17  C   UNL     1      48.609   6.974  13.996  0.00  0.00    +0.000 C 
BRANCH  17  18
ATOM     18  N   UNL     1      47.199   7.244  13.661  0.00  0.00    +0.000 N 
ATOM     19  H   UNL     1      47.055   8.146  13.215  0.00  0.00    +0.000 HD
BRANCH  18  20
ATOM     20  C   UNL     1      46.490   6.227  13.002  0.00  0.00    +0.000 A 
ATOM     21  C   UNL     1      46.017   5.088  13.659  0.00  0.00    +0.000 A 
ATOM     22  C   UNL     1      45.306   4.100  12.979  0.00  0.00    +0.000 A 
ATOM     23  C   UNL     1      45.007   4.252  11.625  0.00  0.00    +0.000 A 
ATOM     24  C   UNL     1      45.413   5.414  10.963  0.00  0.00    +0.000 A 
ATOM     25  C   UNL     1      46.133   6.400  11.655  0.00  0.00    +0.000 A 
BRANCH  23  26
ATOM     26  C   UNL     1      44.283   3.144  10.955  0.00  0.00    +0.000 C 
ATOM     27  N   UNL     1      44.958   2.413  10.023  0.00  0.00    +0.000 N 
ATOM     28  O   UNL     1      43.106   2.911  11.202  0.00  0.00    +0.000 OA
ATOM     29  H   UNL     1      45.858   2.681   9.652  0.00  0.00    +0.000 HD
ATOM     30  H   UNL     1      44.410   1.738   9.505  0.00  0.00    +0.000 HD
ENDBRANCH  23  26
ENDBRANCH  18  20
ENDBRANCH  17  18
ENDBRANCH   1  17
TORSDOF 6
ENDMDL
MODEL 6
REMARK VINA RESULT:    -6.378      4.613      8.325
REMARK INTER + INTRA:          -9.768
REMARK INTER:                  -8.088
REMARK INTRA:                  -1.680
REMARK UNBOUND:                -1.154
REMARK  Name = 
REMARK  9 active torsions:
REMARK  status: ('A' for Active; 'I' for Inactive)
REMARK    1  A    between atoms: C_1  and  C_2
REMARK    2  A    between atoms: C_5  and  C_6
REMARK    3  A    between atoms: C_8  and  C_9
REMARK    4  A    between atoms: C_9  and  C_10
REMARK    5  A    between atoms: C_9  and  C_11
REMARK    6  A    between atoms: C_9  and  C_12
REMARK    7  A    between atoms: C_12  and  N_13
REMARK    8  A    between atoms: N_13  and  C_14
REMARK    9  A    between atoms: C_17  and  C_18
REMARK                            x       y       z     vdW  Elec       q    Type
REMARK                         _______ _______ _______ _____ _____    ______ ____
ROOT
ATOM      1  C   UNL     1      49.161   9.040  17.141  0.00  0.00    +0.000 C 
ATOM      2  C   UNL     1      50.547   9.254  17.787  0.00  0.00    +0.000 C 
ATOM      3  C   UNL     1      48.464  10.417  17.000  0.00  0.00    +0.000 C 
ENDROOT
BRANCH   1   6
ATOM      4  C   UNL     1      48.519   7.082  13.890  0.00  0.00    +0.000 A 
ATOM      5  C   UNL     1      48.339   7.629  15.156  0.00  0.00    +0.000 A 
ATOM      6  C   UNL     1      49.318   8.434  15.742  0.00  0.00    +0.000 A 
ATOM      7  C   UNL     1      50.442   8.668  14.960  0.00  0.00    +0.000 A 
ATOM      8  N   UNL     1      50.610   8.155  13.723  0.00  0.00    +0.000 NA
ATOM      9  N   UNL     1      49.641   7.353  13.188  0.00  0.00    +0.000 NA
BRANCH   4  14
ATOM     10  C   UNL     1      44.343   3.858  11.461  0.00  0.00    +0.000 C 
ATOM     11  C   UNL     1      45.449   4.672  12.065  0.00  0.00    +0.000 A 
ATOM     12  C   UNL     1      45.921   5.825  11.429  0.00  0.00    +0.000 A 
ATOM     13  C   UNL     1      46.936   6.589  12.016  0.00  0.00    +0.000 A 
ATOM     14  C   UNL     1      47.500   6.231  13.249  0.00  0.00    +0.000 A 
ATOM     15  C   UNL     1      47.028   5.051  13.858  0.00  0.00    +0.000 A 
ATOM     16  C   UNL     1      46.012   4.288  13.278  0.00  0.00    +0.000 A 
ENDBRANCH   4  14
ENDBRANCH   1   6
BRANCH   1  17
ATOM     17  C   UNL     1      48.270   8.206  18.120  0.00  0.00    +0.000 C 
BRANCH  17  18
ATOM     18  N   UNL     1      49.033   7.286  18.982  0.00  0.00    +0.000 N 
ATOM     19  H   UNL     1      48.697   7.258  19.941  0.00  0.00    +0.000 HD
BRANCH  18  20
ATOM     20  C   UNL     1      49.275   5.995  18.486  0.00  0.00    +0.000 A 
ATOM     21  C   UNL     1      48.253   5.158  18.027  0.00  0.00    +0.000 A 
ATOM     22  C   UNL     1      48.526   3.885  17.529  0.00  0.00    +0.000 A 
ATOM     23  C   UNL     1      49.842   3.432  17.433  0.00  0.00    +0.000 A 
ATOM     24  C   UNL     1      50.885   4.277  17.823  0.00  0.00    +0.000 A 
ATOM     25  C   UNL     1      50.599   5.555  18.328  0.00  0.00    +0.000 A 
BRANCH  23  26
ATOM     26  C   UNL     1      50.057   2.052  16.931  0.00  0.00    +0.000 C 
ATOM     27  N   UNL     1      50.961   1.270  17.587  0.00  0.00    +0.000 N 
ATOM     28  O   UNL     1      49.469   1.636  15.940  0.00  0.00    +0.000 OA
ATOM     29  H   UNL     1      51.599   1.623  18.284  0.00  0.00    +0.000 HD
ATOM     30  H   UNL     1      51.167   0.376  17.159  0.00  0.00    +0.000 HD
ENDBRANCH  23  26
ENDBRANCH  18  20
ENDBRANCH  17  18
ENDBRANCH   1  17
TORSDOF 6
ENDMDL
