MODEL 1
REMARK VINA RESULT:    -8.370      0.000      0.000
REMARK INTER + INTRA:         -11.700
REMARK INTER:                 -10.816
REMARK INTRA:                  -0.884
REMARK UNBOUND:                -0.884
REMARK  Name = 
REMARK  5 active torsions:
REMARK  status: ('A' for Active; 'I' for Inactive)
REMARK    1  A    between atoms: C_2  and  C_4
REMARK    2  A    between atoms: C_7  and  O_8
REMARK    3  A    between atoms: O_8  and  C_9
REMARK    4  A    between atoms: C_9  and  C_10
REMARK    5  A    between atoms: C_15  and  C_16
REMARK                            x       y       z     vdW  Elec       q    Type
REMARK                         _______ _______ _______ _____ _____    ______ ____
ROOT
ATOM      1  C   UNL     1      43.864   4.929  11.390  0.00  0.00    +0.000 C 
ATOM      2  C   UNL     1      42.500   5.280  11.969  0.00  0.00    +0.000 C 
ATOM      3  C   UNL     1      43.036   6.060  10.814  0.00  0.00    +0.000 C 
ENDROOT
BRANCH   1   4
ATOM      4  C   UNL     1      45.111   5.243  12.204  0.00  0.00    +0.000 A 
ATOM      5  C   UNL     1      45.539   4.411  13.246  0.00  0.00    +0.000 A 
ATOM      6  C   UNL     1      46.720   4.682  13.937  0.00  0.00    +0.000 A 
ATOM      7  C   UNL     1      47.495   5.790  13.592  0.00  0.00    +0.000 A 
ATOM      8  F   UNL     1      48.639   5.973  14.269  0.00  0.00    +0.000 F 
ATOM      9  C   UNL     1      47.119   6.671  12.570  0.00  0.00    +0.000 A 
ATOM     10  C   UNL     1      45.914   6.364  11.901  0.00  0.00    +0.000 A 
BRANCH   9  11
ATOM     11  C   UNL     1      47.924   7.855  12.179  0.00  0.00    +0.000 A 
ATOM     12  C   UNL     1      49.250   7.739  11.726  0.00  0.00    +0.000 A 
ATOM     13  C   UNL     1      49.982   8.862  11.340  0.00  0.00    +0.000 A 
ATOM     14  C   UNL     1      49.377  10.102  11.427  0.00  0.00    +0.000 A 
ATOM     15  N   UNL     1      48.113  10.278  11.855  0.00  0.00    +0.000 NA
ATOM     16  C   UNL     1      47.426   9.161  12.218  0.00  0.00    +0.000 A 
ENDBRANCH   9  11
ENDBRANCH   1   4
BRANCH   1  17
ATOM     17  O   UNL     1      43.809   3.636  10.741  0.00  0.00    +0.000 OA
BRANCH  17  21
ATOM     18  C   UNL     1      46.406   2.724   7.685  0.00  0.00    +0.000 A 
ATOM     19  C   UNL     1      45.858   1.708   8.464  0.00  0.00    +0.000 A 
ATOM     20  C   UNL     1      44.988   2.048   9.495  0.00  0.00    +0.000 A 
ATOM     21  C   UNL     1      44.696   3.393   9.711  0.00  0.00    +0.000 A 
ATOM     22  N   UNL     1      45.207   4.401   8.975  0.00  0.00    +0.000 NA
ATOM     23  C   UNL     1      46.068   4.043   7.989  0.00  0.00    +0.000 A 
BRANCH  18  25
ATOM     24  N   UNL     1      47.171   3.164   5.414  0.00  0.00    +0.000 N 
ATOM     25  C   UNL     1      47.348   2.461   6.574  0.00  0.00    +0.000 C 
ATOM     26  O   UNL     1      48.272   1.668   6.699  0.00  0.00    +0.000 OA
ATOM     27  H   UNL     1      47.876   3.034   4.699  0.00  0.00    +0.000 HD
ATOM     28  H   UNL     1      46.591   3.989   5.350  0.00  0.00    +0.000 HD
ENDBRANCH  18  25
ENDBRANCH  17  21
ENDBRANCH   1  17
TORSDOF 5
ENDMDL
MODEL 2
REMARK VINA RESULT:    -8.340      2.104      3.544
REMARK INTER + INTRA:         -11.661
REMARK INTER:                 -12.140
REMARK INTRA:                   0.479
REMARK UNBOUND:                -0.884
REMARK  Name = 
REMARK  5 active torsions:
REMARK  status: ('A' for Active; 'I' for Inactive)
REMARK    1  A    between atoms: C_2  and  C_4
REMARK    2  A    between atoms: C_7  and  O_8
REMARK    3  A    between atoms: O_8  and  C_9
REMARK    4  A    between atoms: C_9  and  C_10
REMARK    5  A    between atoms: C_15  and  C_16
REMARK                            x       y       z     vdW  Elec       q    Type
REMARK                         _______ _______ _______ _____ _____    ______ ____
ROOT
ATOM      1  C   UNL     1      44.018   4.776  11.463  0.00  0.00    +0.000 C 
ATOM      2  C   UNL     1      43.397   3.531  12.083  0.00  0.00    +0.000 C 
ATOM      3  C   UNL     1      42.799   4.871  12.360  0.00  0.00    +0.000 C 
ENDROOT
BRANCH   1   4
ATOM      4  C   UNL     1      45.369   5.254  11.972  0.00  0.00    +0.000 A 
ATOM      5  C   UNL     1      46.131   6.194  11.267  0.00  0.00    +0.000 A 
ATOM      6  C   UNL     1      47.337   6.668  11.783  0.00  0.00    +0.000 A 
ATOM      7  C   UNL     1      47.800   6.210  13.017  0.00  0.00    +0.000 A 
ATOM      8  F   UNL     1      48.947   6.734  13.476  0.00  0.00    +0.000 F 
ATOM      9  C   UNL     1      47.095   5.260  13.770  0.00  0.00    +0.000 A 
ATOM     10  C   UNL     1      45.883   4.802  13.208  0.00  0.00    +0.000 A 
BRANCH   9  11
ATOM     11  C   UNL     1      47.560   4.757  15.086  0.00  0.00    +0.000 A 
ATOM     12  C   UNL     1      47.509   3.392  15.422  0.00  0.00    +0.000 A 
ATOM     13  C   UNL     1      47.974   2.935  16.656  0.00  0.00    +0.000 A 
ATOM     14  C   UNL     1      48.475   3.860  17.552  0.00  0.00    +0.000 A 
ATOM     15  N   UNL     1      48.548   5.178  17.289  0.00  0.00    +0.000 NA
ATOM     16  C   UNL     1      48.092   5.589  16.075  0.00  0.00    +0.000 A 
ENDBRANCH   9  11
ENDBRANCH   1   4
BRANCH   1  17
ATOM     17  O   UNL     1      43.818   4.768  10.030  0.00  0.00    +0.000 OA
BRANCH  17  21
ATOM     18  C   UNL     1      46.425   2.512   7.786  0.00  0.00    +0.000 A 
ATOM     19  C   UNL     1      45.596   1.899   8.722  0.00  0.00    +0.000 A 
ATOM     20  C   UNL     1      44.729   2.689   9.471  0.00  0.00    +0.000 A 
ATOM     21  C   UNL     1      44.723   4.065   9.257  0.00  0.00    +0.000 A 
ATOM     22  N   UNL     1      45.510   4.691   8.359  0.00  0.00    +0.000 NA
ATOM     23  C   UNL     1      46.359   3.899   7.656  0.00  0.00    +0.000 A 
BRANCH  18  25
ATOM     24  N   UNL     1      48.497   2.418   6.509  0.00  0.00    +0.000 N 
ATOM     25  C   UNL     1      47.385   1.756   6.951  0.00  0.00    +0.000 C 
ATOM     26  O   UNL     1      47.208   0.573   6.692  0.00  0.00    +0.000 OA
ATOM     27  H   UNL     1      49.183   1.862   6.014  0.00  0.00    +0.000 HD
ATOM     28  H   UNL     1      48.805   3.301   6.893  0.00  0.00    +0.000 HD
ENDBRANCH  18  25
ENDBRANCH  17  21
ENDBRANCH   1  17
TORSDOF 5
ENDMDL
MODEL 3
REMARK VINA RESULT:    -7.948      1.751      2.482
REMARK INTER + INTRA:         -11.156
REMARK INTER:                 -11.171
REMARK INTRA:                   0.016
REMARK UNBOUND:                -0.884
REMARK  Name = 
REMARK  5 active torsions:
REMARK  status: ('A' for Active; 'I' for Inactive)
REMARK    1  A    between atoms: C_2  and  C_4
REMARK    2  A    between atoms: C_7  and  O_8
REMARK    3  A    between atoms: O_8  and  C_9
REMARK    4  A    between atoms: C_9  and  C_10
REMARK    5  A    between atoms: C_15  and  C_16
REMARK                            x       y       z     vdW  Elec       q    Type
REMARK                         _______ _______ _______ _____ _____    ______ ____
ROOT
ATOM      1  C   UNL     1      44.081   3.970  11.519  0.00  0.00    +0.000 C 
ATOM      2  C   UNL     1      44.869   2.906  12.271  0.00  0.00    +0.000 C 
ATOM      3  C   UNL     1      43.533   3.334  12.781  0.00  0.00    +0.000 C 
ENDROOT
BRANCH   1   4
ATOM      4  C   UNL     1      44.574   5.409  11.551  0.00  0.00    +0.000 A 
ATOM      5  C   UNL     1      43.725   6.486  11.268  0.00  0.00    +0.000 A 
ATOM      6  C   UNL     1      44.181   7.801  11.366  0.00  0.00    +0.000 A 
ATOM      7  C   UNL     1      45.496   8.059  11.753  0.00  0.00    +0.000 A 
ATOM      8  F   UNL     1      45.861   9.346  11.866  0.00  0.00    +0.000 F 
ATOM      9  C   UNL     1      46.403   7.030  12.037  0.00  0.00    +0.000 A 
ATOM     10  C   UNL     1      45.903   5.715  11.919  0.00  0.00    +0.000 A 
BRANCH   9  11
ATOM     11  C   UNL     1      47.806   7.275  12.454  0.00  0.00    +0.000 A 
ATOM     12  C   UNL     1      48.723   7.948  11.626  0.00  0.00    +0.000 A 
ATOM     13  C   UNL     1      50.032   8.190  12.046  0.00  0.00    +0.000 A 
ATOM     14  C   UNL     1      50.415   7.738  13.294  0.00  0.00    +0.000 A 
ATOM     15  N   UNL     1      49.585   7.086  14.130  0.00  0.00    +0.000 NA
ATOM     16  C   UNL     1      48.315   6.872  13.692  0.00  0.00    +0.000 A 
ENDBRANCH   9  11
ENDBRANCH   1   4
BRANCH   1  17
ATOM     17  O   UNL     1      43.643   3.452  10.241  0.00  0.00    +0.000 OA
BRANCH  17  21
ATOM     18  C   UNL     1      46.565   2.637   7.463  0.00  0.00    +0.000 A 
ATOM     19  C   UNL     1      46.107   3.941   7.635  0.00  0.00    +0.000 A 
ATOM     20  C   UNL     1      45.113   4.185   8.578  0.00  0.00    +0.000 A 
ATOM     21  C   UNL     1      44.612   3.114   9.316  0.00  0.00    +0.000 A 
ATOM     22  N   UNL     1      45.033   1.842   9.176  0.00  0.00    +0.000 NA
ATOM     23  C   UNL     1      45.989   1.629   8.237  0.00  0.00    +0.000 A 
BRANCH  18  25
ATOM     24  N   UNL     1      47.744   3.078   5.377  0.00  0.00    +0.000 N 
ATOM     25  C   UNL     1      47.612   2.280   6.479  0.00  0.00    +0.000 C 
ATOM     26  O   UNL     1      48.355   1.325   6.662  0.00  0.00    +0.000 OA
ATOM     27  H   UNL     1      48.520   2.869   4.761  0.00  0.00    +0.000 HD
ATOM     28  H   UNL     1      47.331   3.998   5.307  0.00  0.00    +0.000 HD
ENDBRANCH  18  25
ENDBRANCH  17  21
ENDBRANCH   1  17
TORSDOF 5
ENDMDL
MODEL 4
REMARK VINA RESULT:    -7.468      3.546      7.342
REMARK INTER + INTRA:         -10.535
REMARK INTER:                  -9.715
REMARK INTRA:                  -0.821
REMARK UNBOUND:                -0.884
REMARK  Name = 
REMARK  5 active torsions:
REMARK  status: ('A' for Active; 'I' for Inactive)
REMARK    1  A    between atoms: C_2  and  C_4
REMARK    2  A    between atoms: C_7  and  O_8
REMARK    3  A    between atoms: O_8  and  C_9
REMARK    4  A    between atoms: C_9  and  C_10
REMARK    5  A    between atoms: C_15  and  C_16
REMARK                            x       y       z     vdW  Elec       q    Type
REMARK                         _______ _______ _______ _____ _____    ______ ____
ROOT
ATOM      1  C   UNL     1      45.399   5.746  11.743  0.00  0.00    +0.000 C 
ATOM      2  C   UNL     1      44.793   7.050  11.241  0.00  0.00    +0.000 C 
ATOM      3  C   UNL     1      44.309   6.455  12.522  0.00  0.00    +0.000 C 
ENDROOT
BRANCH   1   4
ATOM      4  C   UNL     1      45.082   4.455  11.002  0.00  0.00    +0.000 A 
ATOM      5  C   UNL     1      44.062   3.595  11.427  0.00  0.00    +0.000 A 
ATOM      6  C   UNL     1      43.744   2.449  10.696  0.00  0.00    +0.000 A 
ATOM      7  C   UNL     1      44.441   2.149   9.526  0.00  0.00    +0.000 A 
ATOM      8  F   UNL     1      44.060   1.054   8.849  0.00  0.00    +0.000 F 
ATOM      9  C   UNL     1      45.481   2.958   9.051  0.00  0.00    +0.000 A 
ATOM     10  C   UNL     1      45.775   4.104   9.823  0.00  0.00    +0.000 A 
BRANCH   9  11
ATOM     11  C   UNL     1      46.238   2.666   7.809  0.00  0.00    +0.000 A 
ATOM     12  C   UNL     1      46.225   3.538   6.705  0.00  0.00    +0.000 A 
ATOM     13  C   UNL     1      46.963   3.257   5.555  0.00  0.00    +0.000 A 
ATOM     14  C   UNL     1      47.701   2.089   5.517  0.00  0.00    +0.000 A 
ATOM     15  N   UNL     1      47.751   1.214   6.539  0.00  0.00    +0.000 NA
ATOM     16  C   UNL     1      47.025   1.522   7.647  0.00  0.00    +0.000 A 
ENDBRANCH   9  11
ENDBRANCH   1   4
BRANCH   1  17
ATOM     17  O   UNL     1      46.775   5.959  12.137  0.00  0.00    +0.000 OA
BRANCH  17  21
ATOM     18  C   UNL     1      47.957   4.963  15.949  0.00  0.00    +0.000 A 
ATOM     19  C   UNL     1      48.352   6.175  15.388  0.00  0.00    +0.000 A 
ATOM     20  C   UNL     1      47.942   6.481  14.094  0.00  0.00    +0.000 A 
ATOM     21  C   UNL     1      47.151   5.563  13.406  0.00  0.00    +0.000 A 
ATOM     22  N   UNL     1      46.750   4.383  13.919  0.00  0.00    +0.000 NA
ATOM     23  C   UNL     1      47.180   4.101  15.175  0.00  0.00    +0.000 A 
BRANCH  18  25
ATOM     24  N   UNL     1      47.360   4.414  18.246  0.00  0.00    +0.000 N 
ATOM     25  C   UNL     1      48.351   4.546  17.313  0.00  0.00    +0.000 C 
ATOM     26  O   UNL     1      49.517   4.295  17.589  0.00  0.00    +0.000 OA
ATOM     27  H   UNL     1      47.638   4.045  19.147  0.00  0.00    +0.000 HD
ATOM     28  H   UNL     1      46.378   4.369  18.009  0.00  0.00    +0.000 HD
ENDBRANCH  18  25
ENDBRANCH  17  21
ENDBRANCH   1  17
TORSDOF 5
ENDMDL
MODEL 5
REMARK VINA RESULT:    -7.220      3.611      7.231
REMARK INTER + INTRA:         -10.214
REMARK INTER:                  -9.498
REMARK INTRA:                  -0.716
REMARK UNBOUND:                -0.884
REMARK  Name = 
REMARK  5 active torsions:
REMARK  status: ('A' for Active; 'I' for Inactive)
REMARK    1  A    between atoms: C_2  and  C_4
REMARK    2  A    between atoms: C_7  and  O_8
REMARK    3  A    between atoms: O_8  and  C_9
REMARK    4  A    between atoms: C_9  and  C_10
REMARK    5  A    between atoms: C_15  and  C_16
REMARK                            x       y       z     vdW  Elec       q    Type
REMARK                         _______ _______ _______ _____ _____    ______ ____
ROOT
ATOM      1  C   UNL     1      47.021   7.493  12.943  0.00  0.00    +0.000 C 
ATOM      2  C   UNL     1      47.418   8.764  12.203  0.00  0.00    +0.000 C 
ATOM      3  C   UNL     1      46.664   8.862  13.488  0.00  0.00    +0.000 C 
ENDROOT
BRANCH   1   4
ATOM      4  C   UNL     1      45.933   6.608  12.352  0.00  0.00    +0.000 A 
ATOM      5  C   UNL     1      44.631   6.598  12.867  0.00  0.00    +0.000 A 
ATOM      6  C   UNL     1      43.633   5.828  12.269  0.00  0.00    +0.000 A 
ATOM      7  C   UNL     1      43.922   5.057  11.144  0.00  0.00    +0.000 A 
ATOM      8  F   UNL     1      42.909   4.369  10.593  0.00  0.00    +0.000 F 
ATOM      9  C   UNL     1      45.206   5.008  10.585  0.00  0.00    +0.000 A 
ATOM     10  C   UNL     1      46.188   5.797  11.224  0.00  0.00    +0.000 A 
BRANCH   9  11
ATOM     11  C   UNL     1      45.543   4.200   9.387  0.00  0.00    +0.000 A 
ATOM     12  C   UNL     1      45.362   2.806   9.354  0.00  0.00    +0.000 A 
ATOM     13  C   UNL     1      45.662   2.066   8.210  0.00  0.00    +0.000 A 
ATOM     14  C   UNL     1      46.157   2.735   7.107  0.00  0.00    +0.000 A 
ATOM     15  N   UNL     1      46.355   4.066   7.078  0.00  0.00    +0.000 NA
ATOM     16  C   UNL     1      46.046   4.757   8.208  0.00  0.00    +0.000 A 
ENDBRANCH   9  11
ENDBRANCH   1   4
BRANCH   1  17
ATOM     17  O   UNL     1      48.199   6.833  13.460  0.00  0.00    +0.000 OA
BRANCH  17  21
ATOM     18  C   UNL     1      47.754   4.268  16.646  0.00  0.00    +0.000 A 
ATOM     19  C   UNL     1      48.405   5.487  16.815  0.00  0.00    +0.000 A 
ATOM     20  C   UNL     1      48.546   6.331  15.717  0.00  0.00    +0.000 A 
ATOM     21  C   UNL     1      48.031   5.925  14.488  0.00  0.00    +0.000 A 
ATOM     22  N   UNL     1      47.394   4.753  14.290  0.00  0.00    +0.000 NA
ATOM     23  C   UNL     1      47.287   3.941  15.372  0.00  0.00    +0.000 A 
BRANCH  18  25
ATOM     24  N   UNL     1      48.421   3.379  18.814  0.00  0.00    +0.000 N 
ATOM     25  C   UNL     1      47.564   3.302  17.751  0.00  0.00    +0.000 C 
ATOM     26  O   UNL     1      46.653   2.485  17.731  0.00  0.00    +0.000 OA
ATOM     27  H   UNL     1      48.221   2.769  19.597  0.00  0.00    +0.000 HD
ATOM     28  H   UNL     1      49.017   4.177  18.987  0.00  0.00    +0.000 HD
ENDBRANCH  18  25
ENDBRANCH  17  21
ENDBRANCH   1  17
TORSDOF 5
ENDMDL
MODEL 6
REMARK VINA RESULT:    -7.151      3.802      7.688
REMARK INTER + INTRA:         -10.125
REMARK INTER:                  -9.104
REMARK INTRA:                  -1.022
REMARK UNBOUND:                -0.884
REMARK  Name = 
REMARK  5 active torsions:
REMARK  status: ('A' for Active; 'I' for Inactive)
REMARK    1  A    between atoms: C_2  and  C_4
REMARK    2  A    between atoms: C_7  and  O_8
REMARK    3  A    between atoms: O_8  and  C_9
REMARK    4  A    between atoms: C_9  and  C_10
REMARK    5  A    between atoms: C_15  and  C_16
REMARK                            x       y       z     vdW  Elec       q    Type
REMARK                         _______ _______ _______ _____ _____    ______ ____
ROOT
ATOM      1  C   UNL     1      48.335   7.760  12.639  0.00  0.00    +0.000 C 
ATOM      2  C   UNL     1      49.189   8.555  11.660  0.00  0.00    +0.000 C 
ATOM      3  C   UNL     1      48.728   9.196  12.927  0.00  0.00    +0.000 C 
ENDROOT
BRANCH   1   4
ATOM      4  C   UNL     1      46.898   7.432  12.261  0.00  0.00    +0.000 A 
ATOM      5  C   UNL     1      45.834   8.271  12.613  0.00  0.00    +0.000 A 
ATOM      6  C   UNL     1      44.532   7.985  12.201  0.00  0.00    +0.000 A 
ATOM      7  C   UNL     1      44.275   6.854  11.425  0.00  0.00    +0.000 A 
ATOM      8  F   UNL     1      43.009   6.656  11.028  0.00  0.00    +0.000 F 
ATOM      9  C   UNL     1      45.290   5.964  11.048  0.00  0.00    +0.000 A 
ATOM     10  C   UNL     1      46.591   6.287  11.492  0.00  0.00    +0.000 A 
BRANCH   9  11
ATOM     11  C   UNL     1      45.048   4.756  10.222  0.00  0.00    +0.000 A 
ATOM     12  C   UNL     1      45.506   4.655   8.896  0.00  0.00    +0.000 A 
ATOM     13  C   UNL     1      45.290   3.501   8.143  0.00  0.00    +0.000 A 
ATOM     14  C   UNL     1      44.599   2.456   8.728  0.00  0.00    +0.000 A 
ATOM     15  N   UNL     1      44.134   2.493   9.990  0.00  0.00    +0.000 NA
ATOM     16  C   UNL     1      44.367   3.631  10.698  0.00  0.00    +0.000 A 
ENDBRANCH   9  11
ENDBRANCH   1   4
BRANCH   1  17
ATOM     17  O   UNL     1      49.119   6.699  13.233  0.00  0.00    +0.000 OA
BRANCH  17  21
ATOM     18  C   UNL     1      48.102   5.534  17.045  0.00  0.00    +0.000 A 
ATOM     19  C   UNL     1      48.935   6.633  16.848  0.00  0.00    +0.000 A 
ATOM     20  C   UNL     1      49.267   6.999  15.547  0.00  0.00    +0.000 A 
ATOM     21  C   UNL     1      48.753   6.253  14.488  0.00  0.00    +0.000 A 
ATOM     22  N   UNL     1      47.944   5.186  14.643  0.00  0.00    +0.000 NA
ATOM     23  C   UNL     1      47.652   4.839  15.922  0.00  0.00    +0.000 A 
BRANCH  18  25
ATOM     24  N   UNL     1      46.535   5.553  18.911  0.00  0.00    +0.000 N 
ATOM     25  C   UNL     1      47.702   5.064  18.390  0.00  0.00    +0.000 C 
ATOM     26  O   UNL     1      48.372   4.242  19.001  0.00  0.00    +0.000 OA
ATOM     27  H   UNL     1      46.235   5.154  19.792  0.00  0.00    +0.000 HD
ATOM     28  H   UNL     1      45.838   6.030  18.356  0.00  0.00    +0.000 HD
ENDBRANCH  18  25
ENDBRANCH  17  21
ENDBRANCH   1  17
TORSDOF 5
ENDMDL
MODEL 7
REMARK VINA RESULT:    -6.608      3.530      5.951
REMARK INTER + INTRA:          -9.423
REMARK INTER:                  -8.580
REMARK INTRA:                  -0.843
REMARK UNBOUND:                -0.884
REMARK  Name = 
REMARK  5 active torsions:
REMARK  status: ('A' for Active; 'I' for Inactive)
REMARK    1  A    between atoms: C_2  and  C_4
REMARK    2  A    between atoms: C_7  and  O_8
REMARK    3  A    between atoms: O_8  and  C_9
REMARK    4  A    between atoms: C_9  and  C_10
REMARK    5  A    between atoms: C_15  and  C_16
REMARK                            x       y       z     vdW  Elec       q    Type
REMARK                         _______ _______ _______ _____ _____    ______ ____
ROOT
ATOM      1  C   UNL     1      47.963   8.119  12.598  0.00  0.00    +0.000 C 
ATOM      2  C   UNL     1      48.760   9.101  11.750  0.00  0.00    +0.000 C 
ATOM      3  C   UNL     1      48.988   7.634  11.592  0.00  0.00    +0.000 C 
ENDROOT
BRANCH   1   4
ATOM      4  C   UNL     1      48.261   8.023  14.087  0.00  0.00    +0.000 A 
ATOM      5  C   UNL     1      48.251   9.153  14.914  0.00  0.00    +0.000 A 
ATOM      6  C   UNL     1      48.462   9.035  16.288  0.00  0.00    +0.000 A 
ATOM      7  C   UNL     1      48.685   7.781  16.858  0.00  0.00    +0.000 A 
ATOM      8  F   UNL     1      48.843   7.730  18.189  0.00  0.00    +0.000 F 
ATOM      9  C   UNL     1      48.722   6.611  16.088  0.00  0.00    +0.000 A 
ATOM     10  C   UNL     1      48.509   6.776  14.701  0.00  0.00    +0.000 A 
BRANCH   9  11
ATOM     11  C   UNL     1      48.954   5.263  16.665  0.00  0.00    +0.000 A 
ATOM     12  C   UNL     1      47.966   4.262  16.640  0.00  0.00    +0.000 A 
ATOM     13  C   UNL     1      48.211   2.993  17.166  0.00  0.00    +0.000 A 
ATOM     14  C   UNL     1      49.449   2.744  17.729  0.00  0.00    +0.000 A 
ATOM     15  N   UNL     1      50.433   3.661  17.785  0.00  0.00    +0.000 NA
ATOM     16  C   UNL     1      50.162   4.885  17.257  0.00  0.00    +0.000 A 
ENDBRANCH   9  11
ENDBRANCH   1   4
BRANCH   1  17
ATOM     17  O   UNL     1      46.571   8.142  12.205  0.00  0.00    +0.000 OA
BRANCH  17  21
ATOM     18  C   UNL     1      44.730   4.520  11.560  0.00  0.00    +0.000 A 
ATOM     19  C   UNL     1      45.349   5.188  10.506  0.00  0.00    +0.000 A 
ATOM     20  C   UNL     1      45.958   6.414  10.754  0.00  0.00    +0.000 A 
ATOM     21  C   UNL     1      45.925   6.930  12.048  0.00  0.00    +0.000 A 
ATOM     22  N   UNL     1      45.337   6.310  13.090  0.00  0.00    +0.000 NA
ATOM     23  C   UNL     1      44.734   5.125  12.817  0.00  0.00    +0.000 A 
BRANCH  18  25
ATOM     24  N   UNL     1      43.774   2.495  12.520  0.00  0.00    +0.000 N 
ATOM     25  C   UNL     1      44.049   3.216  11.391  0.00  0.00    +0.000 C 
ATOM     26  O   UNL     1      43.713   2.813  10.286  0.00  0.00    +0.000 OA
ATOM     27  H   UNL     1      43.232   1.650  12.392  0.00  0.00    +0.000 HD
ATOM     28  H   UNL     1      43.807   2.889  13.451  0.00  0.00    +0.000 HD
ENDBRANCH  18  25
ENDBRANCH  17  21
ENDBRANCH   1  17
TORSDOF 5
ENDMDL
MODEL 8
REMARK VINA RESULT:    -6.289      3.380      7.213
REMARK INTER + INTRA:          -9.011
REMARK INTER:                  -8.365
REMARK INTRA:                  -0.646
REMARK UNBOUND:                -0.884
REMARK  Name = 
REMARK  5 active torsions:
REMARK  status: ('A' for Active; 'I' for Inactive)
REMARK    1  A    between atoms: C_2  and  C_4
REMARK    2  A    between atoms: C_7  and  O_8
REMARK    3  A    between atoms: O_8  and  C_9
REMARK    4  A    between atoms: C_9  and  C_10
REMARK    5  A    between atoms: C_15  and  C_16
REMARK                            x       y       z     vdW  Elec       q    Type
REMARK                         _______ _______ _______ _____ _____    ______ ____
ROOT
ATOM      1  C   UNL     1      45.515   7.731  11.785  0.00  0.00    +0.000 C 
ATOM      2  C   UNL     1      44.903   8.922  11.060  0.00  0.00    +0.000 C 
ATOM      3  C   UNL     1      44.692   8.764  12.529  0.00  0.00    +0.000 C 
ENDROOT
BRANCH   1   4
ATOM      4  C   UNL     1      44.941   6.344  11.536  0.00  0.00    +0.000 A 
ATOM      5  C   UNL     1      43.851   5.856  12.267  0.00  0.00    +0.000 A 
ATOM      6  C   UNL     1      43.299   4.608  11.978  0.00  0.00    +0.000 A 
ATOM      7  C   UNL     1      43.828   3.828  10.949  0.00  0.00    +0.000 A 
ATOM      8  F   UNL     1      43.228   2.655  10.696  0.00  0.00    +0.000 F 
ATOM      9  C   UNL     1      44.926   4.249  10.187  0.00  0.00    +0.000 A 
ATOM     10  C   UNL     1      45.459   5.515  10.516  0.00  0.00    +0.000 A 
BRANCH   9  11
ATOM     11  C   UNL     1      45.509   3.444   9.085  0.00  0.00    +0.000 A 
ATOM     12  C   UNL     1      45.995   4.036   7.906  0.00  0.00    +0.000 A 
ATOM     13  C   UNL     1      46.562   3.264   6.891  0.00  0.00    +0.000 A 
ATOM     14  C   UNL     1      46.623   1.894   7.065  0.00  0.00    +0.000 A 
ATOM     15  N   UNL     1      46.173   1.269   8.169  0.00  0.00    +0.000 NA
ATOM     16  C   UNL     1      45.632   2.052   9.141  0.00  0.00    +0.000 A 
ENDBRANCH   9  11
ENDBRANCH   1   4
BRANCH   1  17
ATOM     17  O   UNL     1      46.956   7.853  11.809  0.00  0.00    +0.000 OA
BRANCH  17  21
ATOM     18  C   UNL     1      48.981   6.928  15.268  0.00  0.00    +0.000 A 
ATOM     19  C   UNL     1      49.188   8.155  14.643  0.00  0.00    +0.000 A 
ATOM     20  C   UNL     1      48.493   8.437  13.471  0.00  0.00    +0.000 A 
ATOM     21  C   UNL     1      47.617   7.480  12.964  0.00  0.00    +0.000 A 
ATOM     22  N   UNL     1      47.392   6.284  13.543  0.00  0.00    +0.000 NA
ATOM     23  C   UNL     1      48.096   6.027  14.674  0.00  0.00    +0.000 A 
BRANCH  18  25
ATOM     24  N   UNL     1      49.669   7.422  17.552  0.00  0.00    +0.000 N 
ATOM     25  C   UNL     1      49.681   6.535  16.512  0.00  0.00    +0.000 C 
ATOM     26  O   UNL     1      50.221   5.442  16.618  0.00  0.00    +0.000 OA
ATOM     27  H   UNL     1      50.076   7.100  18.421  0.00  0.00    +0.000 HD
ATOM     28  H   UNL     1      49.040   8.212  17.599  0.00  0.00    +0.000 HD
ENDBRANCH  18  25
ENDBRANCH  17  21
ENDBRANCH   1  17
TORSDOF 5
ENDMDL
MODEL 9
REMARK VINA RESULT:    -6.063      3.615      6.227
REMARK INTER + INTRA:          -8.719
REMARK INTER:                  -7.890
REMARK INTRA:                  -0.830
REMARK UNBOUND:                -0.884
REMARK  Name = 
REMARK  5 active torsions:
REMARK  status: ('A' for Active; 'I' for Inactive)
REMARK    1  A    between atoms: C_2  and  C_4
REMARK    2  A    between atoms: C_7  and  O_8
REMARK    3  A    between atoms: O_8  and  C_9
REMARK    4  A    between atoms: C_9  and  C_10
REMARK    5  A    between atoms: C_15  and  C_16
REMARK                            x       y       z     vdW  Elec       q    Type
REMARK                         _______ _______ _______ _____ _____    ______ ____
ROOT
ATOM      1  C   UNL     1      48.879   7.440  13.214  0.00  0.00    +0.000 C 
ATOM      2  C   UNL     1      49.167   7.586  14.702  0.00  0.00    +0.000 C 
ATOM      3  C   UNL     1      47.986   8.278  14.107  0.00  0.00    +0.000 C 
ENDROOT
BRANCH   1   4
ATOM      4  C   UNL     1      49.803   8.122  12.216  0.00  0.00    +0.000 A 
ATOM      5  C   UNL     1      49.865   9.516  12.103  0.00  0.00    +0.000 A 
ATOM      6  C   UNL     1      50.766  10.123  11.228  0.00  0.00    +0.000 A 
ATOM      7  C   UNL     1      51.624   9.342  10.453  0.00  0.00    +0.000 A 
ATOM      8  F   UNL     1      52.494   9.986   9.660  0.00  0.00    +0.000 F 
ATOM      9  C   UNL     1      51.607   7.942  10.506  0.00  0.00    +0.000 A 
ATOM     10  C   UNL     1      50.675   7.368  11.400  0.00  0.00    +0.000 A 
BRANCH   9  11
ATOM     11  C   UNL     1      52.509   7.085   9.697  0.00  0.00    +0.000 A 
ATOM     12  C   UNL     1      52.349   6.939   8.307  0.00  0.00    +0.000 A 
ATOM     13  C   UNL     1      53.223   6.148   7.560  0.00  0.00    +0.000 A 
ATOM     14  C   UNL     1      54.246   5.496   8.220  0.00  0.00    +0.000 A 
ATOM     15  N   UNL     1      54.449   5.594   9.548  0.00  0.00    +0.000 NA
ATOM     16  C   UNL     1      53.583   6.378  10.245  0.00  0.00    +0.000 A 
ENDBRANCH   9  11
ENDBRANCH   1   4
BRANCH   1  17
ATOM     17  O   UNL     1      48.477   6.082  12.918  0.00  0.00    +0.000 OA
BRANCH  17  21
ATOM     18  C   UNL     1      44.525   5.346  12.045  0.00  0.00    +0.000 A 
ATOM     19  C   UNL     1      45.114   4.765  13.165  0.00  0.00    +0.000 A 
ATOM     20  C   UNL     1      46.454   5.028  13.431  0.00  0.00    +0.000 A 
ATOM     21  C   UNL     1      47.159   5.862  12.566  0.00  0.00    +0.000 A 
ATOM     22  N   UNL     1      46.620   6.442  11.475  0.00  0.00    +0.000 NA
ATOM     23  C   UNL     1      45.317   6.154  11.228  0.00  0.00    +0.000 A 
BRANCH  18  25
ATOM     24  N   UNL     1      42.258   6.187  11.741  0.00  0.00    +0.000 N 
ATOM     25  C   UNL     1      43.109   5.119  11.675  0.00  0.00    +0.000 C 
ATOM     26  O   UNL     1      42.721   4.024  11.292  0.00  0.00    +0.000 OA
ATOM     27  H   UNL     1      41.317   6.033  11.402  0.00  0.00    +0.000 HD
ATOM     28  H   UNL     1      42.576   7.145  11.810  0.00  0.00    +0.000 HD
ENDBRANCH  18  25
ENDBRANCH  17  21
ENDBRANCH   1  17
TORSDOF 5
ENDMDL
