MODEL 1
REMARK VINA RESULT:    -8.328      0.000      0.000
REMARK INTER + INTRA:         -12.693
REMARK INTER:                 -11.737
REMARK INTRA:                  -0.956
REMARK UNBOUND:                -0.956
REMARK  Name = 
REMARK  7 active torsions:
REMARK  status: ('A' for Active; 'I' for Inactive)
REMARK    1  A    between atoms: C_2  and  C_4
REMARK    2  A    between atoms: C_8  and  C_9
REMARK    3  A    between atoms: C_9  and  O_10
REMARK    4  A    between atoms: O_10  and  C_11
REMARK    5  A    between atoms: C_14  and  C_15
REMARK    6  A    between atoms: C_15  and  N_16
REMARK    7  A    between atoms: C_17  and  C_19
REMARK                            x       y       z     vdW  Elec       q    Type
REMARK                         _______ _______ _______ _____ _____    ______ ____
ROOT
ATOM      1  C   UNL     1      45.097   5.003  11.536  0.00  0.00    +0.000 A 
ATOM      2  C   UNL     1      45.704   6.140  11.012  0.00  0.00    +0.000 A 
ATOM      3  C   UNL     1      46.777   6.722  11.685  0.00  0.00    +0.000 A 
ATOM      4  C   UNL     1      47.195   6.163  12.890  0.00  0.00    +0.000 A 
ATOM      5  N   UNL     1      46.600   5.069  13.432  0.00  0.00    +0.000 NA
ATOM      6  C   UNL     1      45.568   4.524  12.751  0.00  0.00    +0.000 A 
ENDROOT
BRANCH   1   7
ATOM      7  O   UNL     1      44.083   4.463  10.801  0.00  0.00    +0.000 OA
BRANCH   7   8
ATOM      8  C   UNL     1      44.183   4.661   9.389  0.00  0.00    +0.000 C 
BRANCH   8  13
ATOM      9  C   UNL     1      46.499   2.552   7.207  0.00  0.00    +0.000 A 
ATOM     10  C   UNL     1      46.288   1.277   7.743  0.00  0.00    +0.000 A 
ATOM     11  C   UNL     1      45.377   1.098   8.784  0.00  0.00    +0.000 A 
ATOM     12  C   UNL     1      44.690   2.194   9.302  0.00  0.00    +0.000 A 
ATOM     13  C   UNL     1      44.916   3.484   8.798  0.00  0.00    +0.000 A 
ATOM     14  C   UNL     1      45.818   3.654   7.740  0.00  0.00    +0.000 A 
BRANCH   9  16
ATOM     15  N   UNL     1      48.780   2.529   6.346  0.00  0.00    +0.000 N 
ATOM     16  C   UNL     1      47.461   2.784   6.096  0.00  0.00    +0.000 C 
ATOM     17  O   UNL     1      47.091   3.154   4.990  0.00  0.00    +0.000 OA
ATOM     18  H   UNL     1      49.408   2.603   5.557  0.00  0.00    +0.000 HD
ATOM     19  H   UNL     1      49.088   1.993   7.143  0.00  0.00    +0.000 HD
ENDBRANCH   9  16
ENDBRANCH   8  13
ENDBRANCH   7   8
ENDBRANCH   1   7
BRANCH   4  20
ATOM     20  C   UNL     1      48.365   6.741  13.643  0.00  0.00    +0.000 C 
BRANCH  20  21
ATOM     21  N   UNL     1      48.137   6.762  15.071  0.00  0.00    +0.000 N 
ATOM     22  C   UNL     1      49.153   6.656  15.979  0.00  0.00    +0.000 C 
ATOM     23  O   UNL     1      50.322   6.508  15.634  0.00  0.00    +0.000 OA
ATOM     24  H   UNL     1      47.171   6.644  15.367  0.00  0.00    +0.000 HD
BRANCH  22  25
ATOM     25  C   UNL     1      48.786   6.813  17.393  0.00  0.00    +0.000 A 
ATOM     26  C   UNL     1      48.333   8.045  17.848  0.00  0.00    +0.000 A 
ATOM     27  S   UNL     1      47.889   8.045  19.493  0.00  0.00    +0.000 S 
ATOM     28  C   UNL     1      48.330   6.412  19.670  0.00  0.00    +0.000 A 
ATOM     29  N   UNL     1      48.214   5.786  20.871  0.00  0.00    +0.000 NA
ATOM     30  C   UNL     1      48.613   4.556  20.871  0.00  0.00    +0.000 A 
ATOM     31  N   UNL     1      49.111   3.899  19.778  0.00  0.00    +0.000 N 
ATOM     32  C   UNL     1      49.203   4.478  18.535  0.00  0.00    +0.000 A 
ATOM     33  O   UNL     1      49.584   3.837  17.561  0.00  0.00    +0.000 OA
ATOM     34  C   UNL     1      48.791   5.867  18.484  0.00  0.00    +0.000 A 
ATOM     35  H   UNL     1      49.395   2.932  19.839  0.00  0.00    +0.000 HD
ENDBRANCH  22  25
ENDBRANCH  20  21
ENDBRANCH   4  20
TORSDOF 7
ENDMDL
MODEL 2
REMARK VINA RESULT:    -8.219      2.476      3.051
REMARK INTER + INTRA:         -12.538
REMARK INTER:                 -11.802
REMARK INTRA:                  -0.736
REMARK UNBOUND:                -0.956
REMARK  Name = 
REMARK  7 active torsions:
REMARK  status: ('A' for Active; 'I' for Inactive)
REMARK    1  A    between atoms: C_2  and  C_4
REMARK    2  A    between atoms: C_8  and  C_9
REMARK    3  A    between atoms: C_9  and  O_10
REMARK    4  A    between atoms: O_10  and  C_11
REMARK    5  A    between atoms: C_14  and  C_15
REMARK    6  A    between atoms: C_15  and  N_16
REMARK    7  A    between atoms: C_17  and  C_19
REMARK                            x       y       z     vdW  Elec       q    Type
REMARK                         _______ _______ _______ _____ _____    ______ ____
ROOT
ATOM      1  C   UNL     1      46.171   5.451  11.717  0.00  0.00    +0.000 A 
ATOM      2  C   UNL     1      47.206   6.056  12.423  0.00  0.00    +0.000 A 
ATOM      3  C   UNL     1      47.423   5.715  13.757  0.00  0.00    +0.000 A 
ATOM      4  C   UNL     1      46.570   4.794  14.361  0.00  0.00    +0.000 A 
ATOM      5  N   UNL     1      45.538   4.212  13.698  0.00  0.00    +0.000 NA
ATOM      6  C   UNL     1      45.360   4.557  12.404  0.00  0.00    +0.000 A 
ENDROOT
BRANCH   1   7
ATOM      7  O   UNL     1      46.046   5.800  10.405  0.00  0.00    +0.000 OA
BRANCH   7   8
ATOM      8  C   UNL     1      44.875   5.303   9.753  0.00  0.00    +0.000 C 
BRANCH   8  13
ATOM      9  C   UNL     1      46.465   2.568   7.616  0.00  0.00    +0.000 A 
ATOM     10  C   UNL     1      45.806   1.432   8.098  0.00  0.00    +0.000 A 
ATOM     11  C   UNL     1      44.830   1.557   9.087  0.00  0.00    +0.000 A 
ATOM     12  C   UNL     1      44.524   2.812   9.608  0.00  0.00    +0.000 A 
ATOM     13  C   UNL     1      45.200   3.956   9.159  0.00  0.00    +0.000 A 
ATOM     14  C   UNL     1      46.166   3.827   8.153  0.00  0.00    +0.000 A 
BRANCH   9  16
ATOM     15  N   UNL     1      47.371   3.291   5.471  0.00  0.00    +0.000 N 
ATOM     16  C   UNL     1      47.511   2.478   6.562  0.00  0.00    +0.000 C 
ATOM     17  O   UNL     1      48.478   1.738   6.674  0.00  0.00    +0.000 OA
ATOM     18  H   UNL     1      48.134   3.286   4.809  0.00  0.00    +0.000 HD
ATOM     19  H   UNL     1      46.742   4.080   5.459  0.00  0.00    +0.000 HD
ENDBRANCH   9  16
ENDBRANCH   8  13
ENDBRANCH   7   8
ENDBRANCH   1   7
BRANCH   4  20
ATOM     20  C   UNL     1      46.778   4.376  15.793  0.00  0.00    +0.000 C 
BRANCH  20  21
ATOM     21  N   UNL     1      48.180   4.270  16.131  0.00  0.00    +0.000 N 
ATOM     22  C   UNL     1      48.694   4.763  17.298  0.00  0.00    +0.000 C 
ATOM     23  O   UNL     1      47.997   5.354  18.119  0.00  0.00    +0.000 OA
ATOM     24  H   UNL     1      48.800   4.003  15.371  0.00  0.00    +0.000 HD
BRANCH  22  25
ATOM     25  C   UNL     1      50.111   4.478  17.561  0.00  0.00    +0.000 A 
ATOM     26  C   UNL     1      50.953   5.509  17.957  0.00  0.00    +0.000 A 
ATOM     27  S   UNL     1      52.547   5.004  18.284  0.00  0.00    +0.000 S 
ATOM     28  C   UNL     1      52.184   3.397  17.863  0.00  0.00    +0.000 A 
ATOM     29  N   UNL     1      53.140   2.432  17.905  0.00  0.00    +0.000 NA
ATOM     30  C   UNL     1      52.735   1.263  17.532  0.00  0.00    +0.000 A 
ATOM     31  N   UNL     1      51.461   0.974  17.124  0.00  0.00    +0.000 N 
ATOM     32  C   UNL     1      50.451   1.907  17.109  0.00  0.00    +0.000 A 
ATOM     33  O   UNL     1      49.302   1.596  16.810  0.00  0.00    +0.000 OA
ATOM     34  C   UNL     1      50.858   3.243  17.497  0.00  0.00    +0.000 A 
ATOM     35  H   UNL     1      51.202   0.036  16.855  0.00  0.00    +0.000 HD
ENDBRANCH  22  25
ENDBRANCH  20  21
ENDBRANCH   4  20
TORSDOF 7
ENDMDL
MODEL 3
REMARK VINA RESULT:    -8.166      1.285      1.971
REMARK INTER + INTRA:         -12.464
REMARK INTER:                 -11.349
REMARK INTRA:                  -1.114
REMARK UNBOUND:                -0.956
REMARK  Name = 
REMARK  7 active torsions:
REMARK  status: ('A' for Active; 'I' for Inactive)
REMARK    1  A    between atoms: C_2  and  C_4
REMARK    2  A    between atoms: C_8  and  C_9
REMARK    3  A    between atoms: C_9  and  O_10
REMARK    4  A    between atoms: O_10  and  C_11
REMARK    5  A    between atoms: C_14  and  C_15
REMARK    6  A    between atoms: C_15  and  N_16
REMARK    7  A    between atoms: C_17  and  C_19
REMARK                            x       y       z     vdW  Elec       q    Type
REMARK                         _______ _______ _______ _____ _____    ______ ____
ROOT
ATOM      1  C   UNL     1      45.002   5.053  11.581  0.00  0.00    +0.000 A 
ATOM      2  C   UNL     1      45.613   6.191  11.066  0.00  0.00    +0.000 A 
ATOM      3  C   UNL     1      46.612   6.829  11.798  0.00  0.00    +0.000 A 
ATOM      4  C   UNL     1      46.953   6.323  13.050  0.00  0.00    +0.000 A 
ATOM      5  N   UNL     1      46.351   5.229  13.583  0.00  0.00    +0.000 NA
ATOM      6  C   UNL     1      45.391   4.629  12.844  0.00  0.00    +0.000 A 
ENDROOT
BRANCH   1   7
ATOM      7  O   UNL     1      44.063   4.457  10.791  0.00  0.00    +0.000 OA
BRANCH   7   8
ATOM      8  C   UNL     1      44.217   4.685   9.388  0.00  0.00    +0.000 C 
BRANCH   8  13
ATOM      9  C   UNL     1      46.498   2.554   7.189  0.00  0.00    +0.000 A 
ATOM     10  C   UNL     1      46.283   1.282   7.732  0.00  0.00    +0.000 A 
ATOM     11  C   UNL     1      45.381   1.113   8.782  0.00  0.00    +0.000 A 
ATOM     12  C   UNL     1      44.707   2.214   9.304  0.00  0.00    +0.000 A 
ATOM     13  C   UNL     1      44.936   3.501   8.793  0.00  0.00    +0.000 A 
ATOM     14  C   UNL     1      45.829   3.662   7.726  0.00  0.00    +0.000 A 
BRANCH   9  16
ATOM     15  N   UNL     1      48.780   2.617   6.335  0.00  0.00    +0.000 N 
ATOM     16  C   UNL     1      47.449   2.776   6.067  0.00  0.00    +0.000 C 
ATOM     17  O   UNL     1      47.064   3.055   4.941  0.00  0.00    +0.000 OA
ATOM     18  H   UNL     1      49.407   2.681   5.544  0.00  0.00    +0.000 HD
ATOM     19  H   UNL     1      49.115   2.150   7.164  0.00  0.00    +0.000 HD
ENDBRANCH   9  16
ENDBRANCH   8  13
ENDBRANCH   7   8
ENDBRANCH   1   7
BRANCH   4  20
ATOM     20  C   UNL     1      48.043   6.963  13.869  0.00  0.00    +0.000 C 
BRANCH  20  21
ATOM     21  N   UNL     1      47.925   6.645  15.275  0.00  0.00    +0.000 N 
ATOM     22  C   UNL     1      49.012   6.388  16.064  0.00  0.00    +0.000 C 
ATOM     23  O   UNL     1      50.156   6.384  15.617  0.00  0.00    +0.000 OA
ATOM     24  H   UNL     1      46.991   6.412  15.600  0.00  0.00    +0.000 HD
BRANCH  22  25
ATOM     25  C   UNL     1      48.750   6.199  17.497  0.00  0.00    +0.000 A 
ATOM     26  C   UNL     1      49.000   4.962  18.079  0.00  0.00    +0.000 A 
ATOM     27  S   UNL     1      48.706   4.924  19.758  0.00  0.00    +0.000 S 
ATOM     28  C   UNL     1      48.188   6.544  19.760  0.00  0.00    +0.000 A 
ATOM     29  N   UNL     1      47.768   7.138  20.908  0.00  0.00    +0.000 NA
ATOM     30  C   UNL     1      47.374   8.361  20.762  0.00  0.00    +0.000 A 
ATOM     31  N   UNL     1      47.368   9.040  19.572  0.00  0.00    +0.000 N 
ATOM     32  C   UNL     1      47.826   8.494  18.397  0.00  0.00    +0.000 A 
ATOM     33  O   UNL     1      47.876   9.155  17.365  0.00  0.00    +0.000 OA
ATOM     34  C   UNL     1      48.258   7.113  18.501  0.00  0.00    +0.000 A 
ATOM     35  H   UNL     1      47.058  10.000  19.525  0.00  0.00    +0.000 HD
ENDBRANCH  22  25
ENDBRANCH  20  21
ENDBRANCH   4  20
TORSDOF 7
ENDMDL
MODEL 4
REMARK VINA RESULT:    -7.980      2.799      4.443
REMARK INTER + INTRA:         -12.201
REMARK INTER:                 -11.263
REMARK INTRA:                  -0.939
REMARK UNBOUND:                -0.956
REMARK  Name = 
REMARK  7 active torsions:
REMARK  status: ('A' for Active; 'I' for Inactive)
REMARK    1  A    between atoms: C_2  and  C_4
REMARK    2  A    between atoms: C_8  and  C_9
REMARK    3  A    between atoms: C_9  and  O_10
REMARK    4  A    between atoms: O_10  and  C_11
REMARK    5  A    between atoms: C_14  and  C_15
REMARK    6  A    between atoms: C_15  and  N_16
REMARK    7  A    between atoms: C_17  and  C_19
REMARK                            x       y       z     vdW  Elec       q    Type
REMARK                         _______ _______ _______ _____ _____    ______ ____
ROOT
ATOM      1  C   UNL     1      44.526   4.089  12.132  0.00  0.00    +0.000 A 
ATOM      2  C   UNL     1      44.645   5.402  12.573  0.00  0.00    +0.000 A 
ATOM      3  C   UNL     1      45.624   5.732  13.507  0.00  0.00    +0.000 A 
ATOM      4  C   UNL     1      46.444   4.721  14.004  0.00  0.00    +0.000 A 
ATOM      5  N   UNL     1      46.328   3.427  13.607  0.00  0.00    +0.000 NA
ATOM      6  C   UNL     1      45.373   3.143  12.694  0.00  0.00    +0.000 A 
ENDROOT
BRANCH   1   7
ATOM      7  O   UNL     1      43.575   3.849  11.185  0.00  0.00    +0.000 OA
BRANCH   7   8
ATOM      8  C   UNL     1      43.761   2.651  10.427  0.00  0.00    +0.000 C 
BRANCH   8  13
ATOM      9  C   UNL     1      46.459   2.164   7.770  0.00  0.00    +0.000 A 
ATOM     10  C   UNL     1      46.631   3.477   7.317  0.00  0.00    +0.000 A 
ATOM     11  C   UNL     1      45.901   4.516   7.892  0.00  0.00    +0.000 A 
ATOM     12  C   UNL     1      44.984   4.245   8.905  0.00  0.00    +0.000 A 
ATOM     13  C   UNL     1      44.775   2.930   9.347  0.00  0.00    +0.000 A 
ATOM     14  C   UNL     1      45.526   1.892   8.779  0.00  0.00    +0.000 A 
BRANCH   9  16
ATOM     15  N   UNL     1      46.865  -0.232   7.579  0.00  0.00    +0.000 N 
ATOM     16  C   UNL     1      47.220   1.028   7.185  0.00  0.00    +0.000 C 
ATOM     17  O   UNL     1      48.104   1.201   6.358  0.00  0.00    +0.000 OA
ATOM     18  H   UNL     1      47.327  -0.996   7.105  0.00  0.00    +0.000 HD
ATOM     19  H   UNL     1      45.995  -0.429   8.051  0.00  0.00    +0.000 HD
ENDBRANCH   9  16
ENDBRANCH   8  13
ENDBRANCH   7   8
ENDBRANCH   1   7
BRANCH   4  20
ATOM     20  C   UNL     1      47.533   5.030  14.998  0.00  0.00    +0.000 C 
BRANCH  20  21
ATOM     21  N   UNL     1      47.976   6.403  14.909  0.00  0.00    +0.000 N 
ATOM     22  C   UNL     1      49.176   6.822  15.412  0.00  0.00    +0.000 C 
ATOM     23  O   UNL     1      49.940   6.058  15.997  0.00  0.00    +0.000 OA
ATOM     24  H   UNL     1      47.266   7.082  14.649  0.00  0.00    +0.000 HD
BRANCH  22  25
ATOM     25  C   UNL     1      49.547   8.218  15.144  0.00  0.00    +0.000 A 
ATOM     26  C   UNL     1      49.830   9.066  16.208  0.00  0.00    +0.000 A 
ATOM     27  S   UNL     1      50.304  10.631  15.730  0.00  0.00    +0.000 S 
ATOM     28  C   UNL     1      50.103  10.249  14.085  0.00  0.00    +0.000 A 
ATOM     29  N   UNL     1      50.332  11.179  13.120  0.00  0.00    +0.000 NA
ATOM     30  C   UNL     1      50.113  10.764  11.916  0.00  0.00    +0.000 A 
ATOM     31  N   UNL     1      49.690   9.503  11.592  0.00  0.00    +0.000 N 
ATOM     32  C   UNL     1      49.490   8.518  12.529  0.00  0.00    +0.000 A 
ATOM     33  O   UNL     1      49.184   7.377  12.198  0.00  0.00    +0.000 OA
ATOM     34  C   UNL     1      49.700   8.937  13.901  0.00  0.00    +0.000 A 
ATOM     35  H   UNL     1      49.547   9.235  10.629  0.00  0.00    +0.000 HD
ENDBRANCH  22  25
ENDBRANCH  20  21
ENDBRANCH   4  20
TORSDOF 7
ENDMDL
MODEL 5
REMARK VINA RESULT:    -7.902      3.351      4.858
REMARK INTER + INTRA:         -12.091
REMARK INTER:                 -11.190
REMARK INTRA:                  -0.901
REMARK UNBOUND:                -0.956
REMARK  Name = 
REMARK  7 active torsions:
REMARK  status: ('A' for Active; 'I' for Inactive)
REMARK    1  A    between atoms: C_2  and  C_4
REMARK    2  A    between atoms: C_8  and  C_9
REMARK    3  A    between atoms: C_9  and  O_10
REMARK    4  A    between atoms: O_10  and  C_11
REMARK    5  A    between atoms: C_14  and  C_15
REMARK    6  A    between atoms: C_15  and  N_16
REMARK    7  A    between atoms: C_17  and  C_19
REMARK                            x       y       z     vdW  Elec       q    Type
REMARK                         _______ _______ _______ _____ _____    ______ ____
ROOT
ATOM      1  C   UNL     1      47.519   5.651  13.683  0.00  0.00    +0.000 A 
ATOM      2  C   UNL     1      47.956   6.210  14.879  0.00  0.00    +0.000 A 
ATOM      3  C   UNL     1      48.012   5.424  16.029  0.00  0.00    +0.000 A 
ATOM      4  C   UNL     1      47.594   4.097  15.955  0.00  0.00    +0.000 A 
ATOM      5  N   UNL     1      47.139   3.539  14.804  0.00  0.00    +0.000 NA
ATOM      6  C   UNL     1      47.105   4.326  13.705  0.00  0.00    +0.000 A 
ENDROOT
BRANCH   1   7
ATOM      7  O   UNL     1      47.532   6.467  12.590  0.00  0.00    +0.000 OA
BRANCH   7   8
ATOM      8  C   UNL     1      46.321   7.192  12.359  0.00  0.00    +0.000 C 
BRANCH   8  13
ATOM      9  C   UNL     1      44.721   4.780   9.870  0.00  0.00    +0.000 A 
ATOM     10  C   UNL     1      43.496   4.522  10.493  0.00  0.00    +0.000 A 
ATOM     11  C   UNL     1      43.178   5.152  11.697  0.00  0.00    +0.000 A 
ATOM     12  C   UNL     1      44.090   6.023  12.287  0.00  0.00    +0.000 A 
ATOM     13  C   UNL     1      45.337   6.266  11.692  0.00  0.00    +0.000 A 
ATOM     14  C   UNL     1      45.642   5.645  10.474  0.00  0.00    +0.000 A 
BRANCH   9  16
ATOM     15  N   UNL     1      44.358   3.052   8.188  0.00  0.00    +0.000 N 
ATOM     16  C   UNL     1      45.098   4.130   8.585  0.00  0.00    +0.000 C 
ATOM     17  O   UNL     1      46.007   4.559   7.888  0.00  0.00    +0.000 OA
ATOM     18  H   UNL     1      44.566   2.679   7.272  0.00  0.00    +0.000 HD
ATOM     19  H   UNL     1      43.462   2.828   8.595  0.00  0.00    +0.000 HD
ENDBRANCH   9  16
ENDBRANCH   8  13
ENDBRANCH   7   8
ENDBRANCH   1   7
BRANCH   4  20
ATOM     20  C   UNL     1      47.658   3.201  17.164  0.00  0.00    +0.000 C 
BRANCH  20  21
ATOM     21  N   UNL     1      49.017   2.984  17.609  0.00  0.00    +0.000 N 
ATOM     22  C   UNL     1      49.897   2.193  16.924  0.00  0.00    +0.000 C 
ATOM     23  O   UNL     1      49.575   1.595  15.900  0.00  0.00    +0.000 OA
ATOM     24  H   UNL     1      49.222   3.271  18.562  0.00  0.00    +0.000 HD
BRANCH  22  25
ATOM     25  C   UNL     1      51.276   2.161  17.427  0.00  0.00    +0.000 A 
ATOM     26  C   UNL     1      51.902   0.936  17.626  0.00  0.00    +0.000 A 
ATOM     27  S   UNL     1      53.518   1.070  18.151  0.00  0.00    +0.000 S 
ATOM     28  C   UNL     1      53.426   2.768  18.179  0.00  0.00    +0.000 A 
ATOM     29  N   UNL     1      54.492   3.516  18.568  0.00  0.00    +0.000 NA
ATOM     30  C   UNL     1      54.276   4.791  18.570  0.00  0.00    +0.000 A 
ATOM     31  N   UNL     1      53.093   5.381  18.215  0.00  0.00    +0.000 N 
ATOM     32  C   UNL     1      52.005   4.667  17.772  0.00  0.00    +0.000 A 
ATOM     33  O   UNL     1      50.985   5.232  17.390  0.00  0.00    +0.000 OA
ATOM     34  C   UNL     1      52.186   3.228  17.772  0.00  0.00    +0.000 A 
ATOM     35  H   UNL     1      52.990   6.385  18.227  0.00  0.00    +0.000 HD
ENDBRANCH  22  25
ENDBRANCH  20  21
ENDBRANCH   4  20
TORSDOF 7
ENDMDL
MODEL 6
REMARK VINA RESULT:    -7.667      3.037      9.177
REMARK INTER + INTRA:         -11.760
REMARK INTER:                 -10.275
REMARK INTRA:                  -1.486
REMARK UNBOUND:                -0.956
REMARK  Name = 
REMARK  7 active torsions:
REMARK  status: ('A' for Active; 'I' for Inactive)
REMARK    1  A    between atoms: C_2  and  C_4
REMARK    2  A    between atoms: C_8  and  C_9
REMARK    3  A    between atoms: C_9  and  O_10
REMARK    4  A    between atoms: O_10  and  C_11
REMARK    5  A    between atoms: C_14  and  C_15
REMARK    6  A    between atoms: C_15  and  N_16
REMARK    7  A    between atoms: C_17  and  C_19
REMARK                            x       y       z     vdW  Elec       q    Type
REMARK                         _______ _______ _______ _____ _____    ______ ____
ROOT
ATOM      1  C   UNL     1      49.762   8.459  15.586  0.00  0.00    +0.000 A 
ATOM      2  C   UNL     1      48.532   9.063  15.351  0.00  0.00    +0.000 A 
ATOM      3  C   UNL     1      47.907   8.898  14.116  0.00  0.00    +0.000 A 
ATOM      4  C   UNL     1      48.553   8.153  13.132  0.00  0.00    +0.000 A 
ATOM      5  N   UNL     1      49.766   7.577  13.332  0.00  0.00    +0.000 NA
ATOM      6  C   UNL     1      50.341   7.749  14.543  0.00  0.00    +0.000 A 
ENDROOT
BRANCH   1   7
ATOM      7  O   UNL     1      50.293   8.627  16.831  0.00  0.00    +0.000 OA
BRANCH   7   8
ATOM      8  C   UNL     1      50.619   7.418  17.522  0.00  0.00    +0.000 C 
BRANCH   8  13
ATOM      9  C   UNL     1      47.588   5.107  17.742  0.00  0.00    +0.000 A 
ATOM     10  C   UNL     1      46.962   5.593  18.895  0.00  0.00    +0.000 A 
ATOM     11  C   UNL     1      47.502   6.683  19.578  0.00  0.00    +0.000 A 
ATOM     12  C   UNL     1      48.677   7.276  19.121  0.00  0.00    +0.000 A 
ATOM     13  C   UNL     1      49.335   6.780  17.986  0.00  0.00    +0.000 A 
ATOM     14  C   UNL     1      48.777   5.698  17.294  0.00  0.00    +0.000 A 
BRANCH   9  16
ATOM     15  N   UNL     1      47.033   4.043  15.620  0.00  0.00    +0.000 N 
ATOM     16  C   UNL     1      47.043   3.949  16.983  0.00  0.00    +0.000 C 
ATOM     17  O   UNL     1      46.652   2.937  17.546  0.00  0.00    +0.000 OA
ATOM     18  H   UNL     1      46.746   3.214  15.116  0.00  0.00    +0.000 HD
ATOM     19  H   UNL     1      47.568   4.736  15.119  0.00  0.00    +0.000 HD
ENDBRANCH   9  16
ENDBRANCH   8  13
ENDBRANCH   7   8
ENDBRANCH   1   7
BRANCH   4  20
ATOM     20  C   UNL     1      47.908   7.926  11.790  0.00  0.00    +0.000 C 
BRANCH  20  21
ATOM     21  N   UNL     1      47.138   6.703  11.756  0.00  0.00    +0.000 N 
ATOM     22  C   UNL     1      45.780   6.684  11.917  0.00  0.00    +0.000 C 
ATOM     23  O   UNL     1      45.135   7.708  12.129  0.00  0.00    +0.000 OA
ATOM     24  H   UNL     1      47.672   5.841  11.821  0.00  0.00    +0.000 HD
BRANCH  22  25
ATOM     25  C   UNL     1      45.118   5.386  11.740  0.00  0.00    +0.000 A 
ATOM     26  C   UNL     1      44.447   4.809  12.812  0.00  0.00    +0.000 A 
ATOM     27  S   UNL     1      43.679   3.337  12.428  0.00  0.00    +0.000 S 
ATOM     28  C   UNL     1      44.254   3.391  10.828  0.00  0.00    +0.000 A 
ATOM     29  N   UNL     1      43.966   2.394   9.951  0.00  0.00    +0.000 NA
ATOM     30  C   UNL     1      44.490   2.546   8.779  0.00  0.00    +0.000 A 
ATOM     31  N   UNL     1      45.270   3.608   8.408  0.00  0.00    +0.000 N 
ATOM     32  C   UNL     1      45.549   4.660   9.247  0.00  0.00    +0.000 A 
ATOM     33  O   UNL     1      46.190   5.632   8.858  0.00  0.00    +0.000 OA
ATOM     34  C   UNL     1      45.004   4.528  10.584  0.00  0.00    +0.000 A 
ATOM     35  H   UNL     1      45.642   3.676   7.471  0.00  0.00    +0.000 HD
ENDBRANCH  22  25
ENDBRANCH  20  21
ENDBRANCH   4  20
TORSDOF 7
ENDMDL
MODEL 7
REMARK VINA RESULT:    -7.295      3.865      9.105
REMARK INTER + INTRA:         -11.236
REMARK INTER:                 -10.225
REMARK INTRA:                  -1.011
REMARK UNBOUND:                -0.956
REMARK  Name = 
REMARK  7 active torsions:
REMARK  status: ('A' for Active; 'I' for Inactive)
REMARK    1  A    between atoms: C_2  and  C_4
REMARK    2  A    between atoms: C_8  and  C_9
REMARK    3  A    between atoms: C_9  and  O_10
REMARK    4  A    between atoms: O_10  and  C_11
REMARK    5  A    between atoms: C_14  and  C_15
REMARK    6  A    between atoms: C_15  and  N_16
REMARK    7  A    between atoms: C_17  and  C_19
REMARK                            x       y       z     vdW  Elec       q    Type
REMARK                         _______ _______ _______ _____ _____    ______ ____
ROOT
ATOM      1  C   UNL     1      50.022   7.640  15.689  0.00  0.00    +0.000 A 
ATOM      2  C   UNL     1      50.706   8.382  14.732  0.00  0.00    +0.000 A 
ATOM      3  C   UNL     1      50.141   8.575  13.473  0.00  0.00    +0.000 A 
ATOM      4  C   UNL     1      48.910   7.986  13.194  0.00  0.00    +0.000 A 
ATOM      5  N   UNL     1      48.237   7.237  14.104  0.00  0.00    +0.000 NA
ATOM      6  C   UNL     1      48.808   7.076  15.318  0.00  0.00    +0.000 A 
ENDROOT
BRANCH   1   7
ATOM      7  O   UNL     1      50.615   7.531  16.912  0.00  0.00    +0.000 OA
BRANCH   7   8
ATOM      8  C   UNL     1      49.969   6.638  17.823  0.00  0.00    +0.000 C 
BRANCH   8  13
ATOM      9  C   UNL     1      51.291   3.059  17.686  0.00  0.00    +0.000 A 
ATOM     10  C   UNL     1      52.528   3.204  18.323  0.00  0.00    +0.000 A 
ATOM     11  C   UNL     1      52.916   4.447  18.822  0.00  0.00    +0.000 A 
ATOM     12  C   UNL     1      52.079   5.550  18.669  0.00  0.00    +0.000 A 
ATOM     13  C   UNL     1      50.851   5.428  18.002  0.00  0.00    +0.000 A 
ATOM     14  C   UNL     1      50.458   4.173  17.520  0.00  0.00    +0.000 A 
BRANCH   9  16
ATOM     15  N   UNL     1      51.344   0.621  17.726  0.00  0.00    +0.000 N 
ATOM     16  C   UNL     1      50.839   1.750  17.142  0.00  0.00    +0.000 C 
ATOM     17  O   UNL     1      50.023   1.676  16.234  0.00  0.00    +0.000 OA
ATOM     18  H   UNL     1      50.959  -0.257  17.408  0.00  0.00    +0.000 HD
ATOM     19  H   UNL     1      51.810   0.635  18.621  0.00  0.00    +0.000 HD
ENDBRANCH   9  16
ENDBRANCH   8  13
ENDBRANCH   7   8
ENDBRANCH   1   7
BRANCH   4  20
ATOM     20  C   UNL     1      48.246   8.185  11.856  0.00  0.00    +0.000 C 
BRANCH  20  21
ATOM     21  N   UNL     1      47.526   7.007  11.426  0.00  0.00    +0.000 N 
ATOM     22  C   UNL     1      46.162   6.972  11.335  0.00  0.00    +0.000 C 
ATOM     23  O   UNL     1      45.464   7.935  11.642  0.00  0.00    +0.000 OA
ATOM     24  H   UNL     1      48.062   6.144  11.401  0.00  0.00    +0.000 HD
BRANCH  22  25
ATOM     25  C   UNL     1      45.575   5.750  10.770  0.00  0.00    +0.000 A 
ATOM     26  C   UNL     1      45.750   5.468   9.421  0.00  0.00    +0.000 A 
ATOM     27  S   UNL     1      45.064   3.985   8.937  0.00  0.00    +0.000 S 
ATOM     28  C   UNL     1      44.466   3.687  10.501  0.00  0.00    +0.000 A 
ATOM     29  N   UNL     1      43.748   2.565  10.770  0.00  0.00    +0.000 NA
ATOM     30  C   UNL     1      43.330   2.479  11.990  0.00  0.00    +0.000 A 
ATOM     31  N   UNL     1      43.570   3.413  12.963  0.00  0.00    +0.000 N 
ATOM     32  C   UNL     1      44.329   4.538  12.748  0.00  0.00    +0.000 A 
ATOM     33  O   UNL     1      44.587   5.316  13.661  0.00  0.00    +0.000 OA
ATOM     34  C   UNL     1      44.804   4.696  11.387  0.00  0.00    +0.000 A 
ATOM     35  H   UNL     1      43.225   3.283  13.903  0.00  0.00    +0.000 HD
ENDBRANCH  22  25
ENDBRANCH  20  21
ENDBRANCH   4  20
TORSDOF 7
ENDMDL
MODEL 8
REMARK VINA RESULT:    -7.223      2.407      3.222
REMARK INTER + INTRA:         -11.135
REMARK INTER:                  -9.627
REMARK INTRA:                  -1.508
REMARK UNBOUND:                -0.956
REMARK  Name = 
REMARK  7 active torsions:
REMARK  status: ('A' for Active; 'I' for Inactive)
REMARK    1  A    between atoms: C_2  and  C_4
REMARK    2  A    between atoms: C_8  and  C_9
REMARK    3  A    between atoms: C_9  and  O_10
REMARK    4  A    between atoms: O_10  and  C_11
REMARK    5  A    between atoms: C_14  and  C_15
REMARK    6  A    between atoms: C_15  and  N_16
REMARK    7  A    between atoms: C_17  and  C_19
REMARK                            x       y       z     vdW  Elec       q    Type
REMARK                         _______ _______ _______ _____ _____    ______ ____
ROOT
ATOM      1  C   UNL     1      45.718   7.608  11.707  0.00  0.00    +0.000 A 
ATOM      2  C   UNL     1      46.815   6.777  11.505  0.00  0.00    +0.000 A 
ATOM      3  C   UNL     1      47.972   6.966  12.258  0.00  0.00    +0.000 A 
ATOM      4  C   UNL     1      48.010   8.011  13.178  0.00  0.00    +0.000 A 
ATOM      5  N   UNL     1      46.961   8.850  13.372  0.00  0.00    +0.000 NA
ATOM      6  C   UNL     1      45.851   8.635  12.632  0.00  0.00    +0.000 A 
ENDROOT
BRANCH   1   7
ATOM      7  O   UNL     1      44.606   7.337  10.965  0.00  0.00    +0.000 OA
BRANCH   7   8
ATOM      8  C   UNL     1      43.517   6.762  11.692  0.00  0.00    +0.000 C 
BRANCH   8  13
ATOM      9  C   UNL     1      44.094   3.262  10.281  0.00  0.00    +0.000 A 
ATOM     10  C   UNL     1      43.809   2.470  11.398  0.00  0.00    +0.000 A 
ATOM     11  C   UNL     1      43.401   3.066  12.592  0.00  0.00    +0.000 A 
ATOM     12  C   UNL     1      43.296   4.452  12.676  0.00  0.00    +0.000 A 
ATOM     13  C   UNL     1      43.612   5.262  11.574  0.00  0.00    +0.000 A 
ATOM     14  C   UNL     1      44.002   4.657  10.373  0.00  0.00    +0.000 A 
BRANCH   9  16
ATOM     15  N   UNL     1      44.336   3.409   7.859  0.00  0.00    +0.000 N 
ATOM     16  C   UNL     1      44.530   2.665   8.989  0.00  0.00    +0.000 C 
ATOM     17  O   UNL     1      45.074   1.572   8.935  0.00  0.00    +0.000 OA
ATOM     18  H   UNL     1      44.719   3.032   7.003  0.00  0.00    +0.000 HD
ATOM     19  H   UNL     1      44.130   4.397   7.887  0.00  0.00    +0.000 HD
ENDBRANCH   9  16
ENDBRANCH   8  13
ENDBRANCH   7   8
ENDBRANCH   1   7
BRANCH   4  20
ATOM     20  C   UNL     1      49.230   8.242  14.033  0.00  0.00    +0.000 C 
BRANCH  20  21
ATOM     21  N   UNL     1      49.305   7.309  15.135  0.00  0.00    +0.000 N 
ATOM     22  C   UNL     1      48.876   7.624  16.394  0.00  0.00    +0.000 C 
ATOM     23  O   UNL     1      48.426   8.733  16.672  0.00  0.00    +0.000 OA
ATOM     24  H   UNL     1      49.884   6.488  14.982  0.00  0.00    +0.000 HD
BRANCH  22  25
ATOM     25  C   UNL     1      48.902   6.540  17.385  0.00  0.00    +0.000 A 
ATOM     26  C   UNL     1      49.470   6.768  18.633  0.00  0.00    +0.000 A 
ATOM     27  S   UNL     1      49.364   5.434  19.687  0.00  0.00    +0.000 S 
ATOM     28  C   UNL     1      48.600   4.485  18.501  0.00  0.00    +0.000 A 
ATOM     29  N   UNL     1      48.250   3.198  18.757  0.00  0.00    +0.000 NA
ATOM     30  C   UNL     1      47.704   2.584  17.759  0.00  0.00    +0.000 A 
ATOM     31  N   UNL     1      47.476   3.145  16.531  0.00  0.00    +0.000 N 
ATOM     32  C   UNL     1      47.772   4.455  16.241  0.00  0.00    +0.000 A 
ATOM     33  O   UNL     1      47.485   4.948  15.155  0.00  0.00    +0.000 OA
ATOM     34  C   UNL     1      48.408   5.184  17.321  0.00  0.00    +0.000 A 
ATOM     35  H   UNL     1      47.034   2.616  15.793  0.00  0.00    +0.000 HD
ENDBRANCH  22  25
ENDBRANCH  20  21
ENDBRANCH   4  20
TORSDOF 7
ENDMDL
MODEL 9
REMARK VINA RESULT:    -7.169      2.900      4.114
REMARK INTER + INTRA:         -11.058
REMARK INTER:                  -9.897
REMARK INTRA:                  -1.161
REMARK UNBOUND:                -0.956
REMARK  Name = 
REMARK  7 active torsions:
REMARK  status: ('A' for Active; 'I' for Inactive)
REMARK    1  A    between atoms: C_2  and  C_4
REMARK    2  A    between atoms: C_8  and  C_9
REMARK    3  A    between atoms: C_9  and  O_10
REMARK    4  A    between atoms: O_10  and  C_11
REMARK    5  A    between atoms: C_14  and  C_15
REMARK    6  A    between atoms: C_15  and  N_16
REMARK    7  A    between atoms: C_17  and  C_19
REMARK                            x       y       z     vdW  Elec       q    Type
REMARK                         _______ _______ _______ _____ _____    ______ ____
ROOT
ATOM      1  C   UNL     1      47.416   6.977  12.871  0.00  0.00    +0.000 A 
ATOM      2  C   UNL     1      47.532   8.268  13.374  0.00  0.00    +0.000 A 
ATOM      3  C   UNL     1      48.153   8.476  14.604  0.00  0.00    +0.000 A 
ATOM      4  C   UNL     1      48.614   7.372  15.318  0.00  0.00    +0.000 A 
ATOM      5  N   UNL     1      48.488   6.101  14.857  0.00  0.00    +0.000 NA
ATOM      6  C   UNL     1      47.889   5.935  13.657  0.00  0.00    +0.000 A 
ENDROOT
BRANCH   1   7
ATOM      7  O   UNL     1      46.837   6.854  11.642  0.00  0.00    +0.000 OA
BRANCH   7   8
ATOM      8  C   UNL     1      45.412   6.971  11.627  0.00  0.00    +0.000 C 
BRANCH   8  13
ATOM      9  C   UNL     1      44.443   3.551  10.233  0.00  0.00    +0.000 A 
ATOM     10  C   UNL     1      43.751   3.005  11.319  0.00  0.00    +0.000 A 
ATOM     11  C   UNL     1      43.572   3.752  12.483  0.00  0.00    +0.000 A 
ATOM     12  C   UNL     1      44.100   5.038  12.571  0.00  0.00    +0.000 A 
ATOM     13  C   UNL     1      44.826   5.588  11.504  0.00  0.00    +0.000 A 
ATOM     14  C   UNL     1      44.986   4.840  10.331  0.00  0.00    +0.000 A 
BRANCH   9  16
ATOM     15  N   UNL     1      44.897   1.448   9.088  0.00  0.00    +0.000 N 
ATOM     16  C   UNL     1      44.654   2.788   8.974  0.00  0.00    +0.000 C 
ATOM     17  O   UNL     1      44.578   3.322   7.876  0.00  0.00    +0.000 OA
ATOM     18  H   UNL     1      44.947   0.927   8.223  0.00  0.00    +0.000 HD
ATOM     19  H   UNL     1      44.719   0.934   9.937  0.00  0.00    +0.000 HD
ENDBRANCH   9  16
ENDBRANCH   8  13
ENDBRANCH   7   8
ENDBRANCH   1   7
BRANCH   4  20
ATOM     20  C   UNL     1      49.313   7.547  16.641  0.00  0.00    +0.000 C 
BRANCH  20  21
ATOM     21  N   UNL     1      50.307   6.522  16.871  0.00  0.00    +0.000 N 
ATOM     22  C   UNL     1      50.786   6.230  18.117  0.00  0.00    +0.000 C 
ATOM     23  O   UNL     1      50.421   6.843  19.117  0.00  0.00    +0.000 OA
ATOM     24  H   UNL     1      50.787   6.177  16.044  0.00  0.00    +0.000 HD
BRANCH  22  25
ATOM     25  C   UNL     1      51.702   5.085  18.214  0.00  0.00    +0.000 A 
ATOM     26  C   UNL     1      52.982   5.276  18.719  0.00  0.00    +0.000 A 
ATOM     27  S   UNL     1      53.897   3.842  18.827  0.00  0.00    +0.000 S 
ATOM     28  C   UNL     1      52.634   2.921  18.157  0.00  0.00    +0.000 A 
ATOM     29  N   UNL     1      52.778   1.585  17.954  0.00  0.00    +0.000 NA
ATOM     30  C   UNL     1      51.753   1.014  17.412  0.00  0.00    +0.000 A 
ATOM     31  N   UNL     1      50.598   1.659  17.061  0.00  0.00    +0.000 N 
ATOM     32  C   UNL     1      50.391   2.998  17.289  0.00  0.00    +0.000 A 
ATOM     33  O   UNL     1      49.315   3.529  17.031  0.00  0.00    +0.000 OA
ATOM     34  C   UNL     1      51.520   3.693  17.875  0.00  0.00    +0.000 A 
ATOM     35  H   UNL     1      49.826   1.154  16.651  0.00  0.00    +0.000 HD
ENDBRANCH  22  25
ENDBRANCH  20  21
ENDBRANCH   4  20
TORSDOF 7
ENDMDL
