MODEL 1
REMARK VINA RESULT:    -8.100      0.000      0.000
REMARK INTER + INTRA:         -12.318
REMARK INTER:                 -11.651
REMARK INTRA:                  -0.666
REMARK UNBOUND:                -0.666
REMARK  Name = 
REMARK  9 active torsions:
REMARK  status: ('A' for Active; 'I' for Inactive)
REMARK    1  A    between atoms: C_1  and  C_2
REMARK    2  A    between atoms: C_2  and  N_3
REMARK    3  A    between atoms: C_2  and  C_19
REMARK    4  A    between atoms: N_3  and  C_4
REMARK    5  A    between atoms: C_4  and  C_5
REMARK    6  A    between atoms: C_8  and  C_9
REMARK    7  A    between atoms: C_9  and  O_10
REMARK    8  A    between atoms: C_9  and  C_11
REMARK    9  A    between atoms: C_11  and  N_12
REMARK                            x       y       z     vdW  Elec       q    Type
REMARK                         _______ _______ _______ _____ _____    ______ ____
ROOT
ATOM      1  C   UNL     1      48.452   6.206  15.009  0.00  0.00    +0.000 C 
ENDROOT
BRANCH   1   2
ATOM      2  C   UNL     1      47.456   5.931  13.902  0.00  0.00    +0.000 A 
ATOM      3  C   UNL     1      46.573   4.846  13.961  0.00  0.00    +0.000 A 
ATOM      4  C   UNL     1      45.700   4.580  12.899  0.00  0.00    +0.000 A 
ATOM      5  C   UNL     1      45.675   5.401  11.762  0.00  0.00    +0.000 A 
ATOM      6  C   UNL     1      46.504   6.533  11.741  0.00  0.00    +0.000 A 
ATOM      7  C   UNL     1      47.391   6.785  12.792  0.00  0.00    +0.000 A 
BRANCH   5   8
ATOM      8  C   UNL     1      44.855   4.998  10.544  0.00  0.00    +0.000 C 
BRANCH   8   9
ATOM      9  O   UNL     1      43.576   5.636  10.631  0.00  0.00    +0.000 OA
ATOM     10  H   UNL     1      43.112   5.295  11.414  0.00  0.00    +0.000 HD
ENDBRANCH   8   9
BRANCH   8  11
ATOM     11  C   UNL     1      44.703   3.458  10.369  0.00  0.00    +0.000 C 
BRANCH  11  12
ATOM     12  N   UNL     1      44.448   2.878   9.030  0.00  0.00    +0.000 NA
ATOM     13  C   UNL     1      45.100   1.590   8.784  0.00  0.00    +0.000 C 
ATOM     14  C   UNL     1      46.392   1.905   8.059  0.00  0.00    +0.000 C 
ATOM     15  C   UNL     1      46.055   3.136   7.240  0.00  0.00    +0.000 C 
ATOM     16  C   UNL     1      44.834   3.754   7.916  0.00  0.00    +0.000 C 
ENDBRANCH  11  12
ENDBRANCH   8  11
ENDBRANCH   5   8
ENDBRANCH   1   2
BRANCH   1  17
ATOM     17  N   UNL     1      47.923   5.876  16.339  0.00  0.00    +0.000 NA
ATOM     18  H   UNL     1      48.348   6.508  17.014  0.00  0.00    +0.000 HD
BRANCH  17  20
ATOM     19  C   UNL     1      47.252   3.921  17.744  0.00  0.00    +0.000 C 
ATOM     20  C   UNL     1      48.255   4.494  16.733  0.00  0.00    +0.000 C 
BRANCH  20  21
ATOM     21  C   UNL     1      49.647   4.456  17.348  0.00  0.00    +0.000 A 
ATOM     22  C   UNL     1      50.248   5.478  18.066  0.00  0.00    +0.000 A 
ATOM     23  S   UNL     1      51.762   5.035  18.730  0.00  0.00    +0.000 S 
ATOM     24  C   UNL     1      51.648   3.457  18.100  0.00  0.00    +0.000 A 
ATOM     25  N   UNL     1      52.598   2.516  18.360  0.00  0.00    +0.000 NA
ATOM     26  C   UNL     1      52.349   1.355  17.842  0.00  0.00    +0.000 A 
ATOM     27  N   UNL     1      51.258   1.058  17.070  0.00  0.00    +0.000 N 
ATOM     28  C   UNL     1      50.288   1.980  16.755  0.00  0.00    +0.000 A 
ATOM     29  O   UNL     1      49.340   1.692  16.033  0.00  0.00    +0.000 OA
ATOM     30  C   UNL     1      50.499   3.288  17.353  0.00  0.00    +0.000 A 
ATOM     31  H   UNL     1      51.141   0.138  16.675  0.00  0.00    +0.000 HD
ENDBRANCH  20  21
ENDBRANCH  17  20
ENDBRANCH   1  17
TORSDOF 8
ENDMDL
MODEL 2
REMARK VINA RESULT:    -7.294      2.532      3.314
REMARK INTER + INTRA:         -11.158
REMARK INTER:                  -9.361
REMARK INTRA:                  -1.798
REMARK UNBOUND:                -0.666
REMARK  Name = 
REMARK  9 active torsions:
REMARK  status: ('A' for Active; 'I' for Inactive)
REMARK    1  A    between atoms: C_1  and  C_2
REMARK    2  A    between atoms: C_2  and  N_3
REMARK    3  A    between atoms: C_2  and  C_19
REMARK    4  A    between atoms: N_3  and  C_4
REMARK    5  A    between atoms: C_4  and  C_5
REMARK    6  A    between atoms: C_8  and  C_9
REMARK    7  A    between atoms: C_9  and  O_10
REMARK    8  A    between atoms: C_9  and  C_11
REMARK    9  A    between atoms: C_11  and  N_12
REMARK                            x       y       z     vdW  Elec       q    Type
REMARK                         _______ _______ _______ _____ _____    ______ ____
ROOT
ATOM      1  C   UNL     1      48.975   8.203  13.415  0.00  0.00    +0.000 C 
ENDROOT
BRANCH   1   2
ATOM      2  C   UNL     1      47.645   7.884  12.766  0.00  0.00    +0.000 A 
ATOM      3  C   UNL     1      46.515   8.685  12.976  0.00  0.00    +0.000 A 
ATOM      4  C   UNL     1      45.281   8.338  12.410  0.00  0.00    +0.000 A 
ATOM      5  C   UNL     1      45.152   7.194  11.608  0.00  0.00    +0.000 A 
ATOM      6  C   UNL     1      46.303   6.439  11.334  0.00  0.00    +0.000 A 
ATOM      7  C   UNL     1      47.528   6.774  11.918  0.00  0.00    +0.000 A 
BRANCH   5   8
ATOM      8  C   UNL     1      43.775   6.731  11.150  0.00  0.00    +0.000 C 
BRANCH   8   9
ATOM      9  O   UNL     1      42.924   7.879  11.050  0.00  0.00    +0.000 OA
ATOM     10  H   UNL     1      43.205   8.531  11.712  0.00  0.00    +0.000 HD
ENDBRANCH   8   9
BRANCH   8  11
ATOM     11  C   UNL     1      43.141   5.642  12.066  0.00  0.00    +0.000 C 
BRANCH  11  12
ATOM     12  N   UNL     1      43.066   4.234  11.613  0.00  0.00    +0.000 NA
ATOM     13  C   UNL     1      43.647   3.259  12.540  0.00  0.00    +0.000 C 
ATOM     14  C   UNL     1      45.061   3.013  12.057  0.00  0.00    +0.000 C 
ATOM     15  C   UNL     1      44.962   3.170  10.552  0.00  0.00    +0.000 C 
ATOM     16  C   UNL     1      43.698   3.991  10.310  0.00  0.00    +0.000 C 
ENDBRANCH  11  12
ENDBRANCH   8  11
ENDBRANCH   5   8
ENDBRANCH   1   2
BRANCH   1  17
ATOM     17  N   UNL     1      49.338   7.239  14.462  0.00  0.00    +0.000 NA
ATOM     18  H   UNL     1      48.998   6.322  14.179  0.00  0.00    +0.000 HD
BRANCH  17  20
ATOM     19  C   UNL     1      49.153   8.961  16.265  0.00  0.00    +0.000 C 
ATOM     20  C   UNL     1      48.720   7.578  15.758  0.00  0.00    +0.000 C 
BRANCH  20  21
ATOM     21  C   UNL     1      49.103   6.533  16.797  0.00  0.00    +0.000 A 
ATOM     22  C   UNL     1      49.974   6.721  17.859  0.00  0.00    +0.000 A 
ATOM     23  S   UNL     1      50.059   5.371  18.907  0.00  0.00    +0.000 S 
ATOM     24  C   UNL     1      48.916   4.505  17.989  0.00  0.00    +0.000 A 
ATOM     25  N   UNL     1      48.474   3.277  18.377  0.00  0.00    +0.000 NA
ATOM     26  C   UNL     1      47.578   2.765  17.594  0.00  0.00    +0.000 A 
ATOM     27  N   UNL     1      47.106   3.352  16.452  0.00  0.00    +0.000 N 
ATOM     28  C   UNL     1      47.542   4.577  16.002  0.00  0.00    +0.000 A 
ATOM     29  O   UNL     1      47.125   5.062  14.957  0.00  0.00    +0.000 OA
ATOM     30  C   UNL     1      48.516   5.214  16.873  0.00  0.00    +0.000 A 
ATOM     31  H   UNL     1      46.427   2.884  15.873  0.00  0.00    +0.000 HD
ENDBRANCH  20  21
ENDBRANCH  17  20
ENDBRANCH   1  17
TORSDOF 8
ENDMDL
MODEL 3
REMARK VINA RESULT:    -6.952      3.193      4.221
REMARK INTER + INTRA:         -10.666
REMARK INTER:                  -9.417
REMARK INTRA:                  -1.249
REMARK UNBOUND:                -0.666
REMARK  Name = 
REMARK  9 active torsions:
REMARK  status: ('A' for Active; 'I' for Inactive)
REMARK    1  A    between atoms: C_1  and  C_2
REMARK    2  A    between atoms: C_2  and  N_3
REMARK    3  A    between atoms: C_2  and  C_19
REMARK    4  A    between atoms: N_3  and  C_4
REMARK    5  A    between atoms: C_4  and  C_5
REMARK    6  A    between atoms: C_8  and  C_9
REMARK    7  A    between atoms: C_9  and  O_10
REMARK    8  A    between atoms: C_9  and  C_11
REMARK    9  A    between atoms: C_11  and  N_12
REMARK                            x       y       z     vdW  Elec       q    Type
REMARK                         _______ _______ _______ _____ _____    ______ ____
ROOT
ATOM      1  C   UNL     1      47.236   8.629  13.237  0.00  0.00    +0.000 C 
ENDROOT
BRANCH   1   2
ATOM      2  C   UNL     1      46.374   7.420  12.945  0.00  0.00    +0.000 A 
ATOM      3  C   UNL     1      46.709   6.147  13.423  0.00  0.00    +0.000 A 
ATOM      4  C   UNL     1      45.926   5.033  13.092  0.00  0.00    +0.000 A 
ATOM      5  C   UNL     1      44.782   5.168  12.291  0.00  0.00    +0.000 A 
ATOM      6  C   UNL     1      44.405   6.456  11.881  0.00  0.00    +0.000 A 
ATOM      7  C   UNL     1      45.199   7.563  12.194  0.00  0.00    +0.000 A 
BRANCH   5   8
ATOM      8  C   UNL     1      44.047   3.931  11.791  0.00  0.00    +0.000 C 
BRANCH   8   9
ATOM      9  O   UNL     1      43.608   3.179  12.928  0.00  0.00    +0.000 OA
ATOM     10  H   UNL     1      43.988   3.575  13.729  0.00  0.00    +0.000 HD
ENDBRANCH   8   9
BRANCH   8  11
ATOM     11  C   UNL     1      44.888   3.047  10.824  0.00  0.00    +0.000 C 
BRANCH  11  12
ATOM     12  N   UNL     1      44.450   2.843   9.425  0.00  0.00    +0.000 NA
ATOM     13  C   UNL     1      44.999   1.650   8.776  0.00  0.00    +0.000 C 
ATOM     14  C   UNL     1      46.213   2.115   8.000  0.00  0.00    +0.000 C 
ATOM     15  C   UNL     1      45.851   3.525   7.574  0.00  0.00    +0.000 C 
ATOM     16  C   UNL     1      44.751   3.971   8.533  0.00  0.00    +0.000 C 
ENDBRANCH  11  12
ENDBRANCH   8  11
ENDBRANCH   5   8
ENDBRANCH   1   2
BRANCH   1  17
ATOM     17  N   UNL     1      47.336   8.917  14.675  0.00  0.00    +0.000 NA
ATOM     18  H   UNL     1      47.014   9.871  14.829  0.00  0.00    +0.000 HD
BRANCH  17  20
ATOM     19  C   UNL     1      49.718   8.533  14.022  0.00  0.00    +0.000 C 
ATOM     20  C   UNL     1      48.726   8.818  15.158  0.00  0.00    +0.000 C 
BRANCH  20  21
ATOM     21  C   UNL     1      48.830   7.704  16.191  0.00  0.00    +0.000 A 
ATOM     22  C   UNL     1      49.365   6.443  15.979  0.00  0.00    +0.000 A 
ATOM     23  S   UNL     1      49.449   5.498  17.403  0.00  0.00    +0.000 S 
ATOM     24  C   UNL     1      48.798   6.754  18.351  0.00  0.00    +0.000 A 
ATOM     25  N   UNL     1      48.662   6.630  19.700  0.00  0.00    +0.000 NA
ATOM     26  C   UNL     1      48.187   7.685  20.283  0.00  0.00    +0.000 A 
ATOM     27  N   UNL     1      47.812   8.834  19.642  0.00  0.00    +0.000 N 
ATOM     28  C   UNL     1      47.902   8.997  18.279  0.00  0.00    +0.000 A 
ATOM     29  O   UNL     1      47.527  10.027  17.730  0.00  0.00    +0.000 OA
ATOM     30  C   UNL     1      48.474   7.856  17.584  0.00  0.00    +0.000 A 
ATOM     31  H   UNL     1      47.423   9.609  20.156  0.00  0.00    +0.000 HD
ENDBRANCH  20  21
ENDBRANCH  17  20
ENDBRANCH   1  17
TORSDOF 8
ENDMDL
MODEL 4
REMARK VINA RESULT:    -6.814      3.044      9.041
REMARK INTER + INTRA:         -10.467
REMARK INTER:                  -9.120
REMARK INTRA:                  -1.348
REMARK UNBOUND:                -0.666
REMARK  Name = 
REMARK  9 active torsions:
REMARK  status: ('A' for Active; 'I' for Inactive)
REMARK    1  A    between atoms: C_1  and  C_2
REMARK    2  A    between atoms: C_2  and  N_3
REMARK    3  A    between atoms: C_2  and  C_19
REMARK    4  A    between atoms: N_3  and  C_4
REMARK    5  A    between atoms: C_4  and  C_5
REMARK    6  A    between atoms: C_8  and  C_9
REMARK    7  A    between atoms: C_9  and  O_10
REMARK    8  A    between atoms: C_9  and  C_11
REMARK    9  A    between atoms: C_11  and  N_12
REMARK                            x       y       z     vdW  Elec       q    Type
REMARK                         _______ _______ _______ _____ _____    ______ ____
ROOT
ATOM      1  C   UNL     1      47.643   5.137  16.464  0.00  0.00    +0.000 C 
ENDROOT
BRANCH   1   2
ATOM      2  C   UNL     1      48.872   4.384  16.924  0.00  0.00    +0.000 A 
ATOM      3  C   UNL     1      50.036   5.052  17.326  0.00  0.00    +0.000 A 
ATOM      4  C   UNL     1      51.180   4.332  17.694  0.00  0.00    +0.000 A 
ATOM      5  C   UNL     1      51.182   2.928  17.687  0.00  0.00    +0.000 A 
ATOM      6  C   UNL     1      49.990   2.263  17.362  0.00  0.00    +0.000 A 
ATOM      7  C   UNL     1      48.856   2.983  16.974  0.00  0.00    +0.000 A 
BRANCH   5   8
ATOM      8  C   UNL     1      52.479   2.163  17.913  0.00  0.00    +0.000 C 
BRANCH   8   9
ATOM      9  O   UNL     1      52.152   0.800  18.206  0.00  0.00    +0.000 OA
ATOM     10  H   UNL     1      52.719   0.495  18.933  0.00  0.00    +0.000 HD
ENDBRANCH   8   9
BRANCH   8  11
ATOM     11  C   UNL     1      53.385   2.774  19.022  0.00  0.00    +0.000 C 
BRANCH  11  12
ATOM     12  N   UNL     1      54.698   3.365  18.676  0.00  0.00    +0.000 NA
ATOM     13  C   UNL     1      54.906   4.730  19.164  0.00  0.00    +0.000 C 
ATOM     14  C   UNL     1      54.540   5.647  18.015  0.00  0.00    +0.000 C 
ATOM     15  C   UNL     1      54.929   4.853  16.782  0.00  0.00    +0.000 C 
ATOM     16  C   UNL     1      54.978   3.396  17.234  0.00  0.00    +0.000 C 
ENDBRANCH  11  12
ENDBRANCH   8  11
ENDBRANCH   5   8
ENDBRANCH   1   2
BRANCH   1  17
ATOM     17  N   UNL     1      47.975   6.360  15.721  0.00  0.00    +0.000 NA
ATOM     18  H   UNL     1      47.182   6.995  15.786  0.00  0.00    +0.000 HD
BRANCH  17  20
ATOM     19  C   UNL     1      49.263   7.040  13.689  0.00  0.00    +0.000 C 
ATOM     20  C   UNL     1      48.226   6.083  14.294  0.00  0.00    +0.000 C 
BRANCH  20  21
ATOM     21  C   UNL     1      46.926   6.211  13.512  0.00  0.00    +0.000 A 
ATOM     22  C   UNL     1      46.359   7.393  13.062  0.00  0.00    +0.000 A 
ATOM     23  S   UNL     1      44.969   7.149  12.094  0.00  0.00    +0.000 S 
ATOM     24  C   UNL     1      45.099   5.456  12.223  0.00  0.00    +0.000 A 
ATOM     25  N   UNL     1      44.247   4.623  11.562  0.00  0.00    +0.000 NA
ATOM     26  C   UNL     1      44.499   3.364  11.732  0.00  0.00    +0.000 A 
ATOM     27  N   UNL     1      45.501   2.864  12.519  0.00  0.00    +0.000 N 
ATOM     28  C   UNL     1      46.366   3.662  13.230  0.00  0.00    +0.000 A 
ATOM     29  O   UNL     1      47.233   3.183  13.954  0.00  0.00    +0.000 OA
ATOM     30  C   UNL     1      46.154   5.086  13.034  0.00  0.00    +0.000 A 
ATOM     31  H   UNL     1      45.623   1.869  12.629  0.00  0.00    +0.000 HD
ENDBRANCH  20  21
ENDBRANCH  17  20
ENDBRANCH   1  17
TORSDOF 8
ENDMDL
MODEL 5
REMARK VINA RESULT:    -6.701      2.035      2.557
REMARK INTER + INTRA:         -10.305
REMARK INTER:                  -9.286
REMARK INTRA:                  -1.020
REMARK UNBOUND:                -0.666
REMARK  Name = 
REMARK  9 active torsions:
REMARK  status: ('A' for Active; 'I' for Inactive)
REMARK    1  A    between atoms: C_1  and  C_2
REMARK    2  A    between atoms: C_2  and  N_3
REMARK    3  A    between atoms: C_2  and  C_19
REMARK    4  A    between atoms: N_3  and  C_4
REMARK    5  A    between atoms: C_4  and  C_5
REMARK    6  A    between atoms: C_8  and  C_9
REMARK    7  A    between atoms: C_9  and  O_10
REMARK    8  A    between atoms: C_9  and  C_11
REMARK    9  A    between atoms: C_11  and  N_12
REMARK                            x       y       z     vdW  Elec       q    Type
REMARK                         _______ _______ _______ _____ _____    ______ ____
ROOT
ATOM      1  C   UNL     1      48.650   7.676  13.710  0.00  0.00    +0.000 C 
ENDROOT
BRANCH   1   2
ATOM      2  C   UNL     1      47.462   6.791  13.397  0.00  0.00    +0.000 A 
ATOM      3  C   UNL     1      47.419   5.450  13.798  0.00  0.00    +0.000 A 
ATOM      4  C   UNL     1      46.334   4.637  13.448  0.00  0.00    +0.000 A 
ATOM      5  C   UNL     1      45.259   5.148  12.705  0.00  0.00    +0.000 A 
ATOM      6  C   UNL     1      45.268   6.512  12.374  0.00  0.00    +0.000 A 
ATOM      7  C   UNL     1      46.361   7.317  12.705  0.00  0.00    +0.000 A 
BRANCH   5   8
ATOM      8  C   UNL     1      44.178   4.213  12.179  0.00  0.00    +0.000 C 
BRANCH   8   9
ATOM      9  O   UNL     1      43.508   3.623  13.299  0.00  0.00    +0.000 OA
ATOM     10  H   UNL     1      43.572   2.657  13.225  0.00  0.00    +0.000 HD
ENDBRANCH   8   9
BRANCH   8  11
ATOM     11  C   UNL     1      44.710   3.121  11.205  0.00  0.00    +0.000 C 
BRANCH  11  12
ATOM     12  N   UNL     1      44.258   3.090   9.795  0.00  0.00    +0.000 NA
ATOM     13  C   UNL     1      44.670   1.902   9.044  0.00  0.00    +0.000 C 
ATOM     14  C   UNL     1      45.934   2.290   8.304  0.00  0.00    +0.000 C 
ATOM     15  C   UNL     1      45.737   3.764   8.003  0.00  0.00    +0.000 C 
ATOM     16  C   UNL     1      44.691   4.249   9.003  0.00  0.00    +0.000 C 
ENDBRANCH  11  12
ENDBRANCH   8  11
ENDBRANCH   5   8
ENDBRANCH   1   2
BRANCH   1  17
ATOM     17  N   UNL     1      49.752   6.938  14.341  0.00  0.00    +0.000 NA
ATOM     18  H   UNL     1      49.415   6.007  14.578  0.00  0.00    +0.000 HD
BRANCH  17  20
ATOM     19  C   UNL     1      50.462   9.093  15.392  0.00  0.00    +0.000 C 
ATOM     20  C   UNL     1      50.208   7.591  15.583  0.00  0.00    +0.000 C 
BRANCH  20  21
ATOM     21  C   UNL     1      51.495   6.934  16.064  0.00  0.00    +0.000 A 
ATOM     22  C   UNL     1      52.771   7.464  15.955  0.00  0.00    +0.000 A 
ATOM     23  S   UNL     1      53.964   6.515  16.732  0.00  0.00    +0.000 S 
ATOM     24  C   UNL     1      52.809   5.380  17.260  0.00  0.00    +0.000 A 
ATOM     25  N   UNL     1      53.155   4.327  18.051  0.00  0.00    +0.000 NA
ATOM     26  C   UNL     1      52.158   3.577  18.399  0.00  0.00    +0.000 A 
ATOM     27  N   UNL     1      50.860   3.765  18.008  0.00  0.00    +0.000 N 
ATOM     28  C   UNL     1      50.466   4.795  17.186  0.00  0.00    +0.000 A 
ATOM     29  O   UNL     1      49.300   4.918  16.826  0.00  0.00    +0.000 OA
ATOM     30  C   UNL     1      51.542   5.694  16.806  0.00  0.00    +0.000 A 
ATOM     31  H   UNL     1      50.136   3.124  18.294  0.00  0.00    +0.000 HD
ENDBRANCH  20  21
ENDBRANCH  17  20
ENDBRANCH   1  17
TORSDOF 8
ENDMDL
MODEL 6
REMARK VINA RESULT:    -6.548      1.774      2.610
REMARK INTER + INTRA:         -10.085
REMARK INTER:                  -8.905
REMARK INTRA:                  -1.180
REMARK UNBOUND:                -0.666
REMARK  Name = 
REMARK  9 active torsions:
REMARK  status: ('A' for Active; 'I' for Inactive)
REMARK    1  A    between atoms: C_1  and  C_2
REMARK    2  A    between atoms: C_2  and  N_3
REMARK    3  A    between atoms: C_2  and  C_19
REMARK    4  A    between atoms: N_3  and  C_4
REMARK    5  A    between atoms: C_4  and  C_5
REMARK    6  A    between atoms: C_8  and  C_9
REMARK    7  A    between atoms: C_9  and  O_10
REMARK    8  A    between atoms: C_9  and  C_11
REMARK    9  A    between atoms: C_11  and  N_12
REMARK                            x       y       z     vdW  Elec       q    Type
REMARK                         _______ _______ _______ _____ _____    ______ ____
ROOT
ATOM      1  C   UNL     1      47.958   4.516  16.803  0.00  0.00    +0.000 C 
ENDROOT
BRANCH   1   2
ATOM      2  C   UNL     1      47.536   4.858  15.390  0.00  0.00    +0.000 A 
ATOM      3  C   UNL     1      47.902   6.067  14.786  0.00  0.00    +0.000 A 
ATOM      4  C   UNL     1      47.452   6.384  13.498  0.00  0.00    +0.000 A 
ATOM      5  C   UNL     1      46.641   5.495  12.778  0.00  0.00    +0.000 A 
ATOM      6  C   UNL     1      46.342   4.251  13.354  0.00  0.00    +0.000 A 
ATOM      7  C   UNL     1      46.774   3.944  14.648  0.00  0.00    +0.000 A 
BRANCH   5   8
ATOM      8  C   UNL     1      46.012   5.927  11.460  0.00  0.00    +0.000 C 
BRANCH   8   9
ATOM      9  O   UNL     1      46.686   7.107  11.005  0.00  0.00    +0.000 OA
ATOM     10  H   UNL     1      46.985   7.611  11.780  0.00  0.00    +0.000 HD
ENDBRANCH   8   9
BRANCH   8  11
ATOM     11  C   UNL     1      44.474   6.156  11.541  0.00  0.00    +0.000 C 
BRANCH  11  12
ATOM     12  N   UNL     1      43.544   5.260  10.816  0.00  0.00    +0.000 NA
ATOM     13  C   UNL     1      42.739   4.386  11.673  0.00  0.00    +0.000 C 
ATOM     14  C   UNL     1      43.474   3.063  11.732  0.00  0.00    +0.000 C 
ATOM     15  C   UNL     1      44.135   2.957  10.371  0.00  0.00    +0.000 C 
ATOM     16  C   UNL     1      44.200   4.385   9.836  0.00  0.00    +0.000 C 
ENDBRANCH  11  12
ENDBRANCH   8  11
ENDBRANCH   5   8
ENDBRANCH   1   2
BRANCH   1  17
ATOM     17  N   UNL     1      49.379   4.155  16.896  0.00  0.00    +0.000 NA
ATOM     18  H   UNL     1      49.491   3.215  16.521  0.00  0.00    +0.000 HD
BRANCH  17  20
ATOM     19  C   UNL     1      49.525   5.463  19.021  0.00  0.00    +0.000 C 
ATOM     20  C   UNL     1      49.854   4.152  18.292  0.00  0.00    +0.000 C 
BRANCH  20  21
ATOM     21  C   UNL     1      51.362   3.941  18.319  0.00  0.00    +0.000 A 
ATOM     22  C   UNL     1      52.300   4.829  18.823  0.00  0.00    +0.000 A 
ATOM     23  S   UNL     1      53.892   4.201  18.819  0.00  0.00    +0.000 S 
ATOM     24  C   UNL     1      53.373   2.715  18.169  0.00  0.00    +0.000 A 
ATOM     25  N   UNL     1      54.239   1.682  17.973  0.00  0.00    +0.000 NA
ATOM     26  C   UNL     1      53.684   0.608  17.508  0.00  0.00    +0.000 A 
ATOM     27  N   UNL     1      52.358   0.482  17.195  0.00  0.00    +0.000 N 
ATOM     28  C   UNL     1      51.451   1.505  17.346  0.00  0.00    +0.000 A 
ATOM     29  O   UNL     1      50.275   1.371  17.026  0.00  0.00    +0.000 OA
ATOM     30  C   UNL     1      52.016   2.718  17.911  0.00  0.00    +0.000 A 
ATOM     31  H   UNL     1      51.998  -0.377  16.810  0.00  0.00    +0.000 HD
ENDBRANCH  20  21
ENDBRANCH  17  20
ENDBRANCH   1  17
TORSDOF 8
ENDMDL
MODEL 7
REMARK VINA RESULT:    -6.544      2.676      3.732
REMARK INTER + INTRA:         -10.079
REMARK INTER:                  -9.344
REMARK INTRA:                  -0.735
REMARK UNBOUND:                -0.666
REMARK  Name = 
REMARK  9 active torsions:
REMARK  status: ('A' for Active; 'I' for Inactive)
REMARK    1  A    between atoms: C_1  and  C_2
REMARK    2  A    between atoms: C_2  and  N_3
REMARK    3  A    between atoms: C_2  and  C_19
REMARK    4  A    between atoms: N_3  and  C_4
REMARK    5  A    between atoms: C_4  and  C_5
REMARK    6  A    between atoms: C_8  and  C_9
REMARK    7  A    between atoms: C_9  and  O_10
REMARK    8  A    between atoms: C_9  and  C_11
REMARK    9  A    between atoms: C_11  and  N_12
REMARK                            x       y       z     vdW  Elec       q    Type
REMARK                         _______ _______ _______ _____ _____    ______ ____
ROOT
ATOM      1  C   UNL     1      49.486   7.658  13.509  0.00  0.00    +0.000 C 
ENDROOT
BRANCH   1   2
ATOM      2  C   UNL     1      48.106   7.227  13.061  0.00  0.00    +0.000 A 
ATOM      3  C   UNL     1      47.374   7.965  12.122  0.00  0.00    +0.000 A 
ATOM      4  C   UNL     1      46.077   7.577  11.765  0.00  0.00    +0.000 A 
ATOM      5  C   UNL     1      45.487   6.433  12.323  0.00  0.00    +0.000 A 
ATOM      6  C   UNL     1      46.252   5.651  13.202  0.00  0.00    +0.000 A 
ATOM      7  C   UNL     1      47.539   6.052  13.575  0.00  0.00    +0.000 A 
BRANCH   5   8
ATOM      8  C   UNL     1      44.018   6.125  12.066  0.00  0.00    +0.000 C 
BRANCH   8   9
ATOM      9  O   UNL     1      43.425   5.696  13.297  0.00  0.00    +0.000 OA
ATOM     10  H   UNL     1      43.991   5.986  14.031  0.00  0.00    +0.000 HD
ENDBRANCH   8   9
BRANCH   8  11
ATOM     11  C   UNL     1      43.782   5.080  10.936  0.00  0.00    +0.000 C 
BRANCH  11  12
ATOM     12  N   UNL     1      44.902   4.247  10.441  0.00  0.00    +0.000 NA
ATOM     13  C   UNL     1      45.391   4.603   9.107  0.00  0.00    +0.000 C 
ATOM     14  C   UNL     1      44.684   3.674   8.141  0.00  0.00    +0.000 C 
ATOM     15  C   UNL     1      44.502   2.396   8.936  0.00  0.00    +0.000 C 
ATOM     16  C   UNL     1      44.606   2.809  10.402  0.00  0.00    +0.000 C 
ENDBRANCH  11  12
ENDBRANCH   8  11
ENDBRANCH   5   8
ENDBRANCH   1   2
BRANCH   1  17
ATOM     17  N   UNL     1      50.022   6.809  14.581  0.00  0.00    +0.000 NA
ATOM     18  H   UNL     1      49.238   6.363  15.054  0.00  0.00    +0.000 HD
BRANCH  17  20
ATOM     19  C   UNL     1      52.009   6.843  16.098  0.00  0.00    +0.000 C 
ATOM     20  C   UNL     1      50.774   7.593  15.578  0.00  0.00    +0.000 C 
BRANCH  20  21
ATOM     21  C   UNL     1      49.870   7.924  16.757  0.00  0.00    +0.000 A 
ATOM     22  C   UNL     1      49.621   9.190  17.264  0.00  0.00    +0.000 A 
ATOM     23  S   UNL     1      48.443   9.201  18.504  0.00  0.00    +0.000 S 
ATOM     24  C   UNL     1      48.209   7.519  18.385  0.00  0.00    +0.000 A 
ATOM     25  N   UNL     1      47.269   6.875  19.132  0.00  0.00    +0.000 NA
ATOM     26  C   UNL     1      47.188   5.604  18.898  0.00  0.00    +0.000 A 
ATOM     27  N   UNL     1      47.973   4.916  18.013  0.00  0.00    +0.000 N 
ATOM     28  C   UNL     1      48.954   5.515  17.259  0.00  0.00    +0.000 A 
ATOM     29  O   UNL     1      49.664   4.866  16.498  0.00  0.00    +0.000 OA
ATOM     30  C   UNL     1      49.054   6.952  17.450  0.00  0.00    +0.000 A 
ATOM     31  H   UNL     1      47.874   3.919  17.901  0.00  0.00    +0.000 HD
ENDBRANCH  20  21
ENDBRANCH  17  20
ENDBRANCH   1  17
TORSDOF 8
ENDMDL
MODEL 8
REMARK VINA RESULT:    -6.451      2.807      3.971
REMARK INTER + INTRA:          -9.946
REMARK INTER:                  -9.178
REMARK INTRA:                  -0.768
REMARK UNBOUND:                -0.666
REMARK  Name = 
REMARK  9 active torsions:
REMARK  status: ('A' for Active; 'I' for Inactive)
REMARK    1  A    between atoms: C_1  and  C_2
REMARK    2  A    between atoms: C_2  and  N_3
REMARK    3  A    between atoms: C_2  and  C_19
REMARK    4  A    between atoms: N_3  and  C_4
REMARK    5  A    between atoms: C_4  and  C_5
REMARK    6  A    between atoms: C_8  and  C_9
REMARK    7  A    between atoms: C_9  and  O_10
REMARK    8  A    between atoms: C_9  and  C_11
REMARK    9  A    between atoms: C_11  and  N_12
REMARK                            x       y       z     vdW  Elec       q    Type
REMARK                         _______ _______ _______ _____ _____    ______ ____
ROOT
ATOM      1  C   UNL     1      48.754   7.383  14.032  0.00  0.00    +0.000 C 
ENDROOT
BRANCH   1   2
ATOM      2  C   UNL     1      47.453   6.973  13.375  0.00  0.00    +0.000 A 
ATOM      3  C   UNL     1      46.820   7.788  12.429  0.00  0.00    +0.000 A 
ATOM      4  C   UNL     1      45.589   7.413  11.876  0.00  0.00    +0.000 A 
ATOM      5  C   UNL     1      44.971   6.207  12.241  0.00  0.00    +0.000 A 
ATOM      6  C   UNL     1      45.648   5.355  13.128  0.00  0.00    +0.000 A 
ATOM      7  C   UNL     1      46.865   5.741  13.695  0.00  0.00    +0.000 A 
BRANCH   5   8
ATOM      8  C   UNL     1      43.555   5.898  11.773  0.00  0.00    +0.000 C 
BRANCH   8   9
ATOM      9  O   UNL     1      42.768   5.552  12.918  0.00  0.00    +0.000 OA
ATOM     10  H   UNL     1      42.923   4.616  13.129  0.00  0.00    +0.000 HD
ENDBRANCH   8   9
BRANCH   8  11
ATOM     11  C   UNL     1      43.481   4.788  10.684  0.00  0.00    +0.000 C 
BRANCH  11  12
ATOM     12  N   UNL     1      44.694   4.027  10.306  0.00  0.00    +0.000 NA
ATOM     13  C   UNL     1      45.328   4.461   9.059  0.00  0.00    +0.000 C 
ATOM     14  C   UNL     1      44.795   3.545   7.976  0.00  0.00    +0.000 C 
ATOM     15  C   UNL     1      44.578   2.227   8.694  0.00  0.00    +0.000 C 
ATOM     16  C   UNL     1      44.476   2.580  10.175  0.00  0.00    +0.000 C 
ENDBRANCH  11  12
ENDBRANCH   8  11
ENDBRANCH   5   8
ENDBRANCH   1   2
BRANCH   1  17
ATOM     17  N   UNL     1      49.306   6.331  14.896  0.00  0.00    +0.000 NA
ATOM     18  H   UNL     1      48.577   5.639  15.058  0.00  0.00    +0.000 HD
BRANCH  17  20
ATOM     19  C   UNL     1      51.261   6.888  16.350  0.00  0.00    +0.000 C 
ATOM     20  C   UNL     1      49.733   6.862  16.203  0.00  0.00    +0.000 C 
BRANCH  20  21
ATOM     21  C   UNL     1      49.149   6.007  17.319  0.00  0.00    +0.000 A 
ATOM     22  C   UNL     1      49.249   4.629  17.429  0.00  0.00    +0.000 A 
ATOM     23  S   UNL     1      48.594   4.019  18.887  0.00  0.00    +0.000 S 
ATOM     24  C   UNL     1      48.180   5.579  19.428  0.00  0.00    +0.000 A 
ATOM     25  N   UNL     1      47.634   5.784  20.659  0.00  0.00    +0.000 NA
ATOM     26  C   UNL     1      47.411   7.029  20.938  0.00  0.00    +0.000 A 
ATOM     27  N   UNL     1      47.656   8.079  20.095  0.00  0.00    +0.000 N 
ATOM     28  C   UNL     1      48.177   7.921  18.832  0.00  0.00    +0.000 A 
ATOM     29  O   UNL     1      48.354   8.878  18.087  0.00  0.00    +0.000 OA
ATOM     30  C   UNL     1      48.489   6.543  18.489  0.00  0.00    +0.000 A 
ATOM     31  H   UNL     1      47.431   9.023  20.367  0.00  0.00    +0.000 HD
ENDBRANCH  20  21
ENDBRANCH  17  20
ENDBRANCH   1  17
TORSDOF 8
ENDMDL
MODEL 9
REMARK VINA RESULT:    -6.421      3.118      9.118
REMARK INTER + INTRA:          -9.903
REMARK INTER:                  -8.883
REMARK INTRA:                  -1.019
REMARK UNBOUND:                -0.666
REMARK  Name = 
REMARK  9 active torsions:
REMARK  status: ('A' for Active; 'I' for Inactive)
REMARK    1  A    between atoms: C_1  and  C_2
REMARK    2  A    between atoms: C_2  and  N_3
REMARK    3  A    between atoms: C_2  and  C_19
REMARK    4  A    between atoms: N_3  and  C_4
REMARK    5  A    between atoms: C_4  and  C_5
REMARK    6  A    between atoms: C_8  and  C_9
REMARK    7  A    between atoms: C_9  and  O_10
REMARK    8  A    between atoms: C_9  and  C_11
REMARK    9  A    between atoms: C_11  and  N_12
REMARK                            x       y       z     vdW  Elec       q    Type
REMARK                         _______ _______ _______ _____ _____    ______ ____
ROOT
ATOM      1  C   UNL     1      48.791   6.454  16.277  0.00  0.00    +0.000 C 
ENDROOT
BRANCH   1   2
ATOM      2  C   UNL     1      49.861   5.519  16.797  0.00  0.00    +0.000 A 
ATOM      3  C   UNL     1      49.557   4.221  17.227  0.00  0.00    +0.000 A 
ATOM      4  C   UNL     1      50.556   3.394  17.756  0.00  0.00    +0.000 A 
ATOM      5  C   UNL     1      51.884   3.837  17.852  0.00  0.00    +0.000 A 
ATOM      6  C   UNL     1      52.200   5.107  17.346  0.00  0.00    +0.000 A 
ATOM      7  C   UNL     1      51.198   5.940  16.838  0.00  0.00    +0.000 A 
BRANCH   5   8
ATOM      8  C   UNL     1      52.919   3.000  18.592  0.00  0.00    +0.000 C 
BRANCH   8   9
ATOM      9  O   UNL     1      52.958   3.435  19.956  0.00  0.00    +0.000 OA
ATOM     10  H   UNL     1      53.716   4.031  20.069  0.00  0.00    +0.000 HD
ENDBRANCH   8   9
BRANCH   8  11
ATOM     11  C   UNL     1      54.337   3.041  17.950  0.00  0.00    +0.000 C 
BRANCH  11  12
ATOM     12  N   UNL     1      55.178   1.822  17.912  0.00  0.00    +0.000 NA
ATOM     13  C   UNL     1      55.241   1.158  16.608  0.00  0.00    +0.000 C 
ATOM     14  C   UNL     1      54.197   0.061  16.645  0.00  0.00    +0.000 C 
ATOM     15  C   UNL     1      54.185  -0.376  18.097  0.00  0.00    +0.000 C 
ATOM     16  C   UNL     1      54.779   0.792  18.880  0.00  0.00    +0.000 C 
ENDBRANCH  11  12
ENDBRANCH   8  11
ENDBRANCH   5   8
ENDBRANCH   1   2
BRANCH   1  17
ATOM     17  N   UNL     1      47.856   5.789  15.360  0.00  0.00    +0.000 NA
ATOM     18  H   UNL     1      47.987   4.783  15.450  0.00  0.00    +0.000 HD
BRANCH  17  20
ATOM     19  C   UNL     1      48.806   7.523  13.831  0.00  0.00    +0.000 C 
ATOM     20  C   UNL     1      48.106   6.162  13.956  0.00  0.00    +0.000 C 
BRANCH  20  21
ATOM     21  C   UNL     1      46.787   6.217  13.198  0.00  0.00    +0.000 A 
ATOM     22  C   UNL     1      46.199   7.354  12.667  0.00  0.00    +0.000 A 
ATOM     23  S   UNL     1      44.789   7.022  11.757  0.00  0.00    +0.000 S 
ATOM     24  C   UNL     1      44.935   5.347  12.021  0.00  0.00    +0.000 A 
ATOM     25  N   UNL     1      44.075   4.458  11.451  0.00  0.00    +0.000 NA
ATOM     26  C   UNL     1      44.342   3.218  11.717  0.00  0.00    +0.000 A 
ATOM     27  N   UNL     1      45.366   2.790  12.517  0.00  0.00    +0.000 N 
ATOM     28  C   UNL     1      46.242   3.649  13.139  0.00  0.00    +0.000 A 
ATOM     29  O   UNL     1      47.130   3.237  13.877  0.00  0.00    +0.000 OA
ATOM     30  C   UNL     1      46.013   5.051  12.833  0.00  0.00    +0.000 A 
ATOM     31  H   UNL     1      45.500   1.809  12.704  0.00  0.00    +0.000 HD
ENDBRANCH  20  21
ENDBRANCH  17  20
ENDBRANCH   1  17
TORSDOF 8
ENDMDL
