MODEL 1
REMARK VINA RESULT:    -6.526      0.000      0.000
REMARK INTER + INTRA:         -11.646
REMARK INTER:                 -10.532
REMARK INTRA:                  -1.114
REMARK UNBOUND:                -1.114
REMARK  Name = 
REMARK  14 active torsions:
REMARK  status: ('A' for Active; 'I' for Inactive)
REMARK    1  A    between atoms: C_1  and  C_2
REMARK    2  A    between atoms: C_2  and  C_3
REMARK    3  A    between atoms: C_2  and  C_4
REMARK    4  A    between atoms: C_2  and  C_5
REMARK    5  A    between atoms: C_5  and  C_6
REMARK    6  A    between atoms: C_6  and  O_7
REMARK    7  A    between atoms: O_7  and  C_8
REMARK    8  A    between atoms: C_8  and  C_9
REMARK    9  A    between atoms: C_9  and  O_10
REMARK   10  A    between atoms: O_10  and  C_11
REMARK   11  A    between atoms: C_14  and  C_15
REMARK   12  A    between atoms: C_15  and  O_16
REMARK   13  A    between atoms: O_16  and  C_17
REMARK   14  A    between atoms: C_24  and  N_25
REMARK                            x       y       z     vdW  Elec       q    Type
REMARK                         _______ _______ _______ _____ _____    ______ ____
ROOT
ATOM      1  C   UNL     1      46.265   6.043  12.682  0.00  0.00    +0.000 A 
ATOM      2  N   UNL     1      45.926   6.503  11.455  0.00  0.00    +0.000 NA
ATOM      3  C   UNL     1      45.281   5.621  10.666  0.00  0.00    +0.000 A 
ATOM      4  C   UNL     1      44.980   4.331  11.075  0.00  0.00    +0.000 A 
ATOM      5  N   UNL     1      45.351   3.864  12.299  0.00  0.00    +0.000 NA
ATOM      6  C   UNL     1      45.998   4.729  13.105  0.00  0.00    +0.000 A 
ENDROOT
BRANCH   6   7
ATOM      7  N   UNL     1      46.377   4.218  14.347  0.00  0.00    +0.000 N 
ATOM      8  H   UNL     1      46.625   5.010  14.932  0.00  0.00    +0.000 HD
ATOM      9  H   UNL     1      47.122   3.536  14.260  0.00  0.00    +0.000 HD
ENDBRANCH   6   7
BRANCH   1  10
ATOM     10  O   UNL     1      46.867   6.924  13.557  0.00  0.00    +0.000 OA
BRANCH  10  11
ATOM     11  C   UNL     1      48.220   7.179  13.163  0.00  0.00    +0.000 C 
BRANCH  11  12
ATOM     12  C   UNL     1      49.115   7.007  14.375  0.00  0.00    +0.000 C 
BRANCH  12  13
ATOM     13  O   UNL     1      48.657   5.908  15.168  0.00  0.00    +0.000 OA
BRANCH  13  14
ATOM     14  C   UNL     1      49.173   6.028  16.490  0.00  0.00    +0.000 C 
BRANCH  14  15
ATOM     15  C   UNL     1      48.187   5.458  17.510  0.00  0.00    +0.000 C 
BRANCH  15  17
ATOM     16  C   UNL     1      47.636   2.983  17.642  0.00  0.00    +0.000 C 
ATOM     17  C   UNL     1      48.618   4.082  18.086  0.00  0.00    +0.000 C 
ATOM     18  C   UNL     1      48.667   4.121  19.624  0.00  0.00    +0.000 C 
ATOM     19  C   UNL     1      50.018   3.719  17.559  0.00  0.00    +0.000 C 
ENDBRANCH  15  17
ENDBRANCH  14  15
ENDBRANCH  13  14
ENDBRANCH  12  13
ENDBRANCH  11  12
ENDBRANCH  10  11
ENDBRANCH   1  10
BRANCH   4  20
ATOM     20  C   UNL     1      44.168   3.426  10.190  0.00  0.00    +0.000 C 
BRANCH  20  21
ATOM     21  O   UNL     1      44.321   3.791   8.812  0.00  0.00    +0.000 OA
BRANCH  21  22
ATOM     22  C   UNL     1      45.351   3.082   8.232  0.00  0.00    +0.000 A 
ATOM     23  C   UNL     1      45.535   1.750   8.584  0.00  0.00    +0.000 A 
ATOM     24  N   UNL     1      46.525   0.988   8.051  0.00  0.00    +0.000 NA
ATOM     25  C   UNL     1      47.311   1.613   7.139  0.00  0.00    +0.000 A 
ATOM     26  C   UNL     1      47.126   2.938   6.794  0.00  0.00    +0.000 A 
ATOM     27  N   UNL     1      46.153   3.698   7.341  0.00  0.00    +0.000 NA
ENDBRANCH  21  22
ENDBRANCH  20  21
ENDBRANCH   4  20
TORSDOF 11
ENDMDL
MODEL 2
REMARK VINA RESULT:    -6.413      1.549      2.558
REMARK INTER + INTRA:         -11.462
REMARK INTER:                 -10.675
REMARK INTRA:                  -0.787
REMARK UNBOUND:                -1.114
REMARK  Name = 
REMARK  14 active torsions:
REMARK  status: ('A' for Active; 'I' for Inactive)
REMARK    1  A    between atoms: C_1  and  C_2
REMARK    2  A    between atoms: C_2  and  C_3
REMARK    3  A    between atoms: C_2  and  C_4
REMARK    4  A    between atoms: C_2  and  C_5
REMARK    5  A    between atoms: C_5  and  C_6
REMARK    6  A    between atoms: C_6  and  O_7
REMARK    7  A    between atoms: O_7  and  C_8
REMARK    8  A    between atoms: C_8  and  C_9
REMARK    9  A    between atoms: C_9  and  O_10
REMARK   10  A    between atoms: O_10  and  C_11
REMARK   11  A    between atoms: C_14  and  C_15
REMARK   12  A    between atoms: C_15  and  O_16
REMARK   13  A    between atoms: O_16  and  C_17
REMARK   14  A    between atoms: C_24  and  N_25
REMARK                            x       y       z     vdW  Elec       q    Type
REMARK                         _______ _______ _______ _____ _____    ______ ____
ROOT
ATOM      1  C   UNL     1      46.772   4.335  13.566  0.00  0.00    +0.000 A 
ATOM      2  N   UNL     1      46.027   3.246  13.261  0.00  0.00    +0.000 NA
ATOM      3  C   UNL     1      45.193   3.393  12.213  0.00  0.00    +0.000 A 
ATOM      4  C   UNL     1      45.098   4.573  11.491  0.00  0.00    +0.000 A 
ATOM      5  N   UNL     1      45.826   5.675  11.823  0.00  0.00    +0.000 NA
ATOM      6  C   UNL     1      46.667   5.551  12.868  0.00  0.00    +0.000 A 
ENDROOT
BRANCH   6   7
ATOM      7  N   UNL     1      47.391   6.699  13.192  0.00  0.00    +0.000 N 
ATOM      8  H   UNL     1      46.821   7.240  13.835  0.00  0.00    +0.000 HD
ATOM      9  H   UNL     1      47.662   7.217  12.364  0.00  0.00    +0.000 HD
ENDBRANCH   6   7
BRANCH   1  10
ATOM     10  O   UNL     1      47.693   4.220  14.588  0.00  0.00    +0.000 OA
BRANCH  10  11
ATOM     11  C   UNL     1      47.054   4.362  15.861  0.00  0.00    +0.000 C 
BRANCH  11  12
ATOM     12  C   UNL     1      47.568   3.273  16.782  0.00  0.00    +0.000 C 
BRANCH  12  13
ATOM     13  O   UNL     1      48.636   2.563  16.150  0.00  0.00    +0.000 OA
BRANCH  13  14
ATOM     14  C   UNL     1      49.699   2.379  17.079  0.00  0.00    +0.000 C 
BRANCH  14  15
ATOM     15  C   UNL     1      49.689   3.482  18.138  0.00  0.00    +0.000 C 
BRANCH  15  17
ATOM     16  C   UNL     1      52.210   3.345  17.865  0.00  0.00    +0.000 C 
ATOM     17  C   UNL     1      51.030   4.261  18.234  0.00  0.00    +0.000 C 
ATOM     18  C   UNL     1      51.245   4.811  19.655  0.00  0.00    +0.000 C 
ATOM     19  C   UNL     1      51.011   5.443  17.248  0.00  0.00    +0.000 C 
ENDBRANCH  15  17
ENDBRANCH  14  15
ENDBRANCH  13  14
ENDBRANCH  12  13
ENDBRANCH  11  12
ENDBRANCH  10  11
ENDBRANCH   1  10
BRANCH   4  20
ATOM     20  C   UNL     1      44.224   4.645  10.269  0.00  0.00    +0.000 C 
BRANCH  20  21
ATOM     21  O   UNL     1      44.061   3.346   9.684  0.00  0.00    +0.000 OA
BRANCH  21  22
ATOM     22  C   UNL     1      45.075   3.085   8.787  0.00  0.00    +0.000 A 
ATOM     23  C   UNL     1      45.596   1.798   8.715  0.00  0.00    +0.000 A 
ATOM     24  N   UNL     1      46.592   1.466   7.853  0.00  0.00    +0.000 NA
ATOM     25  C   UNL     1      47.031   2.472   7.057  0.00  0.00    +0.000 A 
ATOM     26  C   UNL     1      46.513   3.751   7.135  0.00  0.00    +0.000 A 
ATOM     27  N   UNL     1      45.536   4.082   8.006  0.00  0.00    +0.000 NA
ENDBRANCH  21  22
ENDBRANCH  20  21
ENDBRANCH   4  20
TORSDOF 11
ENDMDL
MODEL 3
REMARK VINA RESULT:    -6.314      1.650      2.788
REMARK INTER + INTRA:         -11.303
REMARK INTER:                 -10.495
REMARK INTRA:                  -0.808
REMARK UNBOUND:                -1.114
REMARK  Name = 
REMARK  14 active torsions:
REMARK  status: ('A' for Active; 'I' for Inactive)
REMARK    1  A    between atoms: C_1  and  C_2
REMARK    2  A    between atoms: C_2  and  C_3
REMARK    3  A    between atoms: C_2  and  C_4
REMARK    4  A    between atoms: C_2  and  C_5
REMARK    5  A    between atoms: C_5  and  C_6
REMARK    6  A    between atoms: C_6  and  O_7
REMARK    7  A    between atoms: O_7  and  C_8
REMARK    8  A    between atoms: C_8  and  C_9
REMARK    9  A    between atoms: C_9  and  O_10
REMARK   10  A    between atoms: O_10  and  C_11
REMARK   11  A    between atoms: C_14  and  C_15
REMARK   12  A    between atoms: C_15  and  O_16
REMARK   13  A    between atoms: O_16  and  C_17
REMARK   14  A    between atoms: C_24  and  N_25
REMARK                            x       y       z     vdW  Elec       q    Type
REMARK                         _______ _______ _______ _____ _____    ______ ____
ROOT
ATOM      1  C   UNL     1      46.640   4.500  13.782  0.00  0.00    +0.000 A 
ATOM      2  N   UNL     1      46.207   3.274  13.405  0.00  0.00    +0.000 NA
ATOM      3  C   UNL     1      45.300   3.263  12.409  0.00  0.00    +0.000 A 
ATOM      4  C   UNL     1      44.837   4.423  11.804  0.00  0.00    +0.000 A 
ATOM      5  N   UNL     1      45.253   5.655  12.209  0.00  0.00    +0.000 NA
ATOM      6  C   UNL     1      46.160   5.689  13.204  0.00  0.00    +0.000 A 
ENDROOT
BRANCH   6   7
ATOM      7  N   UNL     1      46.558   6.965  13.606  0.00  0.00    +0.000 N 
ATOM      8  H   UNL     1      46.760   6.916  14.600  0.00  0.00    +0.000 HD
ATOM      9  H   UNL     1      45.862   7.664  13.373  0.00  0.00    +0.000 HD
ENDBRANCH   6   7
BRANCH   1  10
ATOM     10  O   UNL     1      47.621   4.568  14.751  0.00  0.00    +0.000 OA
BRANCH  10  11
ATOM     11  C   UNL     1      47.144   4.024  15.987  0.00  0.00    +0.000 C 
BRANCH  11  12
ATOM     12  C   UNL     1      48.131   2.977  16.464  0.00  0.00    +0.000 C 
BRANCH  12  13
ATOM     13  O   UNL     1      48.351   3.118  17.870  0.00  0.00    +0.000 OA
BRANCH  13  14
ATOM     14  C   UNL     1      49.491   3.943  18.092  0.00  0.00    +0.000 C 
BRANCH  14  15
ATOM     15  C   UNL     1      49.316   4.779  19.360  0.00  0.00    +0.000 C 
BRANCH  15  17
ATOM     16  C   UNL     1      49.184   7.201  20.111  0.00  0.00    +0.000 C 
ATOM     17  C   UNL     1      48.660   6.163  19.103  0.00  0.00    +0.000 C 
ATOM     18  C   UNL     1      47.128   6.075  19.223  0.00  0.00    +0.000 C 
ATOM     19  C   UNL     1      49.015   6.647  17.685  0.00  0.00    +0.000 C 
ENDBRANCH  15  17
ENDBRANCH  14  15
ENDBRANCH  13  14
ENDBRANCH  12  13
ENDBRANCH  11  12
ENDBRANCH  10  11
ENDBRANCH   1  10
BRANCH   4  20
ATOM     20  C   UNL     1      43.903   4.342  10.629  0.00  0.00    +0.000 C 
BRANCH  20  21
ATOM     21  O   UNL     1      43.906   3.025  10.065  0.00  0.00    +0.000 OA
BRANCH  21  22
ATOM     22  C   UNL     1      44.848   2.926   9.063  0.00  0.00    +0.000 A 
ATOM     23  C   UNL     1      45.115   4.040   8.276  0.00  0.00    +0.000 A 
ATOM     24  N   UNL     1      46.032   4.018   7.275  0.00  0.00    +0.000 NA
ATOM     25  C   UNL     1      46.681   2.840   7.107  0.00  0.00    +0.000 A 
ATOM     26  C   UNL     1      46.411   1.734   7.890  0.00  0.00    +0.000 A 
ATOM     27  N   UNL     1      45.484   1.753   8.872  0.00  0.00    +0.000 NA
ENDBRANCH  21  22
ENDBRANCH  20  21
ENDBRANCH   4  20
TORSDOF 11
ENDMDL
MODEL 4
REMARK VINA RESULT:    -6.205      1.788      2.849
REMARK INTER + INTRA:         -11.128
REMARK INTER:                 -10.619
REMARK INTRA:                  -0.509
REMARK UNBOUND:                -1.114
REMARK  Name = 
REMARK  14 active torsions:
REMARK  status: ('A' for Active; 'I' for Inactive)
REMARK    1  A    between atoms: C_1  and  C_2
REMARK    2  A    between atoms: C_2  and  C_3
REMARK    3  A    between atoms: C_2  and  C_4
REMARK    4  A    between atoms: C_2  and  C_5
REMARK    5  A    between atoms: C_5  and  C_6
REMARK    6  A    between atoms: C_6  and  O_7
REMARK    7  A    between atoms: O_7  and  C_8
REMARK    8  A    between atoms: C_8  and  C_9
REMARK    9  A    between atoms: C_9  and  O_10
REMARK   10  A    between atoms: O_10  and  C_11
REMARK   11  A    between atoms: C_14  and  C_15
REMARK   12  A    between atoms: C_15  and  O_16
REMARK   13  A    between atoms: O_16  and  C_17
REMARK   14  A    between atoms: C_24  and  N_25
REMARK                            x       y       z     vdW  Elec       q    Type
REMARK                         _______ _______ _______ _____ _____    ______ ____
ROOT
ATOM      1  C   UNL     1      46.586   4.777  13.715  0.00  0.00    +0.000 A 
ATOM      2  N   UNL     1      46.364   3.461  13.488  0.00  0.00    +0.000 NA
ATOM      3  C   UNL     1      45.475   3.184  12.514  0.00  0.00    +0.000 A 
ATOM      4  C   UNL     1      44.829   4.174  11.788  0.00  0.00    +0.000 A 
ATOM      5  N   UNL     1      45.032   5.496  12.042  0.00  0.00    +0.000 NA
ATOM      6  C   UNL     1      45.917   5.795  13.013  0.00  0.00    +0.000 A 
ENDROOT
BRANCH   6   7
ATOM      7  N   UNL     1      46.096   7.157  13.260  0.00  0.00    +0.000 N 
ATOM      8  H   UNL     1      46.323   7.255  14.245  0.00  0.00    +0.000 HD
ATOM      9  H   UNL     1      45.285   7.697  12.980  0.00  0.00    +0.000 HD
ENDBRANCH   6   7
BRANCH   1  10
ATOM     10  O   UNL     1      47.538   5.117  14.655  0.00  0.00    +0.000 OA
BRANCH  10  11
ATOM     11  C   UNL     1      47.304   4.420  15.884  0.00  0.00    +0.000 C 
BRANCH  11  12
ATOM     12  C   UNL     1      48.335   4.873  16.898  0.00  0.00    +0.000 C 
BRANCH  12  13
ATOM     13  O   UNL     1      49.576   4.201  16.666  0.00  0.00    +0.000 OA
BRANCH  13  14
ATOM     14  C   UNL     1      50.271   4.047  17.899  0.00  0.00    +0.000 C 
BRANCH  14  15
ATOM     15  C   UNL     1      51.446   3.080  17.742  0.00  0.00    +0.000 C 
BRANCH  15  17
ATOM     16  C   UNL     1      53.013   5.057  17.452  0.00  0.00    +0.000 C 
ATOM     17  C   UNL     1      52.814   3.697  18.144  0.00  0.00    +0.000 C 
ATOM     18  C   UNL     1      53.973   2.762  17.757  0.00  0.00    +0.000 C 
ATOM     19  C   UNL     1      52.850   3.921  19.667  0.00  0.00    +0.000 C 
ENDBRANCH  15  17
ENDBRANCH  14  15
ENDBRANCH  13  14
ENDBRANCH  12  13
ENDBRANCH  11  12
ENDBRANCH  10  11
ENDBRANCH   1  10
BRANCH   4  20
ATOM     20  C   UNL     1      43.925   3.804  10.645  0.00  0.00    +0.000 C 
BRANCH  20  21
ATOM     21  O   UNL     1      44.352   4.439   9.433  0.00  0.00    +0.000 OA
BRANCH  21  22
ATOM     22  C   UNL     1      45.211   3.620   8.730  0.00  0.00    +0.000 A 
ATOM     23  C   UNL     1      45.239   2.262   9.025  0.00  0.00    +0.000 A 
ATOM     24  N   UNL     1      46.055   1.394   8.372  0.00  0.00    +0.000 NA
ATOM     25  C   UNL     1      46.827   1.942   7.401  0.00  0.00    +0.000 A 
ATOM     26  C   UNL     1      46.797   3.293   7.113  0.00  0.00    +0.000 A 
ATOM     27  N   UNL     1      45.999   4.156   7.778  0.00  0.00    +0.000 NA
ENDBRANCH  21  22
ENDBRANCH  20  21
ENDBRANCH   4  20
TORSDOF 11
ENDMDL
MODEL 5
REMARK VINA RESULT:    -6.195      3.394      4.474
REMARK INTER + INTRA:         -11.111
REMARK INTER:                 -10.319
REMARK INTRA:                  -0.792
REMARK UNBOUND:                -1.114
REMARK  Name = 
REMARK  14 active torsions:
REMARK  status: ('A' for Active; 'I' for Inactive)
REMARK    1  A    between atoms: C_1  and  C_2
REMARK    2  A    between atoms: C_2  and  C_3
REMARK    3  A    between atoms: C_2  and  C_4
REMARK    4  A    between atoms: C_2  and  C_5
REMARK    5  A    between atoms: C_5  and  C_6
REMARK    6  A    between atoms: C_6  and  O_7
REMARK    7  A    between atoms: O_7  and  C_8
REMARK    8  A    between atoms: C_8  and  C_9
REMARK    9  A    between atoms: C_9  and  O_10
REMARK   10  A    between atoms: O_10  and  C_11
REMARK   11  A    between atoms: C_14  and  C_15
REMARK   12  A    between atoms: C_15  and  O_16
REMARK   13  A    between atoms: O_16  and  C_17
REMARK   14  A    between atoms: C_24  and  N_25
REMARK                            x       y       z     vdW  Elec       q    Type
REMARK                         _______ _______ _______ _____ _____    ______ ____
ROOT
ATOM      1  C   UNL     1      44.586   5.292  12.268  0.00  0.00    +0.000 A 
ATOM      2  N   UNL     1      45.280   4.139  12.411  0.00  0.00    +0.000 NA
ATOM      3  C   UNL     1      45.146   3.255  11.404  0.00  0.00    +0.000 A 
ATOM      4  C   UNL     1      44.354   3.502  10.292  0.00  0.00    +0.000 A 
ATOM      5  N   UNL     1      43.632   4.650  10.168  0.00  0.00    +0.000 NA
ATOM      6  C   UNL     1      43.752   5.548  11.165  0.00  0.00    +0.000 A 
ENDROOT
BRANCH   6   7
ATOM      7  N   UNL     1      42.992   6.710  11.017  0.00  0.00    +0.000 N 
ATOM      8  H   UNL     1      42.557   6.668  10.101  0.00  0.00    +0.000 HD
ATOM      9  H   UNL     1      43.551   7.543  11.158  0.00  0.00    +0.000 HD
ENDBRANCH   6   7
BRANCH   1  10
ATOM     10  O   UNL     1      44.740   6.263  13.238  0.00  0.00    +0.000 OA
BRANCH  10  11
ATOM     11  C   UNL     1      46.016   6.901  13.112  0.00  0.00    +0.000 C 
BRANCH  11  12
ATOM     12  C   UNL     1      45.792   8.377  12.850  0.00  0.00    +0.000 C 
BRANCH  12  13
ATOM     13  O   UNL     1      47.048   9.038  12.676  0.00  0.00    +0.000 OA
BRANCH  13  14
ATOM     14  C   UNL     1      48.100   8.077  12.711  0.00  0.00    +0.000 C 
BRANCH  14  15
ATOM     15  C   UNL     1      48.920   8.126  11.421  0.00  0.00    +0.000 C 
BRANCH  15  17
ATOM     16  C   UNL     1      50.569  10.046  11.212  0.00  0.00    +0.000 C 
ATOM     17  C   UNL     1      50.390   8.579  11.640  0.00  0.00    +0.000 C 
ATOM     18  C   UNL     1      51.361   7.699  10.834  0.00  0.00    +0.000 C 
ATOM     19  C   UNL     1      50.748   8.466  13.133  0.00  0.00    +0.000 C 
ENDBRANCH  15  17
ENDBRANCH  14  15
ENDBRANCH  13  14
ENDBRANCH  12  13
ENDBRANCH  11  12
ENDBRANCH  10  11
ENDBRANCH   1  10
BRANCH   4  20
ATOM     20  C   UNL     1      44.323   2.522   9.152  0.00  0.00    +0.000 C 
BRANCH  20  21
ATOM     21  O   UNL     1      45.538   1.762   9.102  0.00  0.00    +0.000 OA
BRANCH  21  22
ATOM     22  C   UNL     1      46.230   2.026   7.938  0.00  0.00    +0.000 A 
ATOM     23  C   UNL     1      47.170   1.105   7.490  0.00  0.00    +0.000 A 
ATOM     24  N   UNL     1      47.886   1.296   6.351  0.00  0.00    +0.000 NA
ATOM     25  C   UNL     1      47.607   2.437   5.674  0.00  0.00    +0.000 A 
ATOM     26  C   UNL     1      46.674   3.350   6.125  0.00  0.00    +0.000 A 
ATOM     27  N   UNL     1      45.978   3.167   7.268  0.00  0.00    +0.000 NA
ENDBRANCH  21  22
ENDBRANCH  20  21
ENDBRANCH   4  20
TORSDOF 11
ENDMDL
MODEL 6
REMARK VINA RESULT:    -6.101      1.288      2.131
REMARK INTER + INTRA:         -10.960
REMARK INTER:                 -10.008
REMARK INTRA:                  -0.952
REMARK UNBOUND:                -1.114
REMARK  Name = 
REMARK  14 active torsions:
REMARK  status: ('A' for Active; 'I' for Inactive)
REMARK    1  A    between atoms: C_1  and  C_2
REMARK    2  A    between atoms: C_2  and  C_3
REMARK    3  A    between atoms: C_2  and  C_4
REMARK    4  A    between atoms: C_2  and  C_5
REMARK    5  A    between atoms: C_5  and  C_6
REMARK    6  A    between atoms: C_6  and  O_7
REMARK    7  A    between atoms: O_7  and  C_8
REMARK    8  A    between atoms: C_8  and  C_9
REMARK    9  A    between atoms: C_9  and  O_10
REMARK   10  A    between atoms: O_10  and  C_11
REMARK   11  A    between atoms: C_14  and  C_15
REMARK   12  A    between atoms: C_15  and  O_16
REMARK   13  A    between atoms: O_16  and  C_17
REMARK   14  A    between atoms: C_24  and  N_25
REMARK                            x       y       z     vdW  Elec       q    Type
REMARK                         _______ _______ _______ _____ _____    ______ ____
ROOT
ATOM      1  C   UNL     1      46.302   6.198  13.131  0.00  0.00    +0.000 A 
ATOM      2  N   UNL     1      46.700   4.921  13.343  0.00  0.00    +0.000 NA
ATOM      3  C   UNL     1      45.870   3.971  12.871  0.00  0.00    +0.000 A 
ATOM      4  C   UNL     1      44.687   4.271  12.212  0.00  0.00    +0.000 A 
ATOM      5  N   UNL     1      44.276   5.556  12.029  0.00  0.00    +0.000 NA
ATOM      6  C   UNL     1      45.091   6.523  12.494  0.00  0.00    +0.000 A 
ENDROOT
BRANCH   6   7
ATOM      7  N   UNL     1      44.638   7.829  12.304  0.00  0.00    +0.000 N 
ATOM      8  H   UNL     1      44.796   8.329  13.173  0.00  0.00    +0.000 HD
ATOM      9  H   UNL     1      43.671   7.849  12.000  0.00  0.00    +0.000 HD
ENDBRANCH   6   7
BRANCH   1  10
ATOM     10  O   UNL     1      47.147   7.213  13.532  0.00  0.00    +0.000 OA
BRANCH  10  11
ATOM     11  C   UNL     1      48.481   6.719  13.703  0.00  0.00    +0.000 C 
BRANCH  11  12
ATOM     12  C   UNL     1      49.127   7.465  14.853  0.00  0.00    +0.000 C 
BRANCH  12  13
ATOM     13  O   UNL     1      50.056   6.612  15.528  0.00  0.00    +0.000 OA
BRANCH  13  14
ATOM     14  C   UNL     1      49.503   6.201  16.775  0.00  0.00    +0.000 C 
BRANCH  14  15
ATOM     15  C   UNL     1      50.009   4.809  17.159  0.00  0.00    +0.000 C 
BRANCH  15  17
ATOM     16  C   UNL     1      48.567   3.745  18.958  0.00  0.00    +0.000 C 
ATOM     17  C   UNL     1      48.870   3.795  17.450  0.00  0.00    +0.000 C 
ATOM     18  C   UNL     1      49.254   2.385  16.967  0.00  0.00    +0.000 C 
ATOM     19  C   UNL     1      47.590   4.233  16.715  0.00  0.00    +0.000 C 
ENDBRANCH  15  17
ENDBRANCH  14  15
ENDBRANCH  13  14
ENDBRANCH  12  13
ENDBRANCH  11  12
ENDBRANCH  10  11
ENDBRANCH   1  10
BRANCH   4  20
ATOM     20  C   UNL     1      43.852   3.170  11.618  0.00  0.00    +0.000 C 
BRANCH  20  21
ATOM     21  O   UNL     1      43.449   3.501  10.283  0.00  0.00    +0.000 OA
BRANCH  21  22
ATOM     22  C   UNL     1      44.450   3.199   9.383  0.00  0.00    +0.000 A 
ATOM     23  C   UNL     1      44.936   4.204   8.553  0.00  0.00    +0.000 A 
ATOM     24  N   UNL     1      45.923   3.981   7.647  0.00  0.00    +0.000 NA
ATOM     25  C   UNL     1      46.412   2.717   7.619  0.00  0.00    +0.000 A 
ATOM     26  C   UNL     1      45.925   1.722   8.444  0.00  0.00    +0.000 A 
ATOM     27  N   UNL     1      44.929   1.941   9.330  0.00  0.00    +0.000 NA
ENDBRANCH  21  22
ENDBRANCH  20  21
ENDBRANCH   4  20
TORSDOF 11
ENDMDL
MODEL 7
REMARK VINA RESULT:    -5.773      2.069      8.689
REMARK INTER + INTRA:         -10.430
REMARK INTER:                  -9.425
REMARK INTRA:                  -1.005
REMARK UNBOUND:                -1.114
REMARK  Name = 
REMARK  14 active torsions:
REMARK  status: ('A' for Active; 'I' for Inactive)
REMARK    1  A    between atoms: C_1  and  C_2
REMARK    2  A    between atoms: C_2  and  C_3
REMARK    3  A    between atoms: C_2  and  C_4
REMARK    4  A    between atoms: C_2  and  C_5
REMARK    5  A    between atoms: C_5  and  C_6
REMARK    6  A    between atoms: C_6  and  O_7
REMARK    7  A    between atoms: O_7  and  C_8
REMARK    8  A    between atoms: C_8  and  C_9
REMARK    9  A    between atoms: C_9  and  O_10
REMARK   10  A    between atoms: O_10  and  C_11
REMARK   11  A    between atoms: C_14  and  C_15
REMARK   12  A    between atoms: C_15  and  O_16
REMARK   13  A    between atoms: O_16  and  C_17
REMARK   14  A    between atoms: C_24  and  N_25
REMARK                            x       y       z     vdW  Elec       q    Type
REMARK                         _______ _______ _______ _____ _____    ______ ____
ROOT
ATOM      1  C   UNL     1      45.264   5.210  12.268  0.00  0.00    +0.000 A 
ATOM      2  N   UNL     1      45.746   6.432  12.597  0.00  0.00    +0.000 NA
ATOM      3  C   UNL     1      46.669   6.443  13.579  0.00  0.00    +0.000 A 
ATOM      4  C   UNL     1      47.102   5.287  14.212  0.00  0.00    +0.000 A 
ATOM      5  N   UNL     1      46.591   4.065  13.898  0.00  0.00    +0.000 NA
ATOM      6  C   UNL     1      45.666   4.031  12.919  0.00  0.00    +0.000 A 
ENDROOT
BRANCH   6   7
ATOM      7  N   UNL     1      45.151   2.767  12.628  0.00  0.00    +0.000 N 
ATOM      8  H   UNL     1      45.173   2.229  13.490  0.00  0.00    +0.000 HD
ATOM      9  H   UNL     1      45.653   2.324  11.867  0.00  0.00    +0.000 HD
ENDBRANCH   6   7
BRANCH   1  10
ATOM     10  O   UNL     1      44.366   5.132  11.222  0.00  0.00    +0.000 OA
BRANCH  10  11
ATOM     11  C   UNL     1      45.058   5.026   9.972  0.00  0.00    +0.000 C 
BRANCH  11  12
ATOM     12  C   UNL     1      44.326   4.026   9.100  0.00  0.00    +0.000 C 
BRANCH  12  13
ATOM     13  O   UNL     1      44.515   2.703   9.610  0.00  0.00    +0.000 OA
BRANCH  13  14
ATOM     14  C   UNL     1      45.400   1.986   8.754  0.00  0.00    +0.000 C 
BRANCH  14  15
ATOM     15  C   UNL     1      45.369   2.563   7.338  0.00  0.00    +0.000 C 
BRANCH  15  17
ATOM     16  C   UNL     1      46.672   2.771   5.169  0.00  0.00    +0.000 C 
ATOM     17  C   UNL     1      46.777   2.723   6.703  0.00  0.00    +0.000 C 
ATOM     18  C   UNL     1      47.697   1.557   7.108  0.00  0.00    +0.000 C 
ATOM     19  C   UNL     1      47.413   4.040   7.185  0.00  0.00    +0.000 C 
ENDBRANCH  15  17
ENDBRANCH  14  15
ENDBRANCH  13  14
ENDBRANCH  12  13
ENDBRANCH  11  12
ENDBRANCH  10  11
ENDBRANCH   1  10
BRANCH   4  20
ATOM     20  C   UNL     1      48.209   5.351  15.229  0.00  0.00    +0.000 C 
BRANCH  20  21
ATOM     21  O   UNL     1      48.177   4.205  16.088  0.00  0.00    +0.000 OA
BRANCH  21  22
ATOM     22  C   UNL     1      48.954   4.414  17.208  0.00  0.00    +0.000 A 
ATOM     23  C   UNL     1      48.331   4.707  18.416  0.00  0.00    +0.000 A 
ATOM     24  N   UNL     1      49.032   4.921  19.560  0.00  0.00    +0.000 NA
ATOM     25  C   UNL     1      50.378   4.813  19.446  0.00  0.00    +0.000 A 
ATOM     26  C   UNL     1      50.993   4.524  18.243  0.00  0.00    +0.000 A 
ATOM     27  N   UNL     1      50.295   4.331  17.103  0.00  0.00    +0.000 NA
ENDBRANCH  21  22
ENDBRANCH  20  21
ENDBRANCH   4  20
TORSDOF 11
ENDMDL
MODEL 8
REMARK VINA RESULT:    -5.608      3.250      4.931
REMARK INTER + INTRA:         -10.164
REMARK INTER:                  -9.400
REMARK INTRA:                  -0.765
REMARK UNBOUND:                -1.114
REMARK  Name = 
REMARK  14 active torsions:
REMARK  status: ('A' for Active; 'I' for Inactive)
REMARK    1  A    between atoms: C_1  and  C_2
REMARK    2  A    between atoms: C_2  and  C_3
REMARK    3  A    between atoms: C_2  and  C_4
REMARK    4  A    between atoms: C_2  and  C_5
REMARK    5  A    between atoms: C_5  and  C_6
REMARK    6  A    between atoms: C_6  and  O_7
REMARK    7  A    between atoms: O_7  and  C_8
REMARK    8  A    between atoms: C_8  and  C_9
REMARK    9  A    between atoms: C_9  and  O_10
REMARK   10  A    between atoms: O_10  and  C_11
REMARK   11  A    between atoms: C_14  and  C_15
REMARK   12  A    between atoms: C_15  and  O_16
REMARK   13  A    between atoms: O_16  and  C_17
REMARK   14  A    between atoms: C_24  and  N_25
REMARK                            x       y       z     vdW  Elec       q    Type
REMARK                         _______ _______ _______ _____ _____    ______ ____
ROOT
ATOM      1  C   UNL     1      45.433   7.089  12.594  0.00  0.00    +0.000 A 
ATOM      2  N   UNL     1      46.082   6.053  13.177  0.00  0.00    +0.000 NA
ATOM      3  C   UNL     1      45.712   4.829  12.754  0.00  0.00    +0.000 A 
ATOM      4  C   UNL     1      44.736   4.633  11.788  0.00  0.00    +0.000 A 
ATOM      5  N   UNL     1      44.065   5.676  11.228  0.00  0.00    +0.000 NA
ATOM      6  C   UNL     1      44.418   6.910  11.636  0.00  0.00    +0.000 A 
ENDROOT
BRANCH   6   7
ATOM      7  N   UNL     1      43.704   7.959  11.055  0.00  0.00    +0.000 N 
ATOM      8  H   UNL     1      43.665   7.777  10.057  0.00  0.00    +0.000 HD
ATOM      9  H   UNL     1      44.110   8.860  11.283  0.00  0.00    +0.000 HD
ENDBRANCH   6   7
BRANCH   1  10
ATOM     10  O   UNL     1      45.818   8.368  12.939  0.00  0.00    +0.000 OA
BRANCH  10  11
ATOM     11  C   UNL     1      47.083   8.349  13.610  0.00  0.00    +0.000 C 
BRANCH  11  12
ATOM     12  C   UNL     1      48.118   8.990  12.707  0.00  0.00    +0.000 C 
BRANCH  12  13
ATOM     13  O   UNL     1      49.289   8.171  12.647  0.00  0.00    +0.000 OA
BRANCH  13  14
ATOM     14  C   UNL     1      50.219   8.739  11.729  0.00  0.00    +0.000 C 
BRANCH  14  15
ATOM     15  C   UNL     1      50.961   7.644  10.962  0.00  0.00    +0.000 C 
BRANCH  15  17
ATOM     16  C   UNL     1      52.698   7.279   9.147  0.00  0.00    +0.000 C 
ATOM     17  C   UNL     1      52.329   8.105  10.391  0.00  0.00    +0.000 C 
ATOM     18  C   UNL     1      53.442   7.954  11.443  0.00  0.00    +0.000 C 
ATOM     19  C   UNL     1      52.241   9.586   9.978  0.00  0.00    +0.000 C 
ENDBRANCH  15  17
ENDBRANCH  14  15
ENDBRANCH  13  14
ENDBRANCH  12  13
ENDBRANCH  11  12
ENDBRANCH  10  11
ENDBRANCH   1  10
BRANCH   4  20
ATOM     20  C   UNL     1      44.439   3.248  11.283  0.00  0.00    +0.000 C 
BRANCH  20  21
ATOM     21  O   UNL     1      43.903   3.295   9.955  0.00  0.00    +0.000 OA
BRANCH  21  22
ATOM     22  C   UNL     1      44.888   3.044   9.022  0.00  0.00    +0.000 A 
ATOM     23  C   UNL     1      45.335   4.085   8.217  0.00  0.00    +0.000 A 
ATOM     24  N   UNL     1      46.304   3.913   7.281  0.00  0.00    +0.000 NA
ATOM     25  C   UNL     1      46.816   2.661   7.198  0.00  0.00    +0.000 A 
ATOM     26  C   UNL     1      46.366   1.628   7.998  0.00  0.00    +0.000 A 
ATOM     27  N   UNL     1      45.388   1.797   8.915  0.00  0.00    +0.000 NA
ENDBRANCH  21  22
ENDBRANCH  20  21
ENDBRANCH   4  20
TORSDOF 11
ENDMDL
MODEL 9
REMARK VINA RESULT:    -5.543      1.499      2.504
REMARK INTER + INTRA:         -10.060
REMARK INTER:                  -9.268
REMARK INTRA:                  -0.792
REMARK UNBOUND:                -1.114
REMARK  Name = 
REMARK  14 active torsions:
REMARK  status: ('A' for Active; 'I' for Inactive)
REMARK    1  A    between atoms: C_1  and  C_2
REMARK    2  A    between atoms: C_2  and  C_3
REMARK    3  A    between atoms: C_2  and  C_4
REMARK    4  A    between atoms: C_2  and  C_5
REMARK    5  A    between atoms: C_5  and  C_6
REMARK    6  A    between atoms: C_6  and  O_7
REMARK    7  A    between atoms: O_7  and  C_8
REMARK    8  A    between atoms: C_8  and  C_9
REMARK    9  A    between atoms: C_9  and  O_10
REMARK   10  A    between atoms: O_10  and  C_11
REMARK   11  A    between atoms: C_14  and  C_15
REMARK   12  A    between atoms: C_15  and  O_16
REMARK   13  A    between atoms: O_16  and  C_17
REMARK   14  A    between atoms: C_24  and  N_25
REMARK                            x       y       z     vdW  Elec       q    Type
REMARK                         _______ _______ _______ _____ _____    ______ ____
ROOT
ATOM      1  C   UNL     1      47.818   5.897  13.395  0.00  0.00    +0.000 A 
ATOM      2  N   UNL     1      47.217   4.783  13.875  0.00  0.00    +0.000 NA
ATOM      3  C   UNL     1      46.132   4.371  13.191  0.00  0.00    +0.000 A 
ATOM      4  C   UNL     1      45.658   5.036  12.069  0.00  0.00    +0.000 A 
ATOM      5  N   UNL     1      46.248   6.173  11.609  0.00  0.00    +0.000 NA
ATOM      6  C   UNL     1      47.334   6.603  12.279  0.00  0.00    +0.000 A 
ENDROOT
BRANCH   6   7
ATOM      7  N   UNL     1      47.910   7.778  11.793  0.00  0.00    +0.000 N 
ATOM      8  H   UNL     1      47.887   8.457  12.548  0.00  0.00    +0.000 HD
ATOM      9  H   UNL     1      47.448   8.100  10.950  0.00  0.00    +0.000 HD
ENDBRANCH   6   7
BRANCH   1  10
ATOM     10  O   UNL     1      48.974   6.325  14.017  0.00  0.00    +0.000 OA
BRANCH  10  11
ATOM     11  C   UNL     1      48.671   6.938  15.275  0.00  0.00    +0.000 C 
BRANCH  11  12
ATOM     12  C   UNL     1      49.552   6.315  16.339  0.00  0.00    +0.000 C 
BRANCH  12  13
ATOM     13  O   UNL     1      49.163   4.956  16.560  0.00  0.00    +0.000 OA
BRANCH  13  14
ATOM     14  C   UNL     1      49.164   4.685  17.959  0.00  0.00    +0.000 C 
BRANCH  14  15
ATOM     15  C   UNL     1      48.055   5.469  18.663  0.00  0.00    +0.000 C 
BRANCH  15  17
ATOM     16  C   UNL     1      48.988   7.482  19.896  0.00  0.00    +0.000 C 
ATOM     17  C   UNL     1      48.479   6.037  20.044  0.00  0.00    +0.000 C 
ATOM     18  C   UNL     1      49.588   5.176  20.675  0.00  0.00    +0.000 C 
ATOM     19  C   UNL     1      47.266   6.048  20.992  0.00  0.00    +0.000 C 
ENDBRANCH  15  17
ENDBRANCH  14  15
ENDBRANCH  13  14
ENDBRANCH  12  13
ENDBRANCH  11  12
ENDBRANCH  10  11
ENDBRANCH   1  10
BRANCH   4  20
ATOM     20  C   UNL     1      44.505   4.471  11.287  0.00  0.00    +0.000 C 
BRANCH  20  21
ATOM     21  O   UNL     1      44.552   4.908   9.923  0.00  0.00    +0.000 OA
BRANCH  21  22
ATOM     22  C   UNL     1      45.192   3.975   9.134  0.00  0.00    +0.000 A 
ATOM     23  C   UNL     1      45.081   2.628   9.459  0.00  0.00    +0.000 A 
ATOM     24  N   UNL     1      45.679   1.653   8.726  0.00  0.00    +0.000 NA
ATOM     25  C   UNL     1      46.379   2.084   7.647  0.00  0.00    +0.000 A 
ATOM     26  C   UNL     1      46.489   3.424   7.330  0.00  0.00    +0.000 A 
ATOM     27  N   UNL     1      45.909   4.393   8.072  0.00  0.00    +0.000 NA
ENDBRANCH  21  22
ENDBRANCH  20  21
ENDBRANCH   4  20
TORSDOF 11
ENDMDL
