MODEL 1
REMARK VINA RESULT:    -8.053      0.000      0.000
REMARK INTER + INTRA:         -10.121
REMARK INTER:                  -9.701
REMARK INTRA:                  -0.421
REMARK UNBOUND:                -0.421
REMARK  Name = 
REMARK  4 active torsions:
REMARK  status: ('A' for Active; 'I' for Inactive)
REMARK    1  A    between atoms: N_1  and  C_2
REMARK    2  A    between atoms: C_2  and  C_3
REMARK    3  A    between atoms: C_6  and  C_7
REMARK    4  A    between atoms: C_7  and  N_8
REMARK                            x       y       z     vdW  Elec       q    Type
REMARK                         _______ _______ _______ _____ _____    ______ ____
ROOT
ATOM      1  C   UNL     1      46.522   2.613   6.969  0.00  0.00    +0.000 A 
ATOM      2  C   UNL     1      46.098   3.919   7.274  0.00  0.00    +0.000 A 
ATOM      3  C   UNL     1      45.327   4.182   8.409  0.00  0.00    +0.000 A 
ATOM      4  C   UNL     1      44.959   3.146   9.275  0.00  0.00    +0.000 A 
ATOM      5  C   UNL     1      45.409   1.847   8.997  0.00  0.00    +0.000 A 
ATOM      6  C   UNL     1      46.185   1.584   7.861  0.00  0.00    +0.000 A 
ATOM      7 CL   UNL     1      46.704  -0.046   7.610  0.00  0.00    +0.000 Cl
ENDROOT
BRANCH   1   8
ATOM      8  C   UNL     1      47.340   2.388   5.722  0.00  0.00    +0.000 C 
BRANCH   8   9
ATOM      9  N   UNL     1      48.720   2.052   6.044  0.00  0.00    +0.000 NA
ATOM     10  H   UNL     1      49.022   1.285   5.446  0.00  0.00    +0.000 HD
ATOM     11  H   UNL     1      48.754   1.691   6.997  0.00  0.00    +0.000 HD
ENDBRANCH   8   9
ENDBRANCH   1   8
BRANCH   4  12
ATOM     12  C   UNL     1      44.083   3.413  10.471  0.00  0.00    +0.000 C 
BRANCH  12  13
ATOM     13  N   UNL     1      44.822   3.939  11.609  0.00  0.00    +0.000 N 
ATOM     14  C   UNL     1      45.582   3.187  12.481  0.00  0.00    +0.000 A 
ATOM     15  C   UNL     1      46.286   4.056  13.294  0.00  0.00    +0.000 A 
ATOM     16  C   UNL     1      45.944   5.370  12.900  0.00  0.00    +0.000 A 
ATOM     17  N   UNL     1      46.395   6.568  13.359  0.00  0.00    +0.000 NA
ATOM     18  C   UNL     1      45.845   7.617  12.704  0.00  0.00    +0.000 A 
ATOM     19  C   UNL     1      44.911   7.496  11.684  0.00  0.00    +0.000 A 
ATOM     20  N   UNL     1      44.453   6.313  11.206  0.00  0.00    +0.000 NA
ATOM     21  C   UNL     1      45.017   5.274  11.864  0.00  0.00    +0.000 A 
ENDBRANCH  12  13
ENDBRANCH   4  12
TORSDOF 4
ENDMDL
MODEL 2
REMARK VINA RESULT:    -7.705      0.841      2.030
REMARK INTER + INTRA:          -9.702
REMARK INTER:                  -9.327
REMARK INTRA:                  -0.375
REMARK UNBOUND:                -0.421
REMARK  Name = 
REMARK  4 active torsions:
REMARK  status: ('A' for Active; 'I' for Inactive)
REMARK    1  A    between atoms: N_1  and  C_2
REMARK    2  A    between atoms: C_2  and  C_3
REMARK    3  A    between atoms: C_6  and  C_7
REMARK    4  A    between atoms: C_7  and  N_8
REMARK                            x       y       z     vdW  Elec       q    Type
REMARK                         _______ _______ _______ _____ _____    ______ ____
ROOT
ATOM      1  C   UNL     1      46.482   2.585   6.995  0.00  0.00    +0.000 A 
ATOM      2  C   UNL     1      46.090   3.906   7.278  0.00  0.00    +0.000 A 
ATOM      3  C   UNL     1      45.351   4.211   8.424  0.00  0.00    +0.000 A 
ATOM      4  C   UNL     1      44.984   3.203   9.323  0.00  0.00    +0.000 A 
ATOM      5  C   UNL     1      45.402   1.890   9.067  0.00  0.00    +0.000 A 
ATOM      6  C   UNL     1      46.147   1.584   7.919  0.00  0.00    +0.000 A 
ATOM      7 CL   UNL     1      46.629  -0.062   7.697  0.00  0.00    +0.000 Cl
ENDROOT
BRANCH   1   8
ATOM      8  C   UNL     1      47.266   2.313   5.736  0.00  0.00    +0.000 C 
BRANCH   8   9
ATOM      9  N   UNL     1      48.668   2.044   6.029  0.00  0.00    +0.000 NA
ATOM     10  H   UNL     1      48.756   1.089   6.370  0.00  0.00    +0.000 HD
ATOM     11  H   UNL     1      48.961   2.644   6.800  0.00  0.00    +0.000 HD
ENDBRANCH   8   9
ENDBRANCH   1   8
BRANCH   4  12
ATOM     12  C   UNL     1      44.141   3.516  10.532  0.00  0.00    +0.000 C 
BRANCH  12  13
ATOM     13  N   UNL     1      44.708   4.568  11.361  0.00  0.00    +0.000 N 
ATOM     14  C   UNL     1      44.319   5.892  11.345  0.00  0.00    +0.000 A 
ATOM     15  C   UNL     1      44.936   6.533  12.404  0.00  0.00    +0.000 A 
ATOM     16  C   UNL     1      45.717   5.569  13.080  0.00  0.00    +0.000 A 
ATOM     17  N   UNL     1      46.477   5.686  14.202  0.00  0.00    +0.000 NA
ATOM     18  C   UNL     1      47.059   4.519  14.562  0.00  0.00    +0.000 A 
ATOM     19  C   UNL     1      46.916   3.328  13.861  0.00  0.00    +0.000 A 
ATOM     20  N   UNL     1      46.160   3.187  12.746  0.00  0.00    +0.000 NA
ATOM     21  C   UNL     1      45.577   4.359  12.403  0.00  0.00    +0.000 A 
ENDBRANCH  12  13
ENDBRANCH   4  12
TORSDOF 4
ENDMDL
MODEL 3
REMARK VINA RESULT:    -7.279      1.792      2.214
REMARK INTER + INTRA:          -9.189
REMARK INTER:                  -8.801
REMARK INTRA:                  -0.388
REMARK UNBOUND:                -0.421
REMARK  Name = 
REMARK  4 active torsions:
REMARK  status: ('A' for Active; 'I' for Inactive)
REMARK    1  A    between atoms: N_1  and  C_2
REMARK    2  A    between atoms: C_2  and  C_3
REMARK    3  A    between atoms: C_6  and  C_7
REMARK    4  A    between atoms: C_7  and  N_8
REMARK                            x       y       z     vdW  Elec       q    Type
REMARK                         _______ _______ _______ _____ _____    ______ ____
ROOT
ATOM      1  C   UNL     1      46.250   1.731   7.728  0.00  0.00    +0.000 A 
ATOM      2  C   UNL     1      45.427   1.395   8.818  0.00  0.00    +0.000 A 
ATOM      3  C   UNL     1      44.614   2.351   9.432  0.00  0.00    +0.000 A 
ATOM      4  C   UNL     1      44.596   3.672   8.970  0.00  0.00    +0.000 A 
ATOM      5  C   UNL     1      45.386   4.006   7.860  0.00  0.00    +0.000 A 
ATOM      6  C   UNL     1      46.199   3.047   7.243  0.00  0.00    +0.000 A 
ATOM      7 CL   UNL     1      47.125   3.550   5.872  0.00  0.00    +0.000 Cl
ENDROOT
BRANCH   1   8
ATOM      8  C   UNL     1      47.118   0.661   7.115  0.00  0.00    +0.000 C 
BRANCH   8   9
ATOM      9  N   UNL     1      46.813  -0.653   7.667  0.00  0.00    +0.000 NA
ATOM     10  H   UNL     1      45.986  -0.580   8.256  0.00  0.00    +0.000 HD
ATOM     11  H   UNL     1      47.574  -0.929   8.289  0.00  0.00    +0.000 HD
ENDBRANCH   8   9
ENDBRANCH   1   8
BRANCH   4  12
ATOM     12  C   UNL     1      43.763   4.720   9.660  0.00  0.00    +0.000 C 
BRANCH  12  13
ATOM     13  N   UNL     1      43.958   4.740  11.101  0.00  0.00    +0.000 N 
ATOM     14  C   UNL     1      43.173   4.075  12.020  0.00  0.00    +0.000 A 
ATOM     15  C   UNL     1      43.789   4.167  13.256  0.00  0.00    +0.000 A 
ATOM     16  C   UNL     1      44.980   4.906  13.077  0.00  0.00    +0.000 A 
ATOM     17  N   UNL     1      45.951   5.234  13.971  0.00  0.00    +0.000 NA
ATOM     18  C   UNL     1      46.962   5.935  13.408  0.00  0.00    +0.000 A 
ATOM     19  C   UNL     1      47.007   6.299  12.069  0.00  0.00    +0.000 A 
ATOM     20  N   UNL     1      46.055   5.978  11.159  0.00  0.00    +0.000 NA
ATOM     21  C   UNL     1      45.055   5.270  11.733  0.00  0.00    +0.000 A 
ENDBRANCH  12  13
ENDBRANCH   4  12
TORSDOF 4
ENDMDL
MODEL 4
REMARK VINA RESULT:    -6.155      2.562      6.380
REMARK INTER + INTRA:          -7.835
REMARK INTER:                  -7.382
REMARK INTRA:                  -0.453
REMARK UNBOUND:                -0.421
REMARK  Name = 
REMARK  4 active torsions:
REMARK  status: ('A' for Active; 'I' for Inactive)
REMARK    1  A    between atoms: N_1  and  C_2
REMARK    2  A    between atoms: C_2  and  C_3
REMARK    3  A    between atoms: C_6  and  C_7
REMARK    4  A    between atoms: C_7  and  N_8
REMARK                            x       y       z     vdW  Elec       q    Type
REMARK                         _______ _______ _______ _____ _____    ______ ____
ROOT
ATOM      1  C   UNL     1      45.113   6.003  11.941  0.00  0.00    +0.000 A 
ATOM      2  C   UNL     1      45.917   6.122  10.793  0.00  0.00    +0.000 A 
ATOM      3  C   UNL     1      45.645   5.377   9.641  0.00  0.00    +0.000 A 
ATOM      4  C   UNL     1      44.559   4.495   9.604  0.00  0.00    +0.000 A 
ATOM      5  C   UNL     1      43.733   4.399  10.733  0.00  0.00    +0.000 A 
ATOM      6  C   UNL     1      44.003   5.148  11.886  0.00  0.00    +0.000 A 
ATOM      7 CL   UNL     1      42.919   4.973  13.222  0.00  0.00    +0.000 Cl
ENDROOT
BRANCH   1   8
ATOM      8  C   UNL     1      45.464   6.821  13.159  0.00  0.00    +0.000 C 
BRANCH   8   9
ATOM      9  N   UNL     1      45.324   8.248  12.902  0.00  0.00    +0.000 NA
ATOM     10  H   UNL     1      46.168   8.724  13.214  0.00  0.00    +0.000 HD
ATOM     11  H   UNL     1      44.568   8.611  13.483  0.00  0.00    +0.000 HD
ENDBRANCH   8   9
ENDBRANCH   1   8
BRANCH   4  12
ATOM     12  C   UNL     1      44.293   3.650   8.386  0.00  0.00    +0.000 C 
BRANCH  12  13
ATOM     13  N   UNL     1      45.338   2.670   8.137  0.00  0.00    +0.000 N 
ATOM     14  C   UNL     1      45.440   1.440   8.753  0.00  0.00    +0.000 A 
ATOM     15  C   UNL     1      46.431   0.719   8.112  0.00  0.00    +0.000 A 
ATOM     16  C   UNL     1      46.940   1.536   7.077  0.00  0.00    +0.000 A 
ATOM     17  N   UNL     1      47.892   1.274   6.141  0.00  0.00    +0.000 NA
ATOM     18  C   UNL     1      48.087   2.310   5.292  0.00  0.00    +0.000 A 
ATOM     19  C   UNL     1      47.407   3.518   5.368  0.00  0.00    +0.000 A 
ATOM     20  N   UNL     1      46.451   3.799   6.287  0.00  0.00    +0.000 NA
ATOM     21  C   UNL     1      46.260   2.752   7.123  0.00  0.00    +0.000 A 
ENDBRANCH  12  13
ENDBRANCH   4  12
TORSDOF 4
ENDMDL
MODEL 5
REMARK VINA RESULT:    -6.110      2.537      5.991
REMARK INTER + INTRA:          -7.780
REMARK INTER:                  -7.323
REMARK INTRA:                  -0.457
REMARK UNBOUND:                -0.421
REMARK  Name = 
REMARK  4 active torsions:
REMARK  status: ('A' for Active; 'I' for Inactive)
REMARK    1  A    between atoms: N_1  and  C_2
REMARK    2  A    between atoms: C_2  and  C_3
REMARK    3  A    between atoms: C_6  and  C_7
REMARK    4  A    between atoms: C_7  and  N_8
REMARK                            x       y       z     vdW  Elec       q    Type
REMARK                         _______ _______ _______ _____ _____    ______ ____
ROOT
ATOM      1  C   UNL     1      46.902   6.576  13.004  0.00  0.00    +0.000 A 
ATOM      2  C   UNL     1      46.490   7.283  11.860  0.00  0.00    +0.000 A 
ATOM      3  C   UNL     1      45.609   6.712  10.937  0.00  0.00    +0.000 A 
ATOM      4  C   UNL     1      45.112   5.419  11.134  0.00  0.00    +0.000 A 
ATOM      5  C   UNL     1      45.490   4.723  12.291  0.00  0.00    +0.000 A 
ATOM      6  C   UNL     1      46.371   5.296  13.218  0.00  0.00    +0.000 A 
ATOM      7 CL   UNL     1      46.767   4.366  14.621  0.00  0.00    +0.000 Cl
ENDROOT
BRANCH   1   8
ATOM      8  C   UNL     1      47.866   7.237  13.957  0.00  0.00    +0.000 C 
BRANCH   8   9
ATOM      9  N   UNL     1      49.211   6.695  13.817  0.00  0.00    +0.000 NA
ATOM     10  H   UNL     1      49.886   7.430  14.019  0.00  0.00    +0.000 HD
ATOM     11  H   UNL     1      49.360   6.442  12.840  0.00  0.00    +0.000 HD
ENDBRANCH   8   9
ENDBRANCH   1   8
BRANCH   4  12
ATOM     12  C   UNL     1      44.205   4.777  10.116  0.00  0.00    +0.000 C 
BRANCH  12  13
ATOM     13  N   UNL     1      44.745   3.539   9.577  0.00  0.00    +0.000 N 
ATOM     14  C   UNL     1      44.287   2.273   9.876  0.00  0.00    +0.000 A 
ATOM     15  C   UNL     1      44.908   1.380   9.021  0.00  0.00    +0.000 A 
ATOM     16  C   UNL     1      45.761   2.128   8.180  0.00  0.00    +0.000 A 
ATOM     17  N   UNL     1      46.554   1.723   7.151  0.00  0.00    +0.000 NA
ATOM     18  C   UNL     1      47.208   2.751   6.562  0.00  0.00    +0.000 A 
ATOM     19  C   UNL     1      47.103   4.076   6.965  0.00  0.00    +0.000 A 
ATOM     20  N   UNL     1      46.315   4.502   7.982  0.00  0.00    +0.000 NA
ATOM     21  C   UNL     1      45.661   3.467   8.556  0.00  0.00    +0.000 A 
ENDBRANCH  12  13
ENDBRANCH   4  12
TORSDOF 4
ENDMDL
MODEL 6
REMARK VINA RESULT:    -6.090      3.204      6.275
REMARK INTER + INTRA:          -7.756
REMARK INTER:                  -7.346
REMARK INTRA:                  -0.410
REMARK UNBOUND:                -0.421
REMARK  Name = 
REMARK  4 active torsions:
REMARK  status: ('A' for Active; 'I' for Inactive)
REMARK    1  A    between atoms: N_1  and  C_2
REMARK    2  A    between atoms: C_2  and  C_3
REMARK    3  A    between atoms: C_6  and  C_7
REMARK    4  A    between atoms: C_7  and  N_8
REMARK                            x       y       z     vdW  Elec       q    Type
REMARK                         _______ _______ _______ _____ _____    ______ ____
ROOT
ATOM      1  C   UNL     1      48.413   7.174  13.389  0.00  0.00    +0.000 A 
ATOM      2  C   UNL     1      47.784   6.004  13.852  0.00  0.00    +0.000 A 
ATOM      3  C   UNL     1      46.490   5.670  13.443  0.00  0.00    +0.000 A 
ATOM      4  C   UNL     1      45.789   6.494  12.556  0.00  0.00    +0.000 A 
ATOM      5  C   UNL     1      46.424   7.643  12.062  0.00  0.00    +0.000 A 
ATOM      6  C   UNL     1      47.722   7.977  12.470  0.00  0.00    +0.000 A 
ATOM      7 CL   UNL     1      48.427   9.404  11.795  0.00  0.00    +0.000 Cl
ENDROOT
BRANCH   1   8
ATOM      8  C   UNL     1      49.805   7.491  13.877  0.00  0.00    +0.000 C 
BRANCH   8   9
ATOM      9  N   UNL     1      50.125   6.754  15.092  0.00  0.00    +0.000 NA
ATOM     10  H   UNL     1      50.180   7.408  15.870  0.00  0.00    +0.000 HD
ATOM     11  H   UNL     1      51.060   6.357  14.995  0.00  0.00    +0.000 HD
ENDBRANCH   8   9
ENDBRANCH   1   8
BRANCH   4  12
ATOM     12  C   UNL     1      44.374   6.168  12.153  0.00  0.00    +0.000 C 
BRANCH  12  13
ATOM     13  N   UNL     1      44.200   4.775  11.775  0.00  0.00    +0.000 N 
ATOM     14  C   UNL     1      43.488   3.838  12.495  0.00  0.00    +0.000 A 
ATOM     15  C   UNL     1      43.377   2.696  11.722  0.00  0.00    +0.000 A 
ATOM     16  C   UNL     1      44.038   2.952  10.499  0.00  0.00    +0.000 A 
ATOM     17  N   UNL     1      44.176   2.168   9.396  0.00  0.00    +0.000 NA
ATOM     18  C   UNL     1      44.861   2.783   8.403  0.00  0.00    +0.000 A 
ATOM     19  C   UNL     1      45.384   4.066   8.495  0.00  0.00    +0.000 A 
ATOM     20  N   UNL     1      45.253   4.866   9.581  0.00  0.00    +0.000 NA
ATOM     21  C   UNL     1      44.560   4.243  10.561  0.00  0.00    +0.000 A 
ENDBRANCH  12  13
ENDBRANCH   4  12
TORSDOF 4
ENDMDL
MODEL 7
REMARK VINA RESULT:    -5.856      2.008      2.774
REMARK INTER + INTRA:          -7.474
REMARK INTER:                  -7.022
REMARK INTRA:                  -0.452
REMARK UNBOUND:                -0.421
REMARK  Name = 
REMARK  4 active torsions:
REMARK  status: ('A' for Active; 'I' for Inactive)
REMARK    1  A    between atoms: N_1  and  C_2
REMARK    2  A    between atoms: C_2  and  C_3
REMARK    3  A    between atoms: C_6  and  C_7
REMARK    4  A    between atoms: C_7  and  N_8
REMARK                            x       y       z     vdW  Elec       q    Type
REMARK                         _______ _______ _______ _____ _____    ______ ____
ROOT
ATOM      1  C   UNL     1      45.308   2.429   8.704  0.00  0.00    +0.000 A 
ATOM      2  C   UNL     1      44.566   2.312   9.894  0.00  0.00    +0.000 A 
ATOM      3  C   UNL     1      44.372   3.411  10.735  0.00  0.00    +0.000 A 
ATOM      4  C   UNL     1      44.910   4.660  10.409  0.00  0.00    +0.000 A 
ATOM      5  C   UNL     1      45.620   4.793   9.207  0.00  0.00    +0.000 A 
ATOM      6  C   UNL     1      45.812   3.692   8.362  0.00  0.00    +0.000 A 
ATOM      7 CL   UNL     1      46.688   3.958   6.894  0.00  0.00    +0.000 Cl
ENDROOT
BRANCH   1   8
ATOM      8  C   UNL     1      45.497   1.205   7.843  0.00  0.00    +0.000 C 
BRANCH   8   9
ATOM      9  N   UNL     1      46.841   0.659   7.983  0.00  0.00    +0.000 NA
ATOM     10  H   UNL     1      46.820  -0.098   8.664  0.00  0.00    +0.000 HD
ATOM     11  H   UNL     1      47.445   1.376   8.383  0.00  0.00    +0.000 HD
ENDBRANCH   8   9
ENDBRANCH   1   8
BRANCH   4  12
ATOM     12  C   UNL     1      44.750   5.836  11.338  0.00  0.00    +0.000 C 
BRANCH  12  13
ATOM     13  N   UNL     1      45.708   5.827  12.432  0.00  0.00    +0.000 N 
ATOM     14  C   UNL     1      45.624   5.033  13.557  0.00  0.00    +0.000 A 
ATOM     15  C   UNL     1      46.810   5.157  14.259  0.00  0.00    +0.000 A 
ATOM     16  C   UNL     1      47.634   6.049  13.536  0.00  0.00    +0.000 A 
ATOM     17  N   UNL     1      48.905   6.466  13.784  0.00  0.00    +0.000 NA
ATOM     18  C   UNL     1      49.370   7.311  12.835  0.00  0.00    +0.000 A 
ATOM     19  C   UNL     1      48.635   7.728  11.733  0.00  0.00    +0.000 A 
ATOM     20  N   UNL     1      47.370   7.321  11.463  0.00  0.00    +0.000 NA
ATOM     21  C   UNL     1      46.921   6.470  12.414  0.00  0.00    +0.000 A 
ENDBRANCH  12  13
ENDBRANCH   4  12
TORSDOF 4
ENDMDL
MODEL 8
REMARK VINA RESULT:    -5.605      3.424      5.172
REMARK INTER + INTRA:          -7.172
REMARK INTER:                  -6.689
REMARK INTRA:                  -0.483
REMARK UNBOUND:                -0.421
REMARK  Name = 
REMARK  4 active torsions:
REMARK  status: ('A' for Active; 'I' for Inactive)
REMARK    1  A    between atoms: N_1  and  C_2
REMARK    2  A    between atoms: C_2  and  C_3
REMARK    3  A    between atoms: C_6  and  C_7
REMARK    4  A    between atoms: C_7  and  N_8
REMARK                            x       y       z     vdW  Elec       q    Type
REMARK                         _______ _______ _______ _____ _____    ______ ____
ROOT
ATOM      1  C   UNL     1      44.405   4.206  11.196  0.00  0.00    +0.000 A 
ATOM      2  C   UNL     1      44.031   4.594  12.495  0.00  0.00    +0.000 A 
ATOM      3  C   UNL     1      44.464   5.807  13.039  0.00  0.00    +0.000 A 
ATOM      4  C   UNL     1      45.280   6.668  12.298  0.00  0.00    +0.000 A 
ATOM      5  C   UNL     1      45.627   6.304  10.989  0.00  0.00    +0.000 A 
ATOM      6  C   UNL     1      45.190   5.090  10.442  0.00  0.00    +0.000 A 
ATOM      7 CL   UNL     1      45.656   4.736   8.815  0.00  0.00    +0.000 Cl
ENDROOT
BRANCH   1   8
ATOM      8  C   UNL     1      43.920   2.879  10.667  0.00  0.00    +0.000 C 
BRANCH   8   9
ATOM      9  N   UNL     1      43.048   2.210  11.624  0.00  0.00    +0.000 NA
ATOM     10  H   UNL     1      42.637   2.909  12.240  0.00  0.00    +0.000 HD
ATOM     11  H   UNL     1      43.619   1.613  12.222  0.00  0.00    +0.000 HD
ENDBRANCH   8   9
ENDBRANCH   1   8
BRANCH   4  12
ATOM     12  C   UNL     1      45.794   7.951  12.897  0.00  0.00    +0.000 C 
BRANCH  12  13
ATOM     13  N   UNL     1      47.230   7.932  13.129  0.00  0.00    +0.000 N 
ATOM     14  C   UNL     1      47.909   6.963  13.838  0.00  0.00    +0.000 A 
ATOM     15  C   UNL     1      49.265   7.177  13.666  0.00  0.00    +0.000 A 
ATOM     16  C   UNL     1      49.408   8.305  12.827  0.00  0.00    +0.000 A 
ATOM     17  N   UNL     1      50.531   8.892  12.331  0.00  0.00    +0.000 NA
ATOM     18  C   UNL     1      50.256   9.949  11.531  0.00  0.00    +0.000 A 
ATOM     19  C   UNL     1      48.974  10.403  11.253  0.00  0.00    +0.000 A 
ATOM     20  N   UNL     1      47.842   9.831  11.732  0.00  0.00    +0.000 NA
ATOM     21  C   UNL     1      48.131   8.772  12.522  0.00  0.00    +0.000 A 
ENDBRANCH  12  13
ENDBRANCH   4  12
TORSDOF 4
ENDMDL
MODEL 9
REMARK VINA RESULT:    -5.424      3.405      5.437
REMARK INTER + INTRA:          -6.955
REMARK INTER:                  -6.529
REMARK INTRA:                  -0.426
REMARK UNBOUND:                -0.421
REMARK  Name = 
REMARK  4 active torsions:
REMARK  status: ('A' for Active; 'I' for Inactive)
REMARK    1  A    between atoms: N_1  and  C_2
REMARK    2  A    between atoms: C_2  and  C_3
REMARK    3  A    between atoms: C_6  and  C_7
REMARK    4  A    between atoms: C_7  and  N_8
REMARK                            x       y       z     vdW  Elec       q    Type
REMARK                         _______ _______ _______ _____ _____    ______ ____
ROOT
ATOM      1  C   UNL     1      44.755   4.081  11.371  0.00  0.00    +0.000 A 
ATOM      2  C   UNL     1      44.600   4.417  12.727  0.00  0.00    +0.000 A 
ATOM      3  C   UNL     1      45.071   5.634  13.229  0.00  0.00    +0.000 A 
ATOM      4  C   UNL     1      45.708   6.552  12.386  0.00  0.00    +0.000 A 
ATOM      5  C   UNL     1      45.834   6.239  11.025  0.00  0.00    +0.000 A 
ATOM      6  C   UNL     1      45.359   5.021  10.522  0.00  0.00    +0.000 A 
ATOM      7 CL   UNL     1      45.546   4.732   8.827  0.00  0.00    +0.000 Cl
ENDROOT
BRANCH   1   8
ATOM      8  C   UNL     1      44.241   2.748  10.889  0.00  0.00    +0.000 C 
BRANCH   8   9
ATOM      9  N   UNL     1      43.040   2.348  11.611  0.00  0.00    +0.000 NA
ATOM     10  H   UNL     1      43.231   1.487  12.119  0.00  0.00    +0.000 HD
ATOM     11  H   UNL     1      42.314   2.116  10.933  0.00  0.00    +0.000 HD
ENDBRANCH   8   9
ENDBRANCH   1   8
BRANCH   4  12
ATOM     12  C   UNL     1      46.266   7.841  12.930  0.00  0.00    +0.000 C 
BRANCH  12  13
ATOM     13  N   UNL     1      47.719   7.893  12.885  0.00  0.00    +0.000 N 
ATOM     14  C   UNL     1      48.464   8.507  11.900  0.00  0.00    +0.000 A 
ATOM     15  C   UNL     1      49.785   8.523  12.308  0.00  0.00    +0.000 A 
ATOM     16  C   UNL     1      49.839   7.905  13.578  0.00  0.00    +0.000 A 
ATOM     17  N   UNL     1      50.894   7.711  14.415  0.00  0.00    +0.000 NA
ATOM     18  C   UNL     1      50.538   7.098  15.568  0.00  0.00    +0.000 A 
ATOM     19  C   UNL     1      49.244   6.693  15.868  0.00  0.00    +0.000 A 
ATOM     20  N   UNL     1      48.178   6.881  15.053  0.00  0.00    +0.000 NA
ATOM     21  C   UNL     1      48.546   7.502  13.909  0.00  0.00    +0.000 A 
ENDBRANCH  12  13
ENDBRANCH   4  12
TORSDOF 4
ENDMDL
