MODEL 1
REMARK VINA RESULT:    -7.554      0.000      0.000
REMARK INTER + INTRA:          -9.838
REMARK INTER:                  -9.320
REMARK INTRA:                  -0.518
REMARK UNBOUND:                -0.518
REMARK  Name = 
REMARK  5 active torsions:
REMARK  status: ('A' for Active; 'I' for Inactive)
REMARK    1  A    between atoms: C_1  and  C_2
REMARK    2  A    between atoms: C_2  and  N_3
REMARK    3  A    between atoms: C_2  and  C_14
REMARK    4  A    between atoms: N_3  and  C_4
REMARK    5  A    between atoms: C_7  and  C_8
REMARK                            x       y       z     vdW  Elec       q    Type
REMARK                         _______ _______ _______ _____ _____    ______ ____
ROOT
ATOM      1  C   UNL     1      44.910   4.258   9.240  0.00  0.00    +0.000 A 
ATOM      2  N   UNL     1      45.662   4.723   8.226  0.00  0.00    +0.000 NA
ATOM      3  C   UNL     1      46.389   3.838   7.494  0.00  0.00    +0.000 A 
ATOM      4  C   UNL     1      46.465   2.478   7.751  0.00  0.00    +0.000 A 
ATOM      5  C   UNL     1      45.684   1.993   8.803  0.00  0.00    +0.000 A 
ATOM      6  C   UNL     1      44.877   2.879   9.520  0.00  0.00    +0.000 A 
ATOM      7 CL   UNL     1      43.730   2.200  10.627  0.00  0.00    +0.000 Cl
ENDROOT
BRANCH   4   8
ATOM      8  C   UNL     1      47.270   1.522   6.973  0.00  0.00    +0.000 C 
ATOM      9  N   UNL     1      48.298   1.991   6.184  0.00  0.00    +0.000 N 
ATOM     10  O   UNL     1      47.034   0.322   7.004  0.00  0.00    +0.000 OA
ATOM     11  H   UNL     1      48.529   2.961   6.030  0.00  0.00    +0.000 HD
ATOM     12  H   UNL     1      48.803   1.303   5.650  0.00  0.00    +0.000 HD
ENDBRANCH   4   8
BRANCH   1  13
ATOM     13  N   UNL     1      44.215   5.183  10.056  0.00  0.00    +0.000 N 
ATOM     14  H   UNL     1      44.175   6.064   9.543  0.00  0.00    +0.000 HD
BRANCH  13  16
ATOM     15  C   UNL     1      43.646   5.451  12.493  0.00  0.00    +0.000 C 
ATOM     16  C   UNL     1      44.753   5.380  11.425  0.00  0.00    +0.000 C 
BRANCH  16  17
ATOM     17  C   UNL     1      45.668   6.658  11.436  0.00  0.00    +0.000 C 
ATOM     18  C   UNL     1      47.062   6.345  12.025  0.00  0.00    +0.000 C 
ATOM     19  C   UNL     1      47.962   7.570  12.159  0.00  0.00    +0.000 C 
ATOM     20  C   UNL     1      47.266   8.662  12.961  0.00  0.00    +0.000 C 
ATOM     21  C   UNL     1      45.962   9.060  12.284  0.00  0.00    +0.000 C 
ATOM     22  C   UNL     1      45.017   7.867  12.143  0.00  0.00    +0.000 C 
ENDBRANCH  16  17
ENDBRANCH  13  16
ENDBRANCH   1  13
TORSDOF 4
ENDMDL
MODEL 2
REMARK VINA RESULT:    -7.196      2.029      2.592
REMARK INTER + INTRA:          -9.397
REMARK INTER:                  -8.801
REMARK INTRA:                  -0.596
REMARK UNBOUND:                -0.518
REMARK  Name = 
REMARK  5 active torsions:
REMARK  status: ('A' for Active; 'I' for Inactive)
REMARK    1  A    between atoms: C_1  and  C_2
REMARK    2  A    between atoms: C_2  and  N_3
REMARK    3  A    between atoms: C_2  and  C_14
REMARK    4  A    between atoms: N_3  and  C_4
REMARK    5  A    between atoms: C_7  and  C_8
REMARK                            x       y       z     vdW  Elec       q    Type
REMARK                         _______ _______ _______ _____ _____    ______ ____
ROOT
ATOM      1  C   UNL     1      44.510   3.663   9.303  0.00  0.00    +0.000 A 
ATOM      2  N   UNL     1      44.166   2.365   9.383  0.00  0.00    +0.000 NA
ATOM      3  C   UNL     1      44.968   1.440   8.795  0.00  0.00    +0.000 A 
ATOM      4  C   UNL     1      46.103   1.738   8.055  0.00  0.00    +0.000 A 
ATOM      5  C   UNL     1      46.462   3.085   7.972  0.00  0.00    +0.000 A 
ATOM      6  C   UNL     1      45.687   4.041   8.630  0.00  0.00    +0.000 A 
ATOM      7 CL   UNL     1      46.315   5.653   8.728  0.00  0.00    +0.000 Cl
ENDROOT
BRANCH   4   8
ATOM      8  C   UNL     1      46.960   0.737   7.398  0.00  0.00    +0.000 C 
ATOM      9  N   UNL     1      46.723  -0.603   7.615  0.00  0.00    +0.000 N 
ATOM     10  O   UNL     1      47.886   1.075   6.673  0.00  0.00    +0.000 OA
ATOM     11  H   UNL     1      46.037  -0.985   8.248  0.00  0.00    +0.000 HD
ATOM     12  H   UNL     1      47.352  -1.247   7.166  0.00  0.00    +0.000 HD
ENDBRANCH   4   8
BRANCH   1  13
ATOM     13  N   UNL     1      43.636   4.637   9.844  0.00  0.00    +0.000 N 
ATOM     14  H   UNL     1      43.909   5.537   9.450  0.00  0.00    +0.000 HD
BRANCH  13  16
ATOM     15  C   UNL     1      42.648   5.829  11.829  0.00  0.00    +0.000 C 
ATOM     16  C   UNL     1      43.561   4.696  11.325  0.00  0.00    +0.000 C 
BRANCH  16  17
ATOM     17  C   UNL     1      45.017   4.810  11.906  0.00  0.00    +0.000 C 
ATOM     18  C   UNL     1      45.380   3.573  12.758  0.00  0.00    +0.000 C 
ATOM     19  C   UNL     1      46.744   3.670  13.436  0.00  0.00    +0.000 C 
ATOM     20  C   UNL     1      46.843   4.946  14.261  0.00  0.00    +0.000 C 
ATOM     21  C   UNL     1      46.626   6.163  13.373  0.00  0.00    +0.000 C 
ATOM     22  C   UNL     1      45.263   6.121  12.685  0.00  0.00    +0.000 C 
ENDBRANCH  16  17
ENDBRANCH  13  16
ENDBRANCH   1  13
TORSDOF 4
ENDMDL
MODEL 3
REMARK VINA RESULT:    -6.463      3.583      6.687
REMARK INTER + INTRA:          -8.492
REMARK INTER:                  -8.014
REMARK INTRA:                  -0.478
REMARK UNBOUND:                -0.518
REMARK  Name = 
REMARK  5 active torsions:
REMARK  status: ('A' for Active; 'I' for Inactive)
REMARK    1  A    between atoms: C_1  and  C_2
REMARK    2  A    between atoms: C_2  and  N_3
REMARK    3  A    between atoms: C_2  and  C_14
REMARK    4  A    between atoms: N_3  and  C_4
REMARK    5  A    between atoms: C_7  and  C_8
REMARK                            x       y       z     vdW  Elec       q    Type
REMARK                         _______ _______ _______ _____ _____    ______ ____
ROOT
ATOM      1  C   UNL     1      46.124   5.451  12.318  0.00  0.00    +0.000 A 
ATOM      2  N   UNL     1      46.107   6.697  11.810  0.00  0.00    +0.000 NA
ATOM      3  C   UNL     1      46.823   7.666  12.437  0.00  0.00    +0.000 A 
ATOM      4  C   UNL     1      47.535   7.484  13.614  0.00  0.00    +0.000 A 
ATOM      5  C   UNL     1      47.554   6.190  14.141  0.00  0.00    +0.000 A 
ATOM      6  C   UNL     1      46.882   5.168  13.469  0.00  0.00    +0.000 A 
ATOM      7 CL   UNL     1      47.156   3.543  14.004  0.00  0.00    +0.000 Cl
ENDROOT
BRANCH   4   8
ATOM      8  C   UNL     1      48.291   8.539  14.307  0.00  0.00    +0.000 C 
ATOM      9  N   UNL     1      47.680   9.264  15.306  0.00  0.00    +0.000 N 
ATOM     10  O   UNL     1      49.449   8.793  14.001  0.00  0.00    +0.000 OA
ATOM     11  H   UNL     1      46.713   9.186  15.584  0.00  0.00    +0.000 HD
ATOM     12  H   UNL     1      48.228   9.992  15.732  0.00  0.00    +0.000 HD
ENDBRANCH   4   8
BRANCH   1  13
ATOM     13  N   UNL     1      45.316   4.456  11.715  0.00  0.00    +0.000 N 
ATOM     14  H   UNL     1      45.940   3.709  11.409  0.00  0.00    +0.000 HD
BRANCH  13  16
ATOM     15  C   UNL     1      42.957   5.002  11.028  0.00  0.00    +0.000 C 
ATOM     16  C   UNL     1      44.437   4.911  10.610  0.00  0.00    +0.000 C 
BRANCH  16  17
ATOM     17  C   UNL     1      44.643   3.967   9.370  0.00  0.00    +0.000 C 
ATOM     18  C   UNL     1      44.902   2.508   9.811  0.00  0.00    +0.000 C 
ATOM     19  C   UNL     1      45.212   1.562   8.655  0.00  0.00    +0.000 C 
ATOM     20  C   UNL     1      46.372   2.093   7.823  0.00  0.00    +0.000 C 
ATOM     21  C   UNL     1      46.037   3.473   7.276  0.00  0.00    +0.000 C 
ATOM     22  C   UNL     1      45.736   4.464   8.399  0.00  0.00    +0.000 C 
ENDBRANCH  16  17
ENDBRANCH  13  16
ENDBRANCH   1  13
TORSDOF 4
ENDMDL
MODEL 4
REMARK VINA RESULT:    -6.413      3.453      6.381
REMARK INTER + INTRA:          -8.431
REMARK INTER:                  -9.048
REMARK INTRA:                   0.617
REMARK UNBOUND:                -0.518
REMARK  Name = 
REMARK  5 active torsions:
REMARK  status: ('A' for Active; 'I' for Inactive)
REMARK    1  A    between atoms: C_1  and  C_2
REMARK    2  A    between atoms: C_2  and  N_3
REMARK    3  A    between atoms: C_2  and  C_14
REMARK    4  A    between atoms: N_3  and  C_4
REMARK    5  A    between atoms: C_7  and  C_8
REMARK                            x       y       z     vdW  Elec       q    Type
REMARK                         _______ _______ _______ _____ _____    ______ ____
ROOT
ATOM      1  C   UNL     1      45.564   5.102  11.446  0.00  0.00    +0.000 A 
ATOM      2  N   UNL     1      45.775   3.869  11.941  0.00  0.00    +0.000 NA
ATOM      3  C   UNL     1      46.281   3.748  13.197  0.00  0.00    +0.000 A 
ATOM      4  C   UNL     1      46.659   4.814  13.999  0.00  0.00    +0.000 A 
ATOM      5  C   UNL     1      46.439   6.095  13.486  0.00  0.00    +0.000 A 
ATOM      6  C   UNL     1      45.854   6.236  12.226  0.00  0.00    +0.000 A 
ATOM      7 CL   UNL     1      45.354   7.824  11.749  0.00  0.00    +0.000 Cl
ENDROOT
BRANCH   4   8
ATOM      8  C   UNL     1      47.229   4.684  15.350  0.00  0.00    +0.000 C 
ATOM      9  N   UNL     1      48.007   5.702  15.857  0.00  0.00    +0.000 N 
ATOM     10  O   UNL     1      47.035   3.682  16.026  0.00  0.00    +0.000 OA
ATOM     11  H   UNL     1      48.287   6.534  15.359  0.00  0.00    +0.000 HD
ATOM     12  H   UNL     1      48.396   5.556  16.773  0.00  0.00    +0.000 HD
ENDBRANCH   4   8
BRANCH   1  13
ATOM     13  N   UNL     1      45.113   5.233  10.109  0.00  0.00    +0.000 N 
ATOM     14  H   UNL     1      44.744   6.179  10.010  0.00  0.00    +0.000 HD
BRANCH  13  16
ATOM     15  C   UNL     1      43.586   3.356  10.801  0.00  0.00    +0.000 C 
ATOM     16  C   UNL     1      44.133   4.220   9.649  0.00  0.00    +0.000 C 
BRANCH  16  17
ATOM     17  C   UNL     1      44.791   3.347   8.519  0.00  0.00    +0.000 C 
ATOM     18  C   UNL     1      45.304   2.000   9.075  0.00  0.00    +0.000 C 
ATOM     19  C   UNL     1      46.046   1.152   8.047  0.00  0.00    +0.000 C 
ATOM     20  C   UNL     1      47.181   1.946   7.414  0.00  0.00    +0.000 C 
ATOM     21  C   UNL     1      46.635   3.198   6.743  0.00  0.00    +0.000 C 
ATOM     22  C   UNL     1      45.896   4.092   7.739  0.00  0.00    +0.000 C 
ENDBRANCH  16  17
ENDBRANCH  13  16
ENDBRANCH   1  13
TORSDOF 4
ENDMDL
MODEL 5
REMARK VINA RESULT:    -6.117      6.257      7.888
REMARK INTER + INTRA:          -8.066
REMARK INTER:                  -7.576
REMARK INTRA:                  -0.490
REMARK UNBOUND:                -0.518
REMARK  Name = 
REMARK  5 active torsions:
REMARK  status: ('A' for Active; 'I' for Inactive)
REMARK    1  A    between atoms: C_1  and  C_2
REMARK    2  A    between atoms: C_2  and  N_3
REMARK    3  A    between atoms: C_2  and  C_14
REMARK    4  A    between atoms: N_3  and  C_4
REMARK    5  A    between atoms: C_7  and  C_8
REMARK                            x       y       z     vdW  Elec       q    Type
REMARK                         _______ _______ _______ _____ _____    ______ ____
ROOT
ATOM      1  C   UNL     1      47.801   3.947  16.122  0.00  0.00    +0.000 A 
ATOM      2  N   UNL     1      48.051   2.662  15.811  0.00  0.00    +0.000 NA
ATOM      3  C   UNL     1      49.161   2.071  16.326  0.00  0.00    +0.000 A 
ATOM      4  C   UNL     1      50.103   2.715  17.114  0.00  0.00    +0.000 A 
ATOM      5  C   UNL     1      49.843   4.049  17.438  0.00  0.00    +0.000 A 
ATOM      6  C   UNL     1      48.672   4.650  16.975  0.00  0.00    +0.000 A 
ATOM      7 CL   UNL     1      48.259   6.204  17.621  0.00  0.00    +0.000 Cl
ENDROOT
BRANCH   4   8
ATOM      8  C   UNL     1      51.317   2.081  17.653  0.00  0.00    +0.000 C 
ATOM      9  N   UNL     1      51.386   0.707  17.728  0.00  0.00    +0.000 N 
ATOM     10  O   UNL     1      52.261   2.754  18.047  0.00  0.00    +0.000 OA
ATOM     11  H   UNL     1      50.641   0.066  17.501  0.00  0.00    +0.000 HD
ATOM     12  H   UNL     1      52.225   0.321  18.129  0.00  0.00    +0.000 HD
ENDBRANCH   4   8
BRANCH   1  13
ATOM     13  N   UNL     1      46.690   4.592  15.524  0.00  0.00    +0.000 N 
ATOM     14  H   UNL     1      45.851   4.128  15.873  0.00  0.00    +0.000 HD
BRANCH  13  16
ATOM     15  C   UNL     1      47.314   5.960  13.506  0.00  0.00    +0.000 C 
ATOM     16  C   UNL     1      46.694   4.657  14.042  0.00  0.00    +0.000 C 
BRANCH  16  17
ATOM     17  C   UNL     1      45.229   4.441  13.516  0.00  0.00    +0.000 C 
ATOM     18  C   UNL     1      45.171   3.317  12.456  0.00  0.00    +0.000 C 
ATOM     19  C   UNL     1      43.792   3.130  11.831  0.00  0.00    +0.000 C 
ATOM     20  C   UNL     1      43.280   4.445  11.258  0.00  0.00    +0.000 C 
ATOM     21  C   UNL     1      43.205   5.500  12.352  0.00  0.00    +0.000 C 
ATOM     22  C   UNL     1      44.569   5.737  12.998  0.00  0.00    +0.000 C 
ENDBRANCH  16  17
ENDBRANCH  13  16
ENDBRANCH   1  13
TORSDOF 4
ENDMDL
MODEL 6
REMARK VINA RESULT:    -5.976      3.787      6.009
REMARK INTER + INTRA:          -7.891
REMARK INTER:                  -7.255
REMARK INTRA:                  -0.636
REMARK UNBOUND:                -0.518
REMARK  Name = 
REMARK  5 active torsions:
REMARK  status: ('A' for Active; 'I' for Inactive)
REMARK    1  A    between atoms: C_1  and  C_2
REMARK    2  A    between atoms: C_2  and  N_3
REMARK    3  A    between atoms: C_2  and  C_14
REMARK    4  A    between atoms: N_3  and  C_4
REMARK    5  A    between atoms: C_7  and  C_8
REMARK                            x       y       z     vdW  Elec       q    Type
REMARK                         _______ _______ _______ _____ _____    ______ ____
ROOT
ATOM      1  C   UNL     1      45.975   6.468  12.703  0.00  0.00    +0.000 A 
ATOM      2  N   UNL     1      46.246   7.657  12.133  0.00  0.00    +0.000 NA
ATOM      3  C   UNL     1      47.538   8.073  12.077  0.00  0.00    +0.000 A 
ATOM      4  C   UNL     1      48.612   7.385  12.622  0.00  0.00    +0.000 A 
ATOM      5  C   UNL     1      48.332   6.151  13.214  0.00  0.00    +0.000 A 
ATOM      6  C   UNL     1      47.019   5.677  13.216  0.00  0.00    +0.000 A 
ATOM      7 CL   UNL     1      46.761   4.036  13.710  0.00  0.00    +0.000 Cl
ENDROOT
BRANCH   4   8
ATOM      8  C   UNL     1      50.009   7.847  12.583  0.00  0.00    +0.000 C 
ATOM      9  N   UNL     1      50.820   7.459  11.538  0.00  0.00    +0.000 N 
ATOM     10  O   UNL     1      50.467   8.559  13.467  0.00  0.00    +0.000 OA
ATOM     11  H   UNL     1      50.566   6.820  10.801  0.00  0.00    +0.000 HD
ATOM     12  H   UNL     1      51.774   7.778  11.569  0.00  0.00    +0.000 HD
ENDBRANCH   4   8
BRANCH   1  13
ATOM     13  N   UNL     1      44.623   6.067  12.836  0.00  0.00    +0.000 N 
ATOM     14  H   UNL     1      44.612   5.249  13.445  0.00  0.00    +0.000 HD
BRANCH  13  16
ATOM     15  C   UNL     1      42.417   5.429  11.805  0.00  0.00    +0.000 C 
ATOM     16  C   UNL     1      43.892   5.808  11.572  0.00  0.00    +0.000 C 
BRANCH  16  17
ATOM     17  C   UNL     1      44.660   4.709  10.751  0.00  0.00    +0.000 C 
ATOM     18  C   UNL     1      45.160   5.264   9.398  0.00  0.00    +0.000 C 
ATOM     19  C   UNL     1      45.824   4.217   8.510  0.00  0.00    +0.000 C 
ATOM     20  C   UNL     1      44.898   3.026   8.301  0.00  0.00    +0.000 C 
ATOM     21  C   UNL     1      44.534   2.402   9.641  0.00  0.00    +0.000 C 
ATOM     22  C   UNL     1      43.848   3.410  10.561  0.00  0.00    +0.000 C 
ENDBRANCH  16  17
ENDBRANCH  13  16
ENDBRANCH   1  13
TORSDOF 4
ENDMDL
MODEL 7
REMARK VINA RESULT:    -5.806      3.366      4.635
REMARK INTER + INTRA:          -7.682
REMARK INTER:                  -7.107
REMARK INTRA:                  -0.575
REMARK UNBOUND:                -0.518
REMARK  Name = 
REMARK  5 active torsions:
REMARK  status: ('A' for Active; 'I' for Inactive)
REMARK    1  A    between atoms: C_1  and  C_2
REMARK    2  A    between atoms: C_2  and  N_3
REMARK    3  A    between atoms: C_2  and  C_14
REMARK    4  A    between atoms: N_3  and  C_4
REMARK    5  A    between atoms: C_7  and  C_8
REMARK                            x       y       z     vdW  Elec       q    Type
REMARK                         _______ _______ _______ _____ _____    ______ ____
ROOT
ATOM      1  C   UNL     1      46.309   6.081  12.988  0.00  0.00    +0.000 A 
ATOM      2  N   UNL     1      45.610   6.387  11.880  0.00  0.00    +0.000 NA
ATOM      3  C   UNL     1      44.908   5.403  11.259  0.00  0.00    +0.000 A 
ATOM      4  C   UNL     1      44.901   4.073  11.651  0.00  0.00    +0.000 A 
ATOM      5  C   UNL     1      45.626   3.754  12.803  0.00  0.00    +0.000 A 
ATOM      6  C   UNL     1      46.295   4.767  13.491  0.00  0.00    +0.000 A 
ATOM      7 CL   UNL     1      46.948   4.380  15.049  0.00  0.00    +0.000 Cl
ENDROOT
BRANCH   4   8
ATOM      8  C   UNL     1      44.159   3.002  10.965  0.00  0.00    +0.000 C 
ATOM      9  N   UNL     1      44.752   2.333   9.917  0.00  0.00    +0.000 N 
ATOM     10  O   UNL     1      43.020   2.705  11.302  0.00  0.00    +0.000 OA
ATOM     11  H   UNL     1      45.652   2.547   9.515  0.00  0.00    +0.000 HD
ATOM     12  H   UNL     1      44.196   1.628   9.463  0.00  0.00    +0.000 HD
ENDBRANCH   4   8
BRANCH   1  13
ATOM     13  N   UNL     1      47.107   7.084  13.592  0.00  0.00    +0.000 N 
ATOM     14  H   UNL     1      46.735   7.984  13.289  0.00  0.00    +0.000 HD
BRANCH  13  16
ATOM     15  C   UNL     1      49.400   7.238  14.618  0.00  0.00    +0.000 C 
ATOM     16  C   UNL     1      48.567   6.992  13.346  0.00  0.00    +0.000 C 
BRANCH  16  17
ATOM     17  C   UNL     1      48.954   7.980  12.187  0.00  0.00    +0.000 C 
ATOM     18  C   UNL     1      50.480   8.220  12.138  0.00  0.00    +0.000 C 
ATOM     19  C   UNL     1      50.909   9.251  11.099  0.00  0.00    +0.000 C 
ATOM     20  C   UNL     1      50.159  10.561  11.302  0.00  0.00    +0.000 C 
ATOM     21  C   UNL     1      48.658  10.328  11.200  0.00  0.00    +0.000 C 
ATOM     22  C   UNL     1      48.176   9.313  12.236  0.00  0.00    +0.000 C 
ENDBRANCH  16  17
ENDBRANCH  13  16
ENDBRANCH   1  13
TORSDOF 4
ENDMDL
MODEL 8
REMARK VINA RESULT:    -5.727      4.503      7.172
REMARK INTER + INTRA:          -7.584
REMARK INTER:                  -7.290
REMARK INTRA:                  -0.294
REMARK UNBOUND:                -0.518
REMARK  Name = 
REMARK  5 active torsions:
REMARK  status: ('A' for Active; 'I' for Inactive)
REMARK    1  A    between atoms: C_1  and  C_2
REMARK    2  A    between atoms: C_2  and  N_3
REMARK    3  A    between atoms: C_2  and  C_14
REMARK    4  A    between atoms: N_3  and  C_4
REMARK    5  A    between atoms: C_7  and  C_8
REMARK                            x       y       z     vdW  Elec       q    Type
REMARK                         _______ _______ _______ _____ _____    ______ ____
ROOT
ATOM      1  C   UNL     1      46.685   4.626  13.688  0.00  0.00    +0.000 A 
ATOM      2  N   UNL     1      46.661   4.060  14.908  0.00  0.00    +0.000 NA
ATOM      3  C   UNL     1      47.388   4.629  15.905  0.00  0.00    +0.000 A 
ATOM      4  C   UNL     1      48.214   5.732  15.747  0.00  0.00    +0.000 A 
ATOM      5  C   UNL     1      48.239   6.321  14.480  0.00  0.00    +0.000 A 
ATOM      6  C   UNL     1      47.443   5.790  13.464  0.00  0.00    +0.000 A 
ATOM      7 CL   UNL     1      47.297   6.706  12.000  0.00  0.00    +0.000 Cl
ENDROOT
BRANCH   4   8
ATOM      8  C   UNL     1      49.020   6.335  16.821  0.00  0.00    +0.000 C 
ATOM      9  N   UNL     1      48.462   6.509  18.069  0.00  0.00    +0.000 N 
ATOM     10  O   UNL     1      50.173   6.696  16.622  0.00  0.00    +0.000 OA
ATOM     11  H   UNL     1      47.504   6.315  18.319  0.00  0.00    +0.000 HD
ATOM     12  H   UNL     1      49.043   6.949  18.763  0.00  0.00    +0.000 HD
ENDBRANCH   4   8
BRANCH   1  13
ATOM     13  N   UNL     1      45.994   3.991  12.626  0.00  0.00    +0.000 N 
ATOM     14  H   UNL     1      46.685   3.772  11.909  0.00  0.00    +0.000 HD
BRANCH  13  16
ATOM     15  C   UNL     1      43.572   4.608  12.917  0.00  0.00    +0.000 C 
ATOM     16  C   UNL     1      44.844   4.737  12.059  0.00  0.00    +0.000 C 
BRANCH  16  17
ATOM     17  C   UNL     1      44.608   4.265  10.579  0.00  0.00    +0.000 C 
ATOM     18  C   UNL     1      44.641   2.724  10.468  0.00  0.00    +0.000 C 
ATOM     19  C   UNL     1      44.521   2.206   9.038  0.00  0.00    +0.000 C 
ATOM     20  C   UNL     1      45.583   2.837   8.148  0.00  0.00    +0.000 C 
ATOM     21  C   UNL     1      45.441   4.353   8.155  0.00  0.00    +0.000 C 
ATOM     22  C   UNL     1      45.573   4.922   9.567  0.00  0.00    +0.000 C 
ENDBRANCH  16  17
ENDBRANCH  13  16
ENDBRANCH   1  13
TORSDOF 4
ENDMDL
MODEL 9
REMARK VINA RESULT:    -5.650      3.352      4.770
REMARK INTER + INTRA:          -7.490
REMARK INTER:                  -6.718
REMARK INTRA:                  -0.772
REMARK UNBOUND:                -0.518
REMARK  Name = 
REMARK  5 active torsions:
REMARK  status: ('A' for Active; 'I' for Inactive)
REMARK    1  A    between atoms: C_1  and  C_2
REMARK    2  A    between atoms: C_2  and  N_3
REMARK    3  A    between atoms: C_2  and  C_14
REMARK    4  A    between atoms: N_3  and  C_4
REMARK    5  A    between atoms: C_7  and  C_8
REMARK                            x       y       z     vdW  Elec       q    Type
REMARK                         _______ _______ _______ _____ _____    ______ ____
ROOT
ATOM      1  C   UNL     1      46.308   5.845  13.226  0.00  0.00    +0.000 A 
ATOM      2  N   UNL     1      46.470   4.543  13.526  0.00  0.00    +0.000 NA
ATOM      3  C   UNL     1      45.811   3.616  12.783  0.00  0.00    +0.000 A 
ATOM      4  C   UNL     1      44.923   3.912  11.760  0.00  0.00    +0.000 A 
ATOM      5  C   UNL     1      44.755   5.264  11.447  0.00  0.00    +0.000 A 
ATOM      6  C   UNL     1      45.479   6.225  12.155  0.00  0.00    +0.000 A 
ATOM      7 CL   UNL     1      45.447   7.851  11.558  0.00  0.00    +0.000 Cl
ENDROOT
BRANCH   4   8
ATOM      8  C   UNL     1      44.191   2.909  10.970  0.00  0.00    +0.000 C 
ATOM      9  N   UNL     1      44.796   2.343   9.869  0.00  0.00    +0.000 N 
ATOM     10  O   UNL     1      43.051   2.578  11.267  0.00  0.00    +0.000 OA
ATOM     11  H   UNL     1      45.699   2.596   9.496  0.00  0.00    +0.000 HD
ATOM     12  H   UNL     1      44.246   1.682   9.345  0.00  0.00    +0.000 HD
ENDBRANCH   4   8
BRANCH   1  13
ATOM     13  N   UNL     1      46.928   6.818  14.048  0.00  0.00    +0.000 N 
ATOM     14  H   UNL     1      46.625   7.731  13.711  0.00  0.00    +0.000 HD
BRANCH  13  16
ATOM     15  C   UNL     1      48.897   6.545  15.591  0.00  0.00    +0.000 C 
ATOM     16  C   UNL     1      48.407   6.743  14.145  0.00  0.00    +0.000 C 
BRANCH  16  17
ATOM     17  C   UNL     1      49.029   8.024  13.481  0.00  0.00    +0.000 C 
ATOM     18  C   UNL     1      48.102   9.250  13.646  0.00  0.00    +0.000 C 
ATOM     19  C   UNL     1      48.604  10.502  12.933  0.00  0.00    +0.000 C 
ATOM     20  C   UNL     1      48.865  10.212  11.461  0.00  0.00    +0.000 C 
ATOM     21  C   UNL     1      49.893   9.098  11.319  0.00  0.00    +0.000 C 
ATOM     22  C   UNL     1      49.427   7.814  12.004  0.00  0.00    +0.000 C 
ENDBRANCH  16  17
ENDBRANCH  13  16
ENDBRANCH   1  13
TORSDOF 4
ENDMDL
