MODEL 1
REMARK VINA RESULT:    -8.331      0.000      0.000
REMARK INTER + INTRA:         -10.723
REMARK INTER:                 -10.279
REMARK INTRA:                  -0.443
REMARK UNBOUND:                -0.443
REMARK  Name = 
REMARK  5 active torsions:
REMARK  status: ('A' for Active; 'I' for Inactive)
REMARK    1  A    between atoms: C_1  and  N_2
REMARK    2  A    between atoms: N_5  and  C_6
REMARK    3  A    between atoms: C_10  and  C_11
REMARK    4  A    between atoms: C_11  and  N_12
REMARK    5  A    between atoms: C_16  and  C_17
REMARK                            x       y       z     vdW  Elec       q    Type
REMARK                         _______ _______ _______ _____ _____    ______ ____
ROOT
ATOM      1  C   UNL     1      43.428   5.191  10.618  0.00  0.00    +0.000 C 
ENDROOT
BRANCH   1   2
ATOM      2  N   UNL     1      43.824   3.786  10.655  0.00  0.00    +0.000 N 
ATOM      3  C   UNL     1      44.692   3.439   9.603  0.00  0.00    +0.000 A 
ATOM      4  C   UNL     1      45.174   2.135   9.519  0.00  0.00    +0.000 A 
ATOM      5  C   UNL     1      46.013   1.778   8.458  0.00  0.00    +0.000 A 
ATOM      6  C   UNL     1      46.358   2.728   7.497  0.00  0.00    +0.000 A 
ATOM      7  C   UNL     1      45.850   4.002   7.669  0.00  0.00    +0.000 A 
ATOM      8  N   UNL     1      45.043   4.371   8.695  0.00  0.00    +0.000 NA
ATOM      9  H   UNL     1      43.019   3.168  10.623  0.00  0.00    +0.000 HD
BRANCH   6  10
ATOM     10  C   UNL     1      47.220   2.338   6.353  0.00  0.00    +0.000 C 
ATOM     11  N   UNL     1      47.216   3.107   5.221  0.00  0.00    +0.000 N 
ATOM     12  O   UNL     1      47.922   1.338   6.404  0.00  0.00    +0.000 OA
ATOM     13  H   UNL     1      46.687   3.952   5.070  0.00  0.00    +0.000 HD
ATOM     14  H   UNL     1      47.817   2.794   4.468  0.00  0.00    +0.000 HD
ENDBRANCH   6  10
ENDBRANCH   1   2
BRANCH   1  19
ATOM     15  C   UNL     1      46.107   6.267  13.124  0.00  0.00    +0.000 A 
ATOM     16  C   UNL     1      46.041   7.639  12.874  0.00  0.00    +0.000 A 
ATOM     17  N   UNL     1      45.222   8.235  11.968  0.00  0.00    +0.000 NA
ATOM     18  C   UNL     1      44.415   7.420  11.258  0.00  0.00    +0.000 A 
ATOM     19  C   UNL     1      44.382   6.042  11.404  0.00  0.00    +0.000 A 
ATOM     20  C   UNL     1      45.258   5.479  12.340  0.00  0.00    +0.000 A 
BRANCH  15  25
ATOM     21  C   UNL     1      48.809   4.424  17.628  0.00  0.00    +0.000 C 
ATOM     22  N   UNL     1      48.552   4.624  16.206  0.00  0.00    +0.000 NA
ATOM     23  C   UNL     1      47.250   4.029  15.822  0.00  0.00    +0.000 C 
ATOM     24  C   UNL     1      46.922   4.239  14.323  0.00  0.00    +0.000 C 
ATOM     25  N   UNL     1      46.965   5.677  14.026  0.00  0.00    +0.000 N 
ATOM     26  C   UNL     1      48.238   6.326  14.383  0.00  0.00    +0.000 C 
ATOM     27  C   UNL     1      48.544   6.067  15.875  0.00  0.00    +0.000 C 
ENDBRANCH  15  25
ENDBRANCH   1  19
TORSDOF 4
ENDMDL
MODEL 2
REMARK VINA RESULT:    -7.858      1.922      3.411
REMARK INTER + INTRA:         -10.139
REMARK INTER:                  -9.639
REMARK INTRA:                  -0.500
REMARK UNBOUND:                -0.443
REMARK  Name = 
REMARK  5 active torsions:
REMARK  status: ('A' for Active; 'I' for Inactive)
REMARK    1  A    between atoms: C_1  and  N_2
REMARK    2  A    between atoms: N_5  and  C_6
REMARK    3  A    between atoms: C_10  and  C_11
REMARK    4  A    between atoms: C_11  and  N_12
REMARK    5  A    between atoms: C_16  and  C_17
REMARK                            x       y       z     vdW  Elec       q    Type
REMARK                         _______ _______ _______ _____ _____    ______ ____
ROOT
ATOM      1  C   UNL     1      43.849   4.690  10.706  0.00  0.00    +0.000 C 
ENDROOT
BRANCH   1   2
ATOM      2  N   UNL     1      43.957   3.277  10.351  0.00  0.00    +0.000 N 
ATOM      3  C   UNL     1      44.893   3.046   9.327  0.00  0.00    +0.000 A 
ATOM      4  C   UNL     1      45.122   1.740   8.895  0.00  0.00    +0.000 A 
ATOM      5  C   UNL     1      46.030   1.508   7.857  0.00  0.00    +0.000 A 
ATOM      6  C   UNL     1      46.695   2.582   7.264  0.00  0.00    +0.000 A 
ATOM      7  C   UNL     1      46.421   3.840   7.767  0.00  0.00    +0.000 A 
ATOM      8  N   UNL     1      45.552   4.085   8.779  0.00  0.00    +0.000 NA
ATOM      9  H   UNL     1      43.062   2.894  10.061  0.00  0.00    +0.000 HD
BRANCH   6  10
ATOM     10  C   UNL     1      47.632   2.336   6.138  0.00  0.00    +0.000 C 
ATOM     11  N   UNL     1      47.639   3.198   5.076  0.00  0.00    +0.000 N 
ATOM     12  O   UNL     1      48.384   1.373   6.143  0.00  0.00    +0.000 OA
ATOM     13  H   UNL     1      47.072   4.024   4.968  0.00  0.00    +0.000 HD
ATOM     14  H   UNL     1      48.292   2.982   4.332  0.00  0.00    +0.000 HD
ENDBRANCH   6  10
ENDBRANCH   1   2
BRANCH   1  19
ATOM     15  C   UNL     1      46.552   6.435  12.770  0.00  0.00    +0.000 A 
ATOM     16  C   UNL     1      46.512   5.579  13.871  0.00  0.00    +0.000 A 
ATOM     17  N   UNL     1      45.689   4.507  14.005  0.00  0.00    +0.000 NA
ATOM     18  C   UNL     1      44.844   4.265  12.981  0.00  0.00    +0.000 A 
ATOM     19  C   UNL     1      44.778   5.036  11.831  0.00  0.00    +0.000 A 
ATOM     20  C   UNL     1      45.638   6.138  11.753  0.00  0.00    +0.000 A 
BRANCH  15  25
ATOM     21  C   UNL     1      49.424  10.921  11.153  0.00  0.00    +0.000 C 
ATOM     22  N   UNL     1      48.993   9.857  12.052  0.00  0.00    +0.000 NA
ATOM     23  C   UNL     1      47.540   9.960  12.324  0.00  0.00    +0.000 C 
ATOM     24  C   UNL     1      47.030   8.833  13.257  0.00  0.00    +0.000 C 
ATOM     25  N   UNL     1      47.375   7.535  12.663  0.00  0.00    +0.000 N 
ATOM     26  C   UNL     1      48.810   7.370  12.372  0.00  0.00    +0.000 C 
ATOM     27  C   UNL     1      49.286   8.528  11.467  0.00  0.00    +0.000 C 
ENDBRANCH  15  25
ENDBRANCH   1  19
TORSDOF 4
ENDMDL
MODEL 3
REMARK VINA RESULT:    -7.512      2.993      7.019
REMARK INTER + INTRA:          -9.712
REMARK INTER:                  -9.060
REMARK INTRA:                  -0.652
REMARK UNBOUND:                -0.443
REMARK  Name = 
REMARK  5 active torsions:
REMARK  status: ('A' for Active; 'I' for Inactive)
REMARK    1  A    between atoms: C_1  and  N_2
REMARK    2  A    between atoms: N_5  and  C_6
REMARK    3  A    between atoms: C_10  and  C_11
REMARK    4  A    between atoms: C_11  and  N_12
REMARK    5  A    between atoms: C_16  and  C_17
REMARK                            x       y       z     vdW  Elec       q    Type
REMARK                         _______ _______ _______ _____ _____    ______ ____
ROOT
ATOM      1  C   UNL     1      45.045   6.354  12.888  0.00  0.00    +0.000 C 
ENDROOT
BRANCH   1   2
ATOM      2  N   UNL     1      46.196   6.222  13.779  0.00  0.00    +0.000 N 
ATOM      3  C   UNL     1      47.363   6.795  13.244  0.00  0.00    +0.000 A 
ATOM      4  C   UNL     1      48.540   6.767  13.991  0.00  0.00    +0.000 A 
ATOM      5  C   UNL     1      49.711   7.310  13.451  0.00  0.00    +0.000 A 
ATOM      6  C   UNL     1      49.691   7.871  12.174  0.00  0.00    +0.000 A 
ATOM      7  C   UNL     1      48.477   7.874  11.513  0.00  0.00    +0.000 A 
ATOM      8  N   UNL     1      47.328   7.363  12.022  0.00  0.00    +0.000 NA
ATOM      9  H   UNL     1      46.388   5.250  14.001  0.00  0.00    +0.000 HD
BRANCH   6  10
ATOM     10  C   UNL     1      50.943   8.415  11.590  0.00  0.00    +0.000 C 
ATOM     11  N   UNL     1      51.934   7.551  11.215  0.00  0.00    +0.000 N 
ATOM     12  O   UNL     1      51.103   9.619  11.451  0.00  0.00    +0.000 OA
ATOM     13  H   UNL     1      51.909   6.544  11.275  0.00  0.00    +0.000 HD
ATOM     14  H   UNL     1      52.770   7.973  10.827  0.00  0.00    +0.000 HD
ENDBRANCH   6  10
ENDBRANCH   1   2
BRANCH   1  19
ATOM     15  C   UNL     1      44.733   3.422  10.455  0.00  0.00    +0.000 A 
ATOM     16  C   UNL     1      43.874   2.641  11.230  0.00  0.00    +0.000 A 
ATOM     17  N   UNL     1      43.403   2.974  12.460  0.00  0.00    +0.000 NA
ATOM     18  C   UNL     1      43.811   4.159  12.961  0.00  0.00    +0.000 A 
ATOM     19  C   UNL     1      44.663   5.028  12.299  0.00  0.00    +0.000 A 
ATOM     20  C   UNL     1      45.131   4.628  11.042  0.00  0.00    +0.000 A 
BRANCH  15  25
ATOM     21  C   UNL     1      47.841   2.156   6.014  0.00  0.00    +0.000 C 
ATOM     22  N   UNL     1      46.617   2.377   6.776  0.00  0.00    +0.000 NA
ATOM     23  C   UNL     1      46.540   1.442   7.923  0.00  0.00    +0.000 C 
ATOM     24  C   UNL     1      45.266   1.656   8.778  0.00  0.00    +0.000 C 
ATOM     25  N   UNL     1      45.224   3.056   9.221  0.00  0.00    +0.000 N 
ATOM     26  C   UNL     1      45.293   4.036   8.123  0.00  0.00    +0.000 C 
ATOM     27  C   UNL     1      46.559   3.769   7.278  0.00  0.00    +0.000 C 
ENDBRANCH  15  25
ENDBRANCH   1  19
TORSDOF 4
ENDMDL
MODEL 4
REMARK VINA RESULT:    -6.691      3.784      8.465
REMARK INTER + INTRA:          -8.699
REMARK INTER:                  -8.172
REMARK INTRA:                  -0.528
REMARK UNBOUND:                -0.443
REMARK  Name = 
REMARK  5 active torsions:
REMARK  status: ('A' for Active; 'I' for Inactive)
REMARK    1  A    between atoms: C_1  and  N_2
REMARK    2  A    between atoms: N_5  and  C_6
REMARK    3  A    between atoms: C_10  and  C_11
REMARK    4  A    between atoms: C_11  and  N_12
REMARK    5  A    between atoms: C_16  and  C_17
REMARK                            x       y       z     vdW  Elec       q    Type
REMARK                         _______ _______ _______ _____ _____    ______ ____
ROOT
ATOM      1  C   UNL     1      47.717   4.255  16.498  0.00  0.00    +0.000 C 
ENDROOT
BRANCH   1   2
ATOM      2  N   UNL     1      48.772   4.755  17.376  0.00  0.00    +0.000 N 
ATOM      3  C   UNL     1      49.851   3.861  17.490  0.00  0.00    +0.000 A 
ATOM      4  C   UNL     1      50.946   4.211  18.278  0.00  0.00    +0.000 A 
ATOM      5  C   UNL     1      52.008   3.312  18.418  0.00  0.00    +0.000 A 
ATOM      6  C   UNL     1      51.963   2.077  17.771  0.00  0.00    +0.000 A 
ATOM      7  C   UNL     1      50.848   1.821  16.994  0.00  0.00    +0.000 A 
ATOM      8  N   UNL     1      49.812   2.682  16.837  0.00  0.00    +0.000 NA
ATOM      9  H   UNL     1      48.420   4.955  18.307  0.00  0.00    +0.000 HD
BRANCH   6  10
ATOM     10  C   UNL     1      53.076   1.111  17.949  0.00  0.00    +0.000 C 
ATOM     11  N   UNL     1      53.233   0.099  17.042  0.00  0.00    +0.000 N 
ATOM     12  O   UNL     1      53.842   1.200  18.897  0.00  0.00    +0.000 OA
ATOM     13  H   UNL     1      52.669  -0.067  16.222  0.00  0.00    +0.000 HD
ATOM     14  H   UNL     1      54.004  -0.536  17.213  0.00  0.00    +0.000 HD
ENDBRANCH   6  10
ENDBRANCH   1   2
BRANCH   1  19
ATOM     15  C   UNL     1      46.705   5.471  13.018  0.00  0.00    +0.000 A 
ATOM     16  C   UNL     1      47.440   6.657  13.025  0.00  0.00    +0.000 A 
ATOM     17  N   UNL     1      48.216   7.096  14.051  0.00  0.00    +0.000 NA
ATOM     18  C   UNL     1      48.267   6.309  15.146  0.00  0.00    +0.000 A 
ATOM     19  C   UNL     1      47.584   5.109  15.271  0.00  0.00    +0.000 A 
ATOM     20  C   UNL     1      46.787   4.713  14.191  0.00  0.00    +0.000 A 
BRANCH  15  25
ATOM     21  C   UNL     1      44.514   3.219   8.423  0.00  0.00    +0.000 C 
ATOM     22  N   UNL     1      44.543   4.020   9.642  0.00  0.00    +0.000 NA
ATOM     23  C   UNL     1      44.845   3.169  10.817  0.00  0.00    +0.000 C 
ATOM     24  C   UNL     1      44.911   3.981  12.135  0.00  0.00    +0.000 C 
ATOM     25  N   UNL     1      45.900   5.056  11.979  0.00  0.00    +0.000 N 
ATOM     26  C   UNL     1      45.651   5.940  10.827  0.00  0.00    +0.000 C 
ATOM     27  C   UNL     1      45.561   5.090   9.540  0.00  0.00    +0.000 C 
ENDBRANCH  15  25
ENDBRANCH   1  19
TORSDOF 4
ENDMDL
MODEL 5
REMARK VINA RESULT:    -6.321      3.501      8.287
REMARK INTER + INTRA:          -8.242
REMARK INTER:                  -7.724
REMARK INTRA:                  -0.518
REMARK UNBOUND:                -0.443
REMARK  Name = 
REMARK  5 active torsions:
REMARK  status: ('A' for Active; 'I' for Inactive)
REMARK    1  A    between atoms: C_1  and  N_2
REMARK    2  A    between atoms: N_5  and  C_6
REMARK    3  A    between atoms: C_10  and  C_11
REMARK    4  A    between atoms: C_11  and  N_12
REMARK    5  A    between atoms: C_16  and  C_17
REMARK                            x       y       z     vdW  Elec       q    Type
REMARK                         _______ _______ _______ _____ _____    ______ ____
ROOT
ATOM      1  C   UNL     1      48.802   7.044  13.603  0.00  0.00    +0.000 C 
ENDROOT
BRANCH   1   2
ATOM      2  N   UNL     1      48.899   7.781  14.861  0.00  0.00    +0.000 N 
ATOM      3  C   UNL     1      48.857   6.938  15.987  0.00  0.00    +0.000 A 
ATOM      4  C   UNL     1      48.962   7.495  17.260  0.00  0.00    +0.000 A 
ATOM      5  C   UNL     1      48.891   6.664  18.383  0.00  0.00    +0.000 A 
ATOM      6  C   UNL     1      48.715   5.290  18.219  0.00  0.00    +0.000 A 
ATOM      7  C   UNL     1      48.641   4.821  16.921  0.00  0.00    +0.000 A 
ATOM      8  N   UNL     1      48.717   5.608  15.819  0.00  0.00    +0.000 NA
ATOM      9  H   UNL     1      48.160   8.471  14.949  0.00  0.00    +0.000 HD
BRANCH   6  10
ATOM     10  C   UNL     1      48.605   4.415  19.414  0.00  0.00    +0.000 C 
ATOM     11  N   UNL     1      48.371   3.078  19.242  0.00  0.00    +0.000 N 
ATOM     12  O   UNL     1      48.709   4.873  20.542  0.00  0.00    +0.000 OA
ATOM     13  H   UNL     1      48.276   2.592  18.363  0.00  0.00    +0.000 HD
ATOM     14  H   UNL     1      48.298   2.527  20.089  0.00  0.00    +0.000 HD
ENDBRANCH   6  10
ENDBRANCH   1   2
BRANCH   1  19
ATOM     15  C   UNL     1      45.645   6.308  11.576  0.00  0.00    +0.000 A 
ATOM     16  C   UNL     1      44.967   7.492  11.872  0.00  0.00    +0.000 A 
ATOM     17  N   UNL     1      45.433   8.488  12.669  0.00  0.00    +0.000 NA
ATOM     18  C   UNL     1      46.653   8.302  13.214  0.00  0.00    +0.000 A 
ATOM     19  C   UNL     1      47.432   7.174  13.006  0.00  0.00    +0.000 A 
ATOM     20  C   UNL     1      46.896   6.172  12.189  0.00  0.00    +0.000 A 
BRANCH  15  25
ATOM     21  C   UNL     1      44.621   1.572   8.838  0.00  0.00    +0.000 C 
ATOM     22  N   UNL     1      44.419   2.959   9.241  0.00  0.00    +0.000 NA
ATOM     23  C   UNL     1      44.164   3.048  10.698  0.00  0.00    +0.000 C 
ATOM     24  C   UNL     1      43.968   4.508  11.177  0.00  0.00    +0.000 C 
ATOM     25  N   UNL     1      45.145   5.295  10.788  0.00  0.00    +0.000 N 
ATOM     26  C   UNL     1      45.448   5.250   9.347  0.00  0.00    +0.000 C 
ATOM     27  C   UNL     1      45.606   3.778   8.903  0.00  0.00    +0.000 C 
ENDBRANCH  15  25
ENDBRANCH   1  19
TORSDOF 4
ENDMDL
MODEL 6
REMARK VINA RESULT:    -5.810      3.995      8.300
REMARK INTER + INTRA:          -7.612
REMARK INTER:                  -7.018
REMARK INTRA:                  -0.594
REMARK UNBOUND:                -0.443
REMARK  Name = 
REMARK  5 active torsions:
REMARK  status: ('A' for Active; 'I' for Inactive)
REMARK    1  A    between atoms: C_1  and  N_2
REMARK    2  A    between atoms: N_5  and  C_6
REMARK    3  A    between atoms: C_10  and  C_11
REMARK    4  A    between atoms: C_11  and  N_12
REMARK    5  A    between atoms: C_16  and  C_17
REMARK                            x       y       z     vdW  Elec       q    Type
REMARK                         _______ _______ _______ _____ _____    ______ ____
ROOT
ATOM      1  C   UNL     1      49.254   7.656  15.462  0.00  0.00    +0.000 C 
ENDROOT
BRANCH   1   2
ATOM      2  N   UNL     1      48.619   6.656  16.318  0.00  0.00    +0.000 N 
ATOM      3  C   UNL     1      49.547   5.779  16.908  0.00  0.00    +0.000 A 
ATOM      4  C   UNL     1      49.091   4.784  17.770  0.00  0.00    +0.000 A 
ATOM      5  C   UNL     1      50.008   3.891  18.336  0.00  0.00    +0.000 A 
ATOM      6  C   UNL     1      51.364   4.004  18.032  0.00  0.00    +0.000 A 
ATOM      7  C   UNL     1      51.730   5.032  17.183  0.00  0.00    +0.000 A 
ATOM      8  N   UNL     1      50.859   5.914  16.632  0.00  0.00    +0.000 NA
ATOM      9  H   UNL     1      47.936   6.105  15.807  0.00  0.00    +0.000 HD
BRANCH   6  10
ATOM     10  C   UNL     1      52.330   3.034  18.606  0.00  0.00    +0.000 C 
ATOM     11  N   UNL     1      52.251   1.718  18.241  0.00  0.00    +0.000 N 
ATOM     12  O   UNL     1      53.183   3.391  19.406  0.00  0.00    +0.000 OA
ATOM     13  H   UNL     1      51.598   1.313  17.587  0.00  0.00    +0.000 HD
ATOM     14  H   UNL     1      52.929   1.096  18.666  0.00  0.00    +0.000 HD
ENDBRANCH   6  10
ENDBRANCH   1   2
BRANCH   1  19
ATOM     15  C   UNL     1      47.179   6.659  12.410  0.00  0.00    +0.000 A 
ATOM     16  C   UNL     1      47.963   7.297  11.448  0.00  0.00    +0.000 A 
ATOM     17  N   UNL     1      49.085   8.021  11.701  0.00  0.00    +0.000 NA
ATOM     18  C   UNL     1      49.456   8.124  12.994  0.00  0.00    +0.000 A 
ATOM     19  C   UNL     1      48.767   7.544  14.048  0.00  0.00    +0.000 A 
ATOM     20  C   UNL     1      47.609   6.822  13.731  0.00  0.00    +0.000 A 
BRANCH  15  25
ATOM     21  C   UNL     1      43.301   2.798  11.391  0.00  0.00    +0.000 C 
ATOM     22  N   UNL     1      43.845   4.141  11.560  0.00  0.00    +0.000 NA
ATOM     23  C   UNL     1      44.376   4.320  12.932  0.00  0.00    +0.000 C 
ATOM     24  C   UNL     1      44.989   5.726  13.151  0.00  0.00    +0.000 C 
ATOM     25  N   UNL     1      46.028   5.952  12.138  0.00  0.00    +0.000 N 
ATOM     26  C   UNL     1      45.559   5.792  10.751  0.00  0.00    +0.000 C 
ATOM     27  C   UNL     1      44.928   4.392  10.581  0.00  0.00    +0.000 C 
ENDBRANCH  15  25
ENDBRANCH   1  19
TORSDOF 4
ENDMDL
MODEL 7
REMARK VINA RESULT:    -5.799      3.701      7.684
REMARK INTER + INTRA:          -7.599
REMARK INTER:                  -6.987
REMARK INTRA:                  -0.612
REMARK UNBOUND:                -0.443
REMARK  Name = 
REMARK  5 active torsions:
REMARK  status: ('A' for Active; 'I' for Inactive)
REMARK    1  A    between atoms: C_1  and  N_2
REMARK    2  A    between atoms: N_5  and  C_6
REMARK    3  A    between atoms: C_10  and  C_11
REMARK    4  A    between atoms: C_11  and  N_12
REMARK    5  A    between atoms: C_16  and  C_17
REMARK                            x       y       z     vdW  Elec       q    Type
REMARK                         _______ _______ _______ _____ _____    ______ ____
ROOT
ATOM      1  C   UNL     1      48.063   9.584  12.896  0.00  0.00    +0.000 C 
ENDROOT
BRANCH   1   2
ATOM      2  N   UNL     1      48.023   9.863  14.330  0.00  0.00    +0.000 N 
ATOM      3  C   UNL     1      48.379   8.747  15.108  0.00  0.00    +0.000 A 
ATOM      4  C   UNL     1      48.409   8.866  16.496  0.00  0.00    +0.000 A 
ATOM      5  C   UNL     1      48.734   7.751  17.276  0.00  0.00    +0.000 A 
ATOM      6  C   UNL     1      49.022   6.533  16.659  0.00  0.00    +0.000 A 
ATOM      7  C   UNL     1      48.988   6.510  15.277  0.00  0.00    +0.000 A 
ATOM      8  N   UNL     1      48.686   7.582  14.503  0.00  0.00    +0.000 NA
ATOM      9  H   UNL     1      47.105  10.180  14.624  0.00  0.00    +0.000 HD
BRANCH   6  10
ATOM     10  C   UNL     1      49.333   5.342  17.490  0.00  0.00    +0.000 C 
ATOM     11  N   UNL     1      48.886   5.296  18.782  0.00  0.00    +0.000 N 
ATOM     12  O   UNL     1      49.987   4.413  17.040  0.00  0.00    +0.000 OA
ATOM     13  H   UNL     1      48.334   5.997  19.253  0.00  0.00    +0.000 HD
ATOM     14  H   UNL     1      49.130   4.465  19.308  0.00  0.00    +0.000 HD
ENDBRANCH   6  10
ENDBRANCH   1   2
BRANCH   1  19
ATOM     15  C   UNL     1      44.915   7.900  11.530  0.00  0.00    +0.000 A 
ATOM     16  C   UNL     1      44.192   9.064  11.268  0.00  0.00    +0.000 A 
ATOM     17  N   UNL     1      44.626  10.330  11.503  0.00  0.00    +0.000 NA
ATOM     18  C   UNL     1      45.860  10.454  12.036  0.00  0.00    +0.000 A 
ATOM     19  C   UNL     1      46.681   9.382  12.347  0.00  0.00    +0.000 A 
ATOM     20  C   UNL     1      46.177   8.099  12.099  0.00  0.00    +0.000 A 
BRANCH  15  25
ATOM     21  C   UNL     1      43.326   2.576  11.869  0.00  0.00    +0.000 C 
ATOM     22  N   UNL     1      43.580   3.862  11.229  0.00  0.00    +0.000 NA
ATOM     23  C   UNL     1      42.758   4.926  11.852  0.00  0.00    +0.000 C 
ATOM     24  C   UNL     1      43.013   6.317  11.221  0.00  0.00    +0.000 C 
ATOM     25  N   UNL     1      44.447   6.622  11.312  0.00  0.00    +0.000 N 
ATOM     26  C   UNL     1      45.318   5.601  10.705  0.00  0.00    +0.000 C 
ATOM     27  C   UNL     1      45.012   4.225  11.338  0.00  0.00    +0.000 C 
ENDBRANCH  15  25
ENDBRANCH   1  19
TORSDOF 4
ENDMDL
MODEL 8
REMARK VINA RESULT:    -5.612      4.962      7.167
REMARK INTER + INTRA:          -7.368
REMARK INTER:                  -6.820
REMARK INTRA:                  -0.547
REMARK UNBOUND:                -0.443
REMARK  Name = 
REMARK  5 active torsions:
REMARK  status: ('A' for Active; 'I' for Inactive)
REMARK    1  A    between atoms: C_1  and  N_2
REMARK    2  A    between atoms: N_5  and  C_6
REMARK    3  A    between atoms: C_10  and  C_11
REMARK    4  A    between atoms: C_11  and  N_12
REMARK    5  A    between atoms: C_16  and  C_17
REMARK                            x       y       z     vdW  Elec       q    Type
REMARK                         _______ _______ _______ _____ _____    ______ ____
ROOT
ATOM      1  C   UNL     1      48.362   7.677  13.087  0.00  0.00    +0.000 C 
ENDROOT
BRANCH   1   2
ATOM      2  N   UNL     1      47.727   7.509  11.782  0.00  0.00    +0.000 N 
ATOM      3  C   UNL     1      46.781   6.468  11.771  0.00  0.00    +0.000 A 
ATOM      4  C   UNL     1      46.075   6.202  10.599  0.00  0.00    +0.000 A 
ATOM      5  C   UNL     1      45.155   5.149  10.574  0.00  0.00    +0.000 A 
ATOM      6  C   UNL     1      44.954   4.376  11.718  0.00  0.00    +0.000 A 
ATOM      7  C   UNL     1      45.682   4.722  12.840  0.00  0.00    +0.000 A 
ATOM      8  N   UNL     1      46.571   5.745  12.889  0.00  0.00    +0.000 NA
ATOM      9  H   UNL     1      48.411   7.330  11.053  0.00  0.00    +0.000 HD
BRANCH   6  10
ATOM     10  C   UNL     1      44.002   3.237  11.678  0.00  0.00    +0.000 C 
ATOM     11  N   UNL     1      43.799   2.498  12.811  0.00  0.00    +0.000 N 
ATOM     12  O   UNL     1      43.410   2.946  10.649  0.00  0.00    +0.000 OA
ATOM     13  H   UNL     1      44.223   2.650  13.713  0.00  0.00    +0.000 HD
ATOM     14  H   UNL     1      43.145   1.728  12.730  0.00  0.00    +0.000 HD
ENDBRANCH   6  10
ENDBRANCH   1   2
BRANCH   1  19
ATOM     15  C   UNL     1      51.826   8.196  11.555  0.00  0.00    +0.000 A 
ATOM     16  C   UNL     1      52.490   8.539  12.734  0.00  0.00    +0.000 A 
ATOM     17  N   UNL     1      51.917   8.625  13.963  0.00  0.00    +0.000 NA
ATOM     18  C   UNL     1      50.597   8.358  14.032  0.00  0.00    +0.000 A 
ATOM     19  C   UNL     1      49.818   8.008  12.940  0.00  0.00    +0.000 A 
ATOM     20  C   UNL     1      50.456   7.949  11.695  0.00  0.00    +0.000 A 
BRANCH  15  25
ATOM     21  C   UNL     1      53.026   8.141   6.120  0.00  0.00    +0.000 C 
ATOM     22  N   UNL     1      53.287   8.048   7.553  0.00  0.00    +0.000 NA
ATOM     23  C   UNL     1      52.949   9.323   8.228  0.00  0.00    +0.000 C 
ATOM     24  C   UNL     1      53.185   9.263   9.758  0.00  0.00    +0.000 C 
ATOM     25  N   UNL     1      52.417   8.140  10.312  0.00  0.00    +0.000 N 
ATOM     26  C   UNL     1      52.713   6.842   9.682  0.00  0.00    +0.000 C 
ATOM     27  C   UNL     1      52.495   6.952   8.156  0.00  0.00    +0.000 C 
ENDBRANCH  15  25
ENDBRANCH   1  19
TORSDOF 4
ENDMDL
