MODEL 1
REMARK VINA RESULT:    -8.083      0.000      0.000
REMARK INTER + INTRA:          -9.938
REMARK INTER:                  -9.500
REMARK INTRA:                  -0.438
REMARK UNBOUND:                -0.438
REMARK  Name = 
REMARK  3 active torsions:
REMARK  status: ('A' for Active; 'I' for Inactive)
REMARK    1  A    between atoms: C_2  and  C_4
REMARK    2  A    between atoms: N_8  and  C_9
REMARK    3  A    between atoms: C_9  and  C_10
REMARK                            x       y       z     vdW  Elec       q    Type
REMARK                         _______ _______ _______ _____ _____    ______ ____
ROOT
ATOM      1  C   UNL     1      46.452   2.661   7.562  0.00  0.00    +0.000 A 
ATOM      2  C   UNL     1      46.021   3.949   7.763  0.00  0.00    +0.000 A 
ATOM      3  N   UNL     1      45.186   4.299   8.776  0.00  0.00    +0.000 NA
ATOM      4  C   UNL     1      44.770   3.303   9.578  0.00  0.00    +0.000 A 
ATOM      5  N   UNL     1      43.873   3.547  10.619  0.00  0.00    +0.000 N 
ATOM      6  N   UNL     1      45.163   2.016   9.395  0.00  0.00    +0.000 NA
ATOM      7  N   UNL     1      46.026   1.680   8.378  0.00  0.00    +0.000 NA
ATOM      8  H   UNL     1      43.827   2.699  11.177  0.00  0.00    +0.000 HD
ENDROOT
BRANCH   1  10
ATOM      9  N   UNL     1      47.337   3.081   5.336  0.00  0.00    +0.000 N 
ATOM     10  C   UNL     1      47.400   2.324   6.476  0.00  0.00    +0.000 C 
ATOM     11  O   UNL     1      48.206   1.408   6.589  0.00  0.00    +0.000 OA
ATOM     12  H   UNL     1      47.973   2.871   4.577  0.00  0.00    +0.000 HD
ATOM     13  H   UNL     1      46.704   3.867   5.248  0.00  0.00    +0.000 HD
ENDBRANCH   1  10
BRANCH   5  14
ATOM     14  C   UNL     1      43.855   4.821  11.356  0.00  0.00    +0.000 C 
ATOM     15  C   UNL     1      42.577   5.100  12.141  0.00  0.00    +0.000 C 
ATOM     16  C   UNL     1      42.938   5.971  10.984  0.00  0.00    +0.000 C 
BRANCH  14  17
ATOM     17  C   UNL     1      45.188   5.183  12.007  0.00  0.00    +0.000 A 
ATOM     18  C   UNL     1      45.911   6.318  11.596  0.00  0.00    +0.000 A 
ATOM     19  C   UNL     1      47.106   6.685  12.219  0.00  0.00    +0.000 A 
ATOM     20  C   UNL     1      47.599   5.910  13.259  0.00  0.00    +0.000 A 
ATOM     21  F   UNL     1      48.732   6.271  13.875  0.00  0.00    +0.000 F 
ATOM     22  C   UNL     1      46.928   4.769  13.675  0.00  0.00    +0.000 A 
ATOM     23  C   UNL     1      45.736   4.404  13.047  0.00  0.00    +0.000 A 
ENDBRANCH  14  17
ENDBRANCH   5  14
TORSDOF 3
ENDMDL
MODEL 2
REMARK VINA RESULT:    -6.801      4.228      6.318
REMARK INTER + INTRA:          -8.431
REMARK INTER:                  -8.984
REMARK INTRA:                   0.552
REMARK UNBOUND:                -0.438
REMARK  Name = 
REMARK  3 active torsions:
REMARK  status: ('A' for Active; 'I' for Inactive)
REMARK    1  A    between atoms: C_2  and  C_4
REMARK    2  A    between atoms: N_8  and  C_9
REMARK    3  A    between atoms: C_9  and  C_10
REMARK                            x       y       z     vdW  Elec       q    Type
REMARK                         _______ _______ _______ _____ _____    ______ ____
ROOT
ATOM      1  C   UNL     1      47.980   5.673  14.741  0.00  0.00    +0.000 A 
ATOM      2  C   UNL     1      47.484   5.968  13.495  0.00  0.00    +0.000 A 
ATOM      3  N   UNL     1      46.722   5.102  12.780  0.00  0.00    +0.000 NA
ATOM      4  C   UNL     1      46.487   3.904  13.346  0.00  0.00    +0.000 A 
ATOM      5  N   UNL     1      45.756   2.923  12.675  0.00  0.00    +0.000 N 
ATOM      6  N   UNL     1      46.978   3.575  14.569  0.00  0.00    +0.000 NA
ATOM      7  N   UNL     1      47.731   4.471  15.291  0.00  0.00    +0.000 NA
ATOM      8  H   UNL     1      45.572   2.180  13.343  0.00  0.00    +0.000 HD
ENDROOT
BRANCH   1  10
ATOM      9  N   UNL     1      48.140   7.830  15.855  0.00  0.00    +0.000 N 
ATOM     10  C   UNL     1      48.768   6.662  15.513  0.00  0.00    +0.000 C 
ATOM     11  O   UNL     1      49.932   6.447  15.831  0.00  0.00    +0.000 OA
ATOM     12  H   UNL     1      48.656   8.524  16.381  0.00  0.00    +0.000 HD
ATOM     13  H   UNL     1      47.165   8.001  15.633  0.00  0.00    +0.000 HD
ENDBRANCH   1  10
BRANCH   5  14
ATOM     14  C   UNL     1      44.665   3.257  11.746  0.00  0.00    +0.000 C 
ATOM     15  C   UNL     1      43.640   4.254  12.278  0.00  0.00    +0.000 C 
ATOM     16  C   UNL     1      43.224   2.849  11.992  0.00  0.00    +0.000 C 
BRANCH  14  17
ATOM     17  C   UNL     1      45.105   3.391  10.290  0.00  0.00    +0.000 A 
ATOM     18  C   UNL     1      45.409   4.649   9.736  0.00  0.00    +0.000 A 
ATOM     19  C   UNL     1      45.861   4.776   8.421  0.00  0.00    +0.000 A 
ATOM     20  C   UNL     1      46.005   3.641   7.637  0.00  0.00    +0.000 A 
ATOM     21  F   UNL     1      46.460   3.756   6.382  0.00  0.00    +0.000 F 
ATOM     22  C   UNL     1      45.690   2.386   8.138  0.00  0.00    +0.000 A 
ATOM     23  C   UNL     1      45.236   2.264   9.452  0.00  0.00    +0.000 A 
ENDBRANCH  14  17
ENDBRANCH   5  14
TORSDOF 3
ENDMDL
MODEL 3
REMARK VINA RESULT:    -6.791      4.133      6.146
REMARK INTER + INTRA:          -8.419
REMARK INTER:                  -8.258
REMARK INTRA:                  -0.161
REMARK UNBOUND:                -0.438
REMARK  Name = 
REMARK  3 active torsions:
REMARK  status: ('A' for Active; 'I' for Inactive)
REMARK    1  A    between atoms: C_2  and  C_4
REMARK    2  A    between atoms: N_8  and  C_9
REMARK    3  A    between atoms: C_9  and  C_10
REMARK                            x       y       z     vdW  Elec       q    Type
REMARK                         _______ _______ _______ _____ _____    ______ ____
ROOT
ATOM      1  C   UNL     1      48.301   6.733  13.571  0.00  0.00    +0.000 A 
ATOM      2  C   UNL     1      47.432   5.718  13.891  0.00  0.00    +0.000 A 
ATOM      3  N   UNL     1      46.326   5.436  13.156  0.00  0.00    +0.000 NA
ATOM      4  C   UNL     1      46.098   6.224  12.090  0.00  0.00    +0.000 A 
ATOM      5  N   UNL     1      44.964   6.050  11.297  0.00  0.00    +0.000 N 
ATOM      6  N   UNL     1      46.928   7.247  11.759  0.00  0.00    +0.000 NA
ATOM      7  N   UNL     1      48.057   7.509  12.500  0.00  0.00    +0.000 NA
ATOM      8  H   UNL     1      45.081   6.639  10.477  0.00  0.00    +0.000 HD
ENDROOT
BRANCH   1  10
ATOM      9  N   UNL     1      50.522   7.705  13.772  0.00  0.00    +0.000 N 
ATOM     10  C   UNL     1      49.524   6.982  14.369  0.00  0.00    +0.000 C 
ATOM     11  O   UNL     1      49.641   6.558  15.513  0.00  0.00    +0.000 OA
ATOM     12  H   UNL     1      51.369   7.888  14.295  0.00  0.00    +0.000 HD
ATOM     13  H   UNL     1      50.419   8.096  12.843  0.00  0.00    +0.000 HD
ENDBRANCH   1  10
BRANCH   5  14
ATOM     14  C   UNL     1      44.358   4.727  11.075  0.00  0.00    +0.000 C 
ATOM     15  C   UNL     1      42.851   4.657  11.294  0.00  0.00    +0.000 C 
ATOM     16  C   UNL     1      43.764   3.897  12.197  0.00  0.00    +0.000 C 
BRANCH  14  17
ATOM     17  C   UNL     1      44.946   3.965   9.890  0.00  0.00    +0.000 A 
ATOM     18  C   UNL     1      45.568   4.644   8.825  0.00  0.00    +0.000 A 
ATOM     19  C   UNL     1      46.152   3.953   7.762  0.00  0.00    +0.000 A 
ATOM     20  C   UNL     1      46.113   2.567   7.746  0.00  0.00    +0.000 A 
ATOM     21  F   UNL     1      46.693   1.899   6.740  0.00  0.00    +0.000 F 
ATOM     22  C   UNL     1      45.486   1.862   8.764  0.00  0.00    +0.000 A 
ATOM     23  C   UNL     1      44.900   2.557   9.822  0.00  0.00    +0.000 A 
ENDBRANCH  14  17
ENDBRANCH   5  14
TORSDOF 3
ENDMDL
MODEL 4
REMARK VINA RESULT:    -6.718      4.171      6.485
REMARK INTER + INTRA:          -8.334
REMARK INTER:                  -8.438
REMARK INTRA:                   0.105
REMARK UNBOUND:                -0.438
REMARK  Name = 
REMARK  3 active torsions:
REMARK  status: ('A' for Active; 'I' for Inactive)
REMARK    1  A    between atoms: C_2  and  C_4
REMARK    2  A    between atoms: N_8  and  C_9
REMARK    3  A    between atoms: C_9  and  C_10
REMARK                            x       y       z     vdW  Elec       q    Type
REMARK                         _______ _______ _______ _____ _____    ______ ____
ROOT
ATOM      1  C   UNL     1      47.532   5.152  14.950  0.00  0.00    +0.000 A 
ATOM      2  C   UNL     1      46.381   4.420  14.790  0.00  0.00    +0.000 A 
ATOM      3  N   UNL     1      45.644   4.442  13.650  0.00  0.00    +0.000 NA
ATOM      4  C   UNL     1      46.086   5.249  12.668  0.00  0.00    +0.000 A 
ATOM      5  N   UNL     1      45.376   5.383  11.474  0.00  0.00    +0.000 N 
ATOM      6  N   UNL     1      47.210   6.000  12.802  0.00  0.00    +0.000 NA
ATOM      7  N   UNL     1      47.958   5.951  13.955  0.00  0.00    +0.000 NA
ATOM      8  H   UNL     1      45.967   5.906  10.834  0.00  0.00    +0.000 HD
ENDROOT
BRANCH   1  10
ATOM      9  N   UNL     1      48.282   6.136  17.044  0.00  0.00    +0.000 N 
ATOM     10  C   UNL     1      48.336   5.066  16.190  0.00  0.00    +0.000 C 
ATOM     11  O   UNL     1      49.022   4.083  16.443  0.00  0.00    +0.000 OA
ATOM     12  H   UNL     1      48.824   6.103  17.898  0.00  0.00    +0.000 HD
ATOM     13  H   UNL     1      47.686   6.936  16.865  0.00  0.00    +0.000 HD
ENDBRANCH   1  10
BRANCH   5  14
ATOM     14  C   UNL     1      44.600   4.274  10.895  0.00  0.00    +0.000 C 
ATOM     15  C   UNL     1      43.085   4.448  10.939  0.00  0.00    +0.000 C 
ATOM     16  C   UNL     1      43.726   3.358  11.733  0.00  0.00    +0.000 C 
BRANCH  14  17
ATOM     17  C   UNL     1      45.216   3.676   9.633  0.00  0.00    +0.000 A 
ATOM     18  C   UNL     1      45.774   4.499   8.637  0.00  0.00    +0.000 A 
ATOM     19  C   UNL     1      46.383   3.959   7.502  0.00  0.00    +0.000 A 
ATOM     20  C   UNL     1      46.434   2.582   7.346  0.00  0.00    +0.000 A 
ATOM     21  F   UNL     1      47.038   2.059   6.271  0.00  0.00    +0.000 F 
ATOM     22  C   UNL     1      45.871   1.738   8.293  0.00  0.00    +0.000 A 
ATOM     23  C   UNL     1      45.260   2.282   9.423  0.00  0.00    +0.000 A 
ENDBRANCH  14  17
ENDBRANCH   5  14
TORSDOF 3
ENDMDL
MODEL 5
REMARK VINA RESULT:    -6.427      4.349      6.514
REMARK INTER + INTRA:          -7.992
REMARK INTER:                  -8.577
REMARK INTRA:                   0.585
REMARK UNBOUND:                -0.438
REMARK  Name = 
REMARK  3 active torsions:
REMARK  status: ('A' for Active; 'I' for Inactive)
REMARK    1  A    between atoms: C_2  and  C_4
REMARK    2  A    between atoms: N_8  and  C_9
REMARK    3  A    between atoms: C_9  and  C_10
REMARK                            x       y       z     vdW  Elec       q    Type
REMARK                         _______ _______ _______ _____ _____    ______ ____
ROOT
ATOM      1  C   UNL     1      48.147   5.854  15.018  0.00  0.00    +0.000 A 
ATOM      2  C   UNL     1      47.750   6.203  13.750  0.00  0.00    +0.000 A 
ATOM      3  N   UNL     1      46.847   5.484  13.036  0.00  0.00    +0.000 NA
ATOM      4  C   UNL     1      46.364   4.376  13.626  0.00  0.00    +0.000 A 
ATOM      5  N   UNL     1      45.468   3.539  12.959  0.00  0.00    +0.000 N 
ATOM      6  N   UNL     1      46.751   3.993  14.871  0.00  0.00    +0.000 NA
ATOM      7  N   UNL     1      47.650   4.744  15.592  0.00  0.00    +0.000 NA
ATOM      8  H   UNL     1      45.123   2.869  13.640  0.00  0.00    +0.000 HD
ENDROOT
BRANCH   1  10
ATOM      9  N   UNL     1      48.579   7.752  16.477  0.00  0.00    +0.000 N 
ATOM     10  C   UNL     1      49.099   6.690  15.787  0.00  0.00    +0.000 C 
ATOM     11  O   UNL     1      50.299   6.444  15.804  0.00  0.00    +0.000 OA
ATOM     12  H   UNL     1      49.208   8.341  17.009  0.00  0.00    +0.000 HD
ATOM     13  H   UNL     1      47.584   7.940  16.504  0.00  0.00    +0.000 HD
ENDBRANCH   1  10
BRANCH   5  14
ATOM     14  C   UNL     1      44.487   4.055  11.990  0.00  0.00    +0.000 C 
ATOM     15  C   UNL     1      43.805   5.360  12.387  0.00  0.00    +0.000 C 
ATOM     16  C   UNL     1      42.999   4.109  12.278  0.00  0.00    +0.000 C 
BRANCH  14  17
ATOM     17  C   UNL     1      44.902   3.878  10.531  0.00  0.00    +0.000 A 
ATOM     18  C   UNL     1      44.682   2.663   9.856  0.00  0.00    +0.000 A 
ATOM     19  C   UNL     1      45.012   2.509   8.508  0.00  0.00    +0.000 A 
ATOM     20  C   UNL     1      45.578   3.572   7.818  0.00  0.00    +0.000 A 
ATOM     21  F   UNL     1      45.874   3.436   6.519  0.00  0.00    +0.000 F 
ATOM     22  C   UNL     1      45.834   4.777   8.456  0.00  0.00    +0.000 A 
ATOM     23  C   UNL     1      45.506   4.926   9.804  0.00  0.00    +0.000 A 
ENDBRANCH  14  17
ENDBRANCH   5  14
TORSDOF 3
ENDMDL
MODEL 6
REMARK VINA RESULT:    -5.426      3.368      4.878
REMARK INTER + INTRA:          -6.815
REMARK INTER:                  -7.158
REMARK INTRA:                   0.343
REMARK UNBOUND:                -0.438
REMARK  Name = 
REMARK  3 active torsions:
REMARK  status: ('A' for Active; 'I' for Inactive)
REMARK    1  A    between atoms: C_2  and  C_4
REMARK    2  A    between atoms: N_8  and  C_9
REMARK    3  A    between atoms: C_9  and  C_10
REMARK                            x       y       z     vdW  Elec       q    Type
REMARK                         _______ _______ _______ _____ _____    ______ ____
ROOT
ATOM      1  C   UNL     1      44.096   3.946  11.626  0.00  0.00    +0.000 A 
ATOM      2  C   UNL     1      43.848   5.076  10.885  0.00  0.00    +0.000 A 
ATOM      3  N   UNL     1      44.203   6.320  11.295  0.00  0.00    +0.000 NA
ATOM      4  C   UNL     1      44.802   6.406  12.496  0.00  0.00    +0.000 A 
ATOM      5  N   UNL     1      45.163   7.642  13.033  0.00  0.00    +0.000 N 
ATOM      6  N   UNL     1      45.044   5.310  13.262  0.00  0.00    +0.000 NA
ATOM      7  N   UNL     1      44.697   4.053  12.824  0.00  0.00    +0.000 NA
ATOM      8  H   UNL     1      45.731   7.455  13.855  0.00  0.00    +0.000 HD
ENDROOT
BRANCH   1  10
ATOM      9  N   UNL     1      44.416   2.140  10.029  0.00  0.00    +0.000 N 
ATOM     10  C   UNL     1      43.736   2.599  11.125  0.00  0.00    +0.000 C 
ATOM     11  O   UNL     1      42.867   1.925  11.665  0.00  0.00    +0.000 OA
ATOM     12  H   UNL     1      44.189   1.223   9.665  0.00  0.00    +0.000 HD
ATOM     13  H   UNL     1      45.165   2.671   9.600  0.00  0.00    +0.000 HD
ENDBRANCH   1  10
BRANCH   5  14
ATOM     14  C   UNL     1      45.584   8.770  12.186  0.00  0.00    +0.000 C 
ATOM     15  C   UNL     1      44.797  10.062  12.386  0.00  0.00    +0.000 C 
ATOM     16  C   UNL     1      44.711   9.339  11.083  0.00  0.00    +0.000 C 
BRANCH  14  17
ATOM     17  C   UNL     1      47.095   8.875  11.994  0.00  0.00    +0.000 A 
ATOM     18  C   UNL     1      47.911   7.728  12.014  0.00  0.00    +0.000 A 
ATOM     19  C   UNL     1      49.287   7.809  11.790  0.00  0.00    +0.000 A 
ATOM     20  C   UNL     1      49.867   9.046  11.551  0.00  0.00    +0.000 A 
ATOM     21  F   UNL     1      51.183   9.125  11.312  0.00  0.00    +0.000 F 
ATOM     22  C   UNL     1      49.101  10.203  11.549  0.00  0.00    +0.000 A 
ATOM     23  C   UNL     1      47.727  10.118  11.778  0.00  0.00    +0.000 A 
ENDBRANCH  14  17
ENDBRANCH   5  14
TORSDOF 3
ENDMDL
MODEL 7
REMARK VINA RESULT:    -5.371      5.919      7.851
REMARK INTER + INTRA:          -6.750
REMARK INTER:                  -6.957
REMARK INTRA:                   0.207
REMARK UNBOUND:                -0.438
REMARK  Name = 
REMARK  3 active torsions:
REMARK  status: ('A' for Active; 'I' for Inactive)
REMARK    1  A    between atoms: C_2  and  C_4
REMARK    2  A    between atoms: N_8  and  C_9
REMARK    3  A    between atoms: C_9  and  C_10
REMARK                            x       y       z     vdW  Elec       q    Type
REMARK                         _______ _______ _______ _____ _____    ______ ____
ROOT
ATOM      1  C   UNL     1      46.871   4.698  13.588  0.00  0.00    +0.000 A 
ATOM      2  C   UNL     1      47.322   5.528  14.584  0.00  0.00    +0.000 A 
ATOM      3  N   UNL     1      47.903   5.068  15.723  0.00  0.00    +0.000 NA
ATOM      4  C   UNL     1      47.998   3.732  15.847  0.00  0.00    +0.000 A 
ATOM      5  N   UNL     1      48.533   3.154  16.999  0.00  0.00    +0.000 N 
ATOM      6  N   UNL     1      47.544   2.884  14.888  0.00  0.00    +0.000 NA
ATOM      7  N   UNL     1      46.978   3.364  13.731  0.00  0.00    +0.000 NA
ATOM      8  H   UNL     1      48.651   2.163  16.808  0.00  0.00    +0.000 HD
ENDROOT
BRANCH   1  10
ATOM      9  N   UNL     1      46.843   6.382  11.833  0.00  0.00    +0.000 N 
ATOM     10  C   UNL     1      46.287   5.237  12.338  0.00  0.00    +0.000 C 
ATOM     11  O   UNL     1      45.345   4.686  11.780  0.00  0.00    +0.000 OA
ATOM     12  H   UNL     1      46.461   6.773  10.981  0.00  0.00    +0.000 HD
ATOM     13  H   UNL     1      47.648   6.823  12.263  0.00  0.00    +0.000 HD
ENDBRANCH   1  10
BRANCH   5  14
ATOM     14  C   UNL     1      49.599   3.804  17.778  0.00  0.00    +0.000 C 
ATOM     15  C   UNL     1      49.164   4.380  19.122  0.00  0.00    +0.000 C 
ATOM     16  C   UNL     1      49.630   5.298  18.042  0.00  0.00    +0.000 C 
BRANCH  14  17
ATOM     17  C   UNL     1      50.946   3.088  17.709  0.00  0.00    +0.000 A 
ATOM     18  C   UNL     1      52.148   3.775  17.965  0.00  0.00    +0.000 A 
ATOM     19  C   UNL     1      53.380   3.117  17.953  0.00  0.00    +0.000 A 
ATOM     20  C   UNL     1      53.425   1.759  17.674  0.00  0.00    +0.000 A 
ATOM     21  F   UNL     1      54.601   1.118  17.685  0.00  0.00    +0.000 F 
ATOM     22  C   UNL     1      52.264   1.052  17.391  0.00  0.00    +0.000 A 
ATOM     23  C   UNL     1      51.036   1.714  17.401  0.00  0.00    +0.000 A 
ENDBRANCH  14  17
ENDBRANCH   5  14
TORSDOF 3
ENDMDL
MODEL 8
REMARK VINA RESULT:    -5.303      6.210      7.613
REMARK INTER + INTRA:          -6.671
REMARK INTER:                  -6.215
REMARK INTRA:                  -0.456
REMARK UNBOUND:                -0.438
REMARK  Name = 
REMARK  3 active torsions:
REMARK  status: ('A' for Active; 'I' for Inactive)
REMARK    1  A    between atoms: C_2  and  C_4
REMARK    2  A    between atoms: N_8  and  C_9
REMARK    3  A    between atoms: C_9  and  C_10
REMARK                            x       y       z     vdW  Elec       q    Type
REMARK                         _______ _______ _______ _____ _____    ______ ____
ROOT
ATOM      1  C   UNL     1      49.438   7.310  12.985  0.00  0.00    +0.000 A 
ATOM      2  C   UNL     1      49.793   7.679  14.260  0.00  0.00    +0.000 A 
ATOM      3  N   UNL     1      49.267   7.097  15.369  0.00  0.00    +0.000 NA
ATOM      4  C   UNL     1      48.346   6.139  15.162  0.00  0.00    +0.000 A 
ATOM      5  N   UNL     1      47.709   5.512  16.234  0.00  0.00    +0.000 N 
ATOM      6  N   UNL     1      47.961   5.765  13.915  0.00  0.00    +0.000 NA
ATOM      7  N   UNL     1      48.517   6.348  12.800  0.00  0.00    +0.000 NA
ATOM      8  H   UNL     1      47.185   4.730  15.852  0.00  0.00    +0.000 HD
ENDROOT
BRANCH   1  10
ATOM      9  N   UNL     1      51.142   7.286  11.249  0.00  0.00    +0.000 N 
ATOM     10  C   UNL     1      50.068   7.934  11.798  0.00  0.00    +0.000 C 
ATOM     11  O   UNL     1      49.648   8.984  11.327  0.00  0.00    +0.000 OA
ATOM     12  H   UNL     1      51.592   7.691  10.438  0.00  0.00    +0.000 HD
ATOM     13  H   UNL     1      51.471   6.395  11.604  0.00  0.00    +0.000 HD
ENDBRANCH   1  10
BRANCH   5  14
ATOM     14  C   UNL     1      48.383   5.285  17.522  0.00  0.00    +0.000 C 
ATOM     15  C   UNL     1      47.476   5.323  18.747  0.00  0.00    +0.000 C 
ATOM     16  C   UNL     1      48.528   6.367  18.576  0.00  0.00    +0.000 C 
BRANCH  14  17
ATOM     17  C   UNL     1      49.475   4.219  17.474  0.00  0.00    +0.000 A 
ATOM     18  C   UNL     1      50.803   4.522  17.831  0.00  0.00    +0.000 A 
ATOM     19  C   UNL     1      51.797   3.542  17.838  0.00  0.00    +0.000 A 
ATOM     20  C   UNL     1      51.476   2.242  17.476  0.00  0.00    +0.000 A 
ATOM     21  F   UNL     1      52.422   1.294  17.503  0.00  0.00    +0.000 F 
ATOM     22  C   UNL     1      50.185   1.909  17.092  0.00  0.00    +0.000 A 
ATOM     23  C   UNL     1      49.195   2.893  17.083  0.00  0.00    +0.000 A 
ENDBRANCH  14  17
ENDBRANCH   5  14
TORSDOF 3
ENDMDL
MODEL 9
REMARK VINA RESULT:    -5.299      5.155      7.374
REMARK INTER + INTRA:          -6.666
REMARK INTER:                  -6.212
REMARK INTRA:                  -0.454
REMARK UNBOUND:                -0.438
REMARK  Name = 
REMARK  3 active torsions:
REMARK  status: ('A' for Active; 'I' for Inactive)
REMARK    1  A    between atoms: C_2  and  C_4
REMARK    2  A    between atoms: N_8  and  C_9
REMARK    3  A    between atoms: C_9  and  C_10
REMARK                            x       y       z     vdW  Elec       q    Type
REMARK                         _______ _______ _______ _____ _____    ______ ____
ROOT
ATOM      1  C   UNL     1      45.989   4.960  13.451  0.00  0.00    +0.000 A 
ATOM      2  C   UNL     1      46.804   4.463  14.439  0.00  0.00    +0.000 A 
ATOM      3  N   UNL     1      47.875   5.142  14.925  0.00  0.00    +0.000 NA
ATOM      4  C   UNL     1      48.124   6.342  14.369  0.00  0.00    +0.000 A 
ATOM      5  N   UNL     1      49.227   7.100  14.762  0.00  0.00    +0.000 N 
ATOM      6  N   UNL     1      47.348   6.853  13.378  0.00  0.00    +0.000 NA
ATOM      7  N   UNL     1      46.254   6.163  12.911  0.00  0.00    +0.000 NA
ATOM      8  H   UNL     1      49.126   8.016  14.334  0.00  0.00    +0.000 HD
ENDROOT
BRANCH   1  10
ATOM      9  N   UNL     1      45.005   2.927  12.551  0.00  0.00    +0.000 N 
ATOM     10  C   UNL     1      44.802   4.211  12.979  0.00  0.00    +0.000 C 
ATOM     11  O   UNL     1      43.686   4.718  12.970  0.00  0.00    +0.000 OA
ATOM     12  H   UNL     1      44.210   2.393  12.222  0.00  0.00    +0.000 HD
ATOM     13  H   UNL     1      45.916   2.484  12.594  0.00  0.00    +0.000 HD
ENDBRANCH   1  10
BRANCH   5  14
ATOM     14  C   UNL     1      49.748   7.071  16.138  0.00  0.00    +0.000 C 
ATOM     15  C   UNL     1      51.254   7.274  16.268  0.00  0.00    +0.000 C 
ATOM     16  C   UNL     1      50.650   5.964  16.652  0.00  0.00    +0.000 C 
BRANCH  14  17
ATOM     17  C   UNL     1      48.843   7.755  17.160  0.00  0.00    +0.000 A 
ATOM     18  C   UNL     1      48.332   7.048  18.265  0.00  0.00    +0.000 A 
ATOM     19  C   UNL     1      47.545   7.677  19.232  0.00  0.00    +0.000 A 
ATOM     20  C   UNL     1      47.250   9.026  19.099  0.00  0.00    +0.000 A 
ATOM     21  F   UNL     1      46.515   9.639  20.036  0.00  0.00    +0.000 F 
ATOM     22  C   UNL     1      47.714   9.751  18.010  0.00  0.00    +0.000 A 
ATOM     23  C   UNL     1      48.497   9.117  17.045  0.00  0.00    +0.000 A 
ENDBRANCH  14  17
ENDBRANCH   5  14
TORSDOF 3
ENDMDL
