MODEL 1
REMARK VINA RESULT:    -8.602      0.000      0.000
REMARK INTER + INTRA:         -11.259
REMARK INTER:                 -10.614
REMARK INTRA:                  -0.645
REMARK UNBOUND:                -0.645
REMARK  Name = 
REMARK  4 active torsions:
REMARK  status: ('A' for Active; 'I' for Inactive)
REMARK    1  A    between atoms: C_2  and  C_5
REMARK    2  A    between atoms: N_9  and  C_10
REMARK    3  A    between atoms: C_10  and  C_11
REMARK    4  A    between atoms: C_15  and  N_16
REMARK                            x       y       z     vdW  Elec       q    Type
REMARK                         _______ _______ _______ _____ _____    ______ ____
ROOT
ATOM      1  C   UNL     1      43.544   4.466  11.319  0.00  0.00    +0.000 C 
ENDROOT
BRANCH   1   6
ATOM      2  C   UNL     1      46.188   2.296   7.865  0.00  0.00    +0.000 A 
ATOM      3  C   UNL     1      45.303   1.862   8.816  0.00  0.00    +0.000 A 
ATOM      4  N   UNL     1      44.495   2.688   9.508  0.00  0.00    +0.000 NA
ATOM      5  C   UNL     1      44.567   4.001   9.241  0.00  0.00    +0.000 A 
ATOM      6  N   UNL     1      43.778   4.894   9.952  0.00  0.00    +0.000 N 
ATOM      7  N   UNL     1      45.394   4.518   8.323  0.00  0.00    +0.000 NA
ATOM      8  C   UNL     1      46.183   3.653   7.647  0.00  0.00    +0.000 A 
ATOM      9  H   UNL     1      44.197   5.811   9.855  0.00  0.00    +0.000 HD
BRANCH   2  11
ATOM     10  F   UNL     1      46.981   0.077   7.542  0.00  0.00    +0.000 F 
ATOM     11  C   UNL     1      47.091   1.373   7.136  0.00  0.00    +0.000 C 
ATOM     12  F   UNL     1      48.402   1.699   7.289  0.00  0.00    +0.000 F 
ATOM     13  F   UNL     1      46.863   1.362   5.795  0.00  0.00    +0.000 F 
ENDBRANCH   2  11
ENDBRANCH   1   6
BRANCH   1  14
ATOM     14  C   UNL     1      44.740   4.749  12.198  0.00  0.00    +0.000 A 
ATOM     15  C   UNL     1      45.407   3.710  12.850  0.00  0.00    +0.000 A 
ATOM     16  C   UNL     1      46.575   3.971  13.556  0.00  0.00    +0.000 A 
ATOM     17  C   UNL     1      47.089   5.272  13.607  0.00  0.00    +0.000 A 
ATOM     18  C   UNL     1      46.458   6.346  12.965  0.00  0.00    +0.000 A 
ATOM     19  C   UNL     1      45.272   6.051  12.271  0.00  0.00    +0.000 A 
BRANCH  18  20
ATOM     20  N   UNL     1      46.993   7.617  12.970  0.00  0.00    +0.000 N 
ATOM     21  C   UNL     1      46.196   8.831  13.200  0.00  0.00    +0.000 C 
ATOM     22  C   UNL     1      46.505   9.858  12.100  0.00  0.00    +0.000 C 
ATOM     23  O   UNL     1      47.912  10.154  12.039  0.00  0.00    +0.000 OA
ATOM     24  C   UNL     1      48.661   8.957  11.768  0.00  0.00    +0.000 C 
ATOM     25  C   UNL     1      48.435   7.877  12.844  0.00  0.00    +0.000 C 
ENDBRANCH  18  20
ENDBRANCH   1  14
TORSDOF 4
ENDMDL
MODEL 2
REMARK VINA RESULT:    -8.263      2.469      3.576
REMARK INTER + INTRA:         -10.841
REMARK INTER:                 -10.372
REMARK INTRA:                  -0.469
REMARK UNBOUND:                -0.645
REMARK  Name = 
REMARK  4 active torsions:
REMARK  status: ('A' for Active; 'I' for Inactive)
REMARK    1  A    between atoms: C_2  and  C_5
REMARK    2  A    between atoms: N_9  and  C_10
REMARK    3  A    between atoms: C_10  and  C_11
REMARK    4  A    between atoms: C_15  and  N_16
REMARK                            x       y       z     vdW  Elec       q    Type
REMARK                         _______ _______ _______ _____ _____    ______ ____
ROOT
ATOM      1  C   UNL     1      44.550   5.020  11.670  0.00  0.00    +0.000 C 
ENDROOT
BRANCH   1   6
ATOM      2  C   UNL     1      46.241   2.392   7.947  0.00  0.00    +0.000 A 
ATOM      3  C   UNL     1      45.565   2.103   9.103  0.00  0.00    +0.000 A 
ATOM      4  N   UNL     1      44.978   3.039   9.872  0.00  0.00    +0.000 NA
ATOM      5  C   UNL     1      45.061   4.318   9.474  0.00  0.00    +0.000 A 
ATOM      6  N   UNL     1      44.499   5.320  10.251  0.00  0.00    +0.000 N 
ATOM      7  N   UNL     1      45.692   4.697   8.355  0.00  0.00    +0.000 NA
ATOM      8  C   UNL     1      46.263   3.725   7.609  0.00  0.00    +0.000 A 
ATOM      9  H   UNL     1      44.937   6.193   9.981  0.00  0.00    +0.000 HD
BRANCH   2  11
ATOM     10  F   UNL     1      48.264   1.353   7.254  0.00  0.00    +0.000 F 
ATOM     11  C   UNL     1      46.908   1.350   7.130  0.00  0.00    +0.000 C 
ATOM     12  F   UNL     1      46.658   1.492   5.801  0.00  0.00    +0.000 F 
ATOM     13  F   UNL     1      46.507   0.091   7.453  0.00  0.00    +0.000 F 
ENDBRANCH   2  11
ENDBRANCH   1   6
BRANCH   1  14
ATOM     14  C   UNL     1      45.854   5.476  12.284  0.00  0.00    +0.000 A 
ATOM     15  C   UNL     1      46.640   6.441  11.650  0.00  0.00    +0.000 A 
ATOM     16  C   UNL     1      47.773   6.937  12.284  0.00  0.00    +0.000 A 
ATOM     17  C   UNL     1      48.123   6.479  13.559  0.00  0.00    +0.000 A 
ATOM     18  C   UNL     1      47.363   5.515  14.236  0.00  0.00    +0.000 A 
ATOM     19  C   UNL     1      46.231   5.024  13.563  0.00  0.00    +0.000 A 
BRANCH  18  20
ATOM     20  N   UNL     1      47.677   5.102  15.514  0.00  0.00    +0.000 N 
ATOM     21  C   UNL     1      48.529   5.875  16.430  0.00  0.00    +0.000 C 
ATOM     22  C   UNL     1      49.613   4.957  17.012  0.00  0.00    +0.000 C 
ATOM     23  O   UNL     1      49.035   3.813  17.667  0.00  0.00    +0.000 OA
ATOM     24  C   UNL     1      48.246   3.052  16.737  0.00  0.00    +0.000 C 
ATOM     25  C   UNL     1      47.107   3.890  16.123  0.00  0.00    +0.000 C 
ENDBRANCH  18  20
ENDBRANCH   1  14
TORSDOF 4
ENDMDL
MODEL 3
REMARK VINA RESULT:    -7.349      1.876      3.100
REMARK INTER + INTRA:          -9.713
REMARK INTER:                  -9.626
REMARK INTRA:                  -0.087
REMARK UNBOUND:                -0.645
REMARK  Name = 
REMARK  4 active torsions:
REMARK  status: ('A' for Active; 'I' for Inactive)
REMARK    1  A    between atoms: C_2  and  C_5
REMARK    2  A    between atoms: N_9  and  C_10
REMARK    3  A    between atoms: C_10  and  C_11
REMARK    4  A    between atoms: C_15  and  N_16
REMARK                            x       y       z     vdW  Elec       q    Type
REMARK                         _______ _______ _______ _____ _____    ______ ____
ROOT
ATOM      1  C   UNL     1      43.471   5.262  10.731  0.00  0.00    +0.000 C 
ENDROOT
BRANCH   1   6
ATOM      2  C   UNL     1      46.118   2.581   7.659  0.00  0.00    +0.000 A 
ATOM      3  C   UNL     1      46.190   3.868   8.123  0.00  0.00    +0.000 A 
ATOM      4  N   UNL     1      45.478   4.317   9.174  0.00  0.00    +0.000 NA
ATOM      5  C   UNL     1      44.662   3.450   9.793  0.00  0.00    +0.000 A 
ATOM      6  N   UNL     1      43.883   3.876  10.859  0.00  0.00    +0.000 N 
ATOM      7  N   UNL     1      44.531   2.171   9.417  0.00  0.00    +0.000 NA
ATOM      8  C   UNL     1      45.268   1.759   8.362  0.00  0.00    +0.000 A 
ATOM      9  H   UNL     1      43.126   3.211  10.966  0.00  0.00    +0.000 HD
BRANCH   2  11
ATOM     10  F   UNL     1      48.203   2.464   6.522  0.00  0.00    +0.000 F 
ATOM     11  C   UNL     1      46.888   2.114   6.480  0.00  0.00    +0.000 C 
ATOM     12  F   UNL     1      46.408   2.619   5.312  0.00  0.00    +0.000 F 
ATOM     13  F   UNL     1      46.866   0.761   6.339  0.00  0.00    +0.000 F 
ENDBRANCH   2  11
ENDBRANCH   1   6
BRANCH   1  14
ATOM     14  C   UNL     1      44.435   6.191  11.432  0.00  0.00    +0.000 A 
ATOM     15  C   UNL     1      44.251   7.575  11.386  0.00  0.00    +0.000 A 
ATOM     16  C   UNL     1      45.073   8.408  12.134  0.00  0.00    +0.000 A 
ATOM     17  C   UNL     1      46.079   7.864  12.941  0.00  0.00    +0.000 A 
ATOM     18  C   UNL     1      46.299   6.482  13.024  0.00  0.00    +0.000 A 
ATOM     19  C   UNL     1      45.459   5.667  12.245  0.00  0.00    +0.000 A 
BRANCH  18  20
ATOM     20  N   UNL     1      47.254   5.942  13.858  0.00  0.00    +0.000 N 
ATOM     21  C   UNL     1      47.167   4.587  14.421  0.00  0.00    +0.000 C 
ATOM     22  C   UNL     1      47.410   4.649  15.937  0.00  0.00    +0.000 C 
ATOM     23  O   UNL     1      48.674   5.266  16.240  0.00  0.00    +0.000 OA
ATOM     24  C   UNL     1      48.712   6.605  15.717  0.00  0.00    +0.000 C 
ATOM     25  C   UNL     1      48.508   6.637  14.190  0.00  0.00    +0.000 C 
ENDBRANCH  18  20
ENDBRANCH   1  14
TORSDOF 4
ENDMDL
MODEL 4
REMARK VINA RESULT:    -7.273      1.614      2.589
REMARK INTER + INTRA:          -9.619
REMARK INTER:                  -9.102
REMARK INTRA:                  -0.517
REMARK UNBOUND:                -0.645
REMARK  Name = 
REMARK  4 active torsions:
REMARK  status: ('A' for Active; 'I' for Inactive)
REMARK    1  A    between atoms: C_2  and  C_5
REMARK    2  A    between atoms: N_9  and  C_10
REMARK    3  A    between atoms: C_10  and  C_11
REMARK    4  A    between atoms: C_15  and  N_16
REMARK                            x       y       z     vdW  Elec       q    Type
REMARK                         _______ _______ _______ _____ _____    ______ ____
ROOT
ATOM      1  C   UNL     1      44.816   5.492  11.203  0.00  0.00    +0.000 C 
ENDROOT
BRANCH   1   6
ATOM      2  C   UNL     1      46.347   2.254   7.916  0.00  0.00    +0.000 A 
ATOM      3  C   UNL     1      45.690   2.173   9.116  0.00  0.00    +0.000 A 
ATOM      4  N   UNL     1      45.147   3.237   9.736  0.00  0.00    +0.000 NA
ATOM      5  C   UNL     1      45.257   4.434   9.138  0.00  0.00    +0.000 A 
ATOM      6  N   UNL     1      44.742   5.564   9.755  0.00  0.00    +0.000 N 
ATOM      7  N   UNL     1      45.873   4.611   7.962  0.00  0.00    +0.000 NA
ATOM      8  C   UNL     1      46.399   3.515   7.370  0.00  0.00    +0.000 A 
ATOM      9  H   UNL     1      45.198   6.369   9.342  0.00  0.00    +0.000 HD
BRANCH   2  11
ATOM     10  F   UNL     1      48.326   1.087   7.306  0.00  0.00    +0.000 F 
ATOM     11  C   UNL     1      46.965   1.074   7.264  0.00  0.00    +0.000 C 
ATOM     12  F   UNL     1      46.637   0.976   5.948  0.00  0.00    +0.000 F 
ATOM     13  F   UNL     1      46.586  -0.102   7.833  0.00  0.00    +0.000 F 
ENDBRANCH   2  11
ENDBRANCH   1   6
BRANCH   1  14
ATOM     14  C   UNL     1      45.553   6.680  11.778  0.00  0.00    +0.000 A 
ATOM     15  C   UNL     1      44.850   7.775  12.286  0.00  0.00    +0.000 A 
ATOM     16  C   UNL     1      45.536   8.804  12.920  0.00  0.00    +0.000 A 
ATOM     17  C   UNL     1      46.928   8.742  13.057  0.00  0.00    +0.000 A 
ATOM     18  C   UNL     1      47.675   7.661  12.567  0.00  0.00    +0.000 A 
ATOM     19  C   UNL     1      46.953   6.644  11.921  0.00  0.00    +0.000 A 
BRANCH  18  20
ATOM     20  N   UNL     1      49.039   7.574  12.749  0.00  0.00    +0.000 N 
ATOM     21  C   UNL     1      49.669   7.335  14.056  0.00  0.00    +0.000 C 
ATOM     22  C   UNL     1      50.779   8.373  14.282  0.00  0.00    +0.000 C 
ATOM     23  O   UNL     1      51.746   8.346  13.216  0.00  0.00    +0.000 OA
ATOM     24  C   UNL     1      51.109   8.628  11.958  0.00  0.00    +0.000 C 
ATOM     25  C   UNL     1      49.997   7.612  11.633  0.00  0.00    +0.000 C 
ENDBRANCH  18  20
ENDBRANCH   1  14
TORSDOF 4
ENDMDL
MODEL 5
REMARK VINA RESULT:    -7.117      5.815      8.516
REMARK INTER + INTRA:          -9.426
REMARK INTER:                  -8.995
REMARK INTRA:                  -0.432
REMARK UNBOUND:                -0.645
REMARK  Name = 
REMARK  4 active torsions:
REMARK  status: ('A' for Active; 'I' for Inactive)
REMARK    1  A    between atoms: C_2  and  C_5
REMARK    2  A    between atoms: N_9  and  C_10
REMARK    3  A    between atoms: C_10  and  C_11
REMARK    4  A    between atoms: C_15  and  N_16
REMARK                            x       y       z     vdW  Elec       q    Type
REMARK                         _______ _______ _______ _____ _____    ______ ____
ROOT
ATOM      1  C   UNL     1      46.579   4.685  13.855  0.00  0.00    +0.000 C 
ENDROOT
BRANCH   1   6
ATOM      2  C   UNL     1      48.474   4.161  18.300  0.00  0.00    +0.000 A 
ATOM      3  C   UNL     1      47.439   4.887  17.773  0.00  0.00    +0.000 A 
ATOM      4  N   UNL     1      46.940   4.678  16.540  0.00  0.00    +0.000 NA
ATOM      5  C   UNL     1      47.489   3.703  15.800  0.00  0.00    +0.000 A 
ATOM      6  N   UNL     1      47.029   3.472  14.512  0.00  0.00    +0.000 N 
ATOM      7  N   UNL     1      48.498   2.934  16.232  0.00  0.00    +0.000 NA
ATOM      8  C   UNL     1      48.965   3.174  17.478  0.00  0.00    +0.000 A 
ATOM      9  H   UNL     1      47.753   2.960  14.020  0.00  0.00    +0.000 HD
BRANCH   2  11
ATOM     10  F   UNL     1      50.389   4.343  19.698  0.00  0.00    +0.000 F 
ATOM     11  C   UNL     1      49.031   4.428  19.648  0.00  0.00    +0.000 C 
ATOM     12  F   UNL     1      48.571   3.553  20.583  0.00  0.00    +0.000 F 
ATOM     13  F   UNL     1      48.718   5.668  20.112  0.00  0.00    +0.000 F 
ENDBRANCH   2  11
ENDBRANCH   1   6
BRANCH   1  14
ATOM     14  C   UNL     1      45.407   4.414  12.939  0.00  0.00    +0.000 A 
ATOM     15  C   UNL     1      44.116   4.806  13.301  0.00  0.00    +0.000 A 
ATOM     16  C   UNL     1      43.069   4.659  12.399  0.00  0.00    +0.000 A 
ATOM     17  C   UNL     1      43.308   4.128  11.126  0.00  0.00    +0.000 A 
ATOM     18  C   UNL     1      44.586   3.726  10.716  0.00  0.00    +0.000 A 
ATOM     19  C   UNL     1      45.620   3.875  11.656  0.00  0.00    +0.000 A 
BRANCH  18  20
ATOM     20  N   UNL     1      44.831   3.254   9.444  0.00  0.00    +0.000 N 
ATOM     21  C   UNL     1      44.817   1.826   9.093  0.00  0.00    +0.000 C 
ATOM     22  C   UNL     1      46.097   1.481   8.316  0.00  0.00    +0.000 C 
ATOM     23  O   UNL     1      46.242   2.311   7.149  0.00  0.00    +0.000 OA
ATOM     24  C   UNL     1      46.298   3.697   7.528  0.00  0.00    +0.000 C 
ATOM     25  C   UNL     1      45.034   4.141   8.288  0.00  0.00    +0.000 C 
ENDBRANCH  18  20
ENDBRANCH   1  14
TORSDOF 4
ENDMDL
MODEL 6
REMARK VINA RESULT:    -6.812      4.039      7.059
REMARK INTER + INTRA:          -9.051
REMARK INTER:                  -8.467
REMARK INTRA:                  -0.584
REMARK UNBOUND:                -0.645
REMARK  Name = 
REMARK  4 active torsions:
REMARK  status: ('A' for Active; 'I' for Inactive)
REMARK    1  A    between atoms: C_2  and  C_5
REMARK    2  A    between atoms: N_9  and  C_10
REMARK    3  A    between atoms: C_10  and  C_11
REMARK    4  A    between atoms: C_15  and  N_16
REMARK                            x       y       z     vdW  Elec       q    Type
REMARK                         _______ _______ _______ _____ _____    ______ ____
ROOT
ATOM      1  C   UNL     1      45.254   6.591  12.650  0.00  0.00    +0.000 C 
ENDROOT
BRANCH   1   6
ATOM      2  C   UNL     1      49.713   8.412  11.992  0.00  0.00    +0.000 A 
ATOM      3  C   UNL     1      48.441   8.882  11.795  0.00  0.00    +0.000 A 
ATOM      4  N   UNL     1      47.344   8.278  12.290  0.00  0.00    +0.000 NA
ATOM      5  C   UNL     1      47.517   7.163  13.015  0.00  0.00    +0.000 A 
ATOM      6  N   UNL     1      46.414   6.488  13.517  0.00  0.00    +0.000 N 
ATOM      7  N   UNL     1      48.721   6.632  13.268  0.00  0.00    +0.000 NA
ATOM      8  C   UNL     1      49.796   7.273  12.758  0.00  0.00    +0.000 A 
ATOM      9  H   UNL     1      46.708   5.542  13.730  0.00  0.00    +0.000 HD
BRANCH   2  11
ATOM     10  F   UNL     1      51.715   9.645  12.348  0.00  0.00    +0.000 F 
ATOM     11  C   UNL     1      50.907   9.074  11.412  0.00  0.00    +0.000 C 
ATOM     12  F   UNL     1      50.579  10.072  10.548  0.00  0.00    +0.000 F 
ATOM     13  F   UNL     1      51.696   8.217  10.711  0.00  0.00    +0.000 F 
ENDBRANCH   2  11
ENDBRANCH   1   6
BRANCH   1  14
ATOM     14  C   UNL     1      44.786   5.229  12.191  0.00  0.00    +0.000 A 
ATOM     15  C   UNL     1      43.867   4.500  12.948  0.00  0.00    +0.000 A 
ATOM     16  C   UNL     1      43.356   3.306  12.454  0.00  0.00    +0.000 A 
ATOM     17  C   UNL     1      43.753   2.838  11.196  0.00  0.00    +0.000 A 
ATOM     18  C   UNL     1      44.668   3.537  10.398  0.00  0.00    +0.000 A 
ATOM     19  C   UNL     1      45.177   4.734  10.932  0.00  0.00    +0.000 A 
BRANCH  18  20
ATOM     20  N   UNL     1      45.019   3.104   9.137  0.00  0.00    +0.000 N 
ATOM     21  C   UNL     1      45.088   1.686   8.757  0.00  0.00    +0.000 C 
ATOM     22  C   UNL     1      46.432   1.411   8.064  0.00  0.00    +0.000 C 
ATOM     23  O   UNL     1      46.621   2.272   6.927  0.00  0.00    +0.000 OA
ATOM     24  C   UNL     1      46.594   3.650   7.336  0.00  0.00    +0.000 C 
ATOM     25  C   UNL     1      45.263   4.026   8.016  0.00  0.00    +0.000 C 
ENDBRANCH  18  20
ENDBRANCH   1  14
TORSDOF 4
ENDMDL
MODEL 7
REMARK VINA RESULT:    -6.679      5.747      8.383
REMARK INTER + INTRA:          -8.886
REMARK INTER:                  -8.381
REMARK INTRA:                  -0.505
REMARK UNBOUND:                -0.645
REMARK  Name = 
REMARK  4 active torsions:
REMARK  status: ('A' for Active; 'I' for Inactive)
REMARK    1  A    between atoms: C_2  and  C_5
REMARK    2  A    between atoms: N_9  and  C_10
REMARK    3  A    between atoms: C_10  and  C_11
REMARK    4  A    between atoms: C_15  and  N_16
REMARK                            x       y       z     vdW  Elec       q    Type
REMARK                         _______ _______ _______ _____ _____    ______ ____
ROOT
ATOM      1  C   UNL     1      48.685   6.643  15.406  0.00  0.00    +0.000 C 
ENDROOT
BRANCH   1   6
ATOM      2  C   UNL     1      51.399   3.290  17.647  0.00  0.00    +0.000 A 
ATOM      3  C   UNL     1      51.513   4.639  17.437  0.00  0.00    +0.000 A 
ATOM      4  N   UNL     1      50.499   5.408  16.996  0.00  0.00    +0.000 NA
ATOM      5  C   UNL     1      49.321   4.812  16.756  0.00  0.00    +0.000 A 
ATOM      6  N   UNL     1      48.257   5.558  16.269  0.00  0.00    +0.000 N 
ATOM      7  N   UNL     1      49.111   3.502  16.940  0.00  0.00    +0.000 NA
ATOM      8  C   UNL     1      50.153   2.768  17.390  0.00  0.00    +0.000 A 
ATOM      9  H   UNL     1      47.600   4.910  15.851  0.00  0.00    +0.000 HD
BRANCH   2  11
ATOM     10  F   UNL     1      52.251   1.124  18.133  0.00  0.00    +0.000 F 
ATOM     11  C   UNL     1      52.537   2.455  18.104  0.00  0.00    +0.000 C 
ATOM     12  F   UNL     1      52.943   2.774  19.362  0.00  0.00    +0.000 F 
ATOM     13  F   UNL     1      53.636   2.584  17.313  0.00  0.00    +0.000 F 
ENDBRANCH   2  11
ENDBRANCH   1   6
BRANCH   1  14
ATOM     14  C   UNL     1      47.937   6.630  14.092  0.00  0.00    +0.000 A 
ATOM     15  C   UNL     1      48.425   7.333  12.988  0.00  0.00    +0.000 A 
ATOM     16  C   UNL     1      47.793   7.213  11.757  0.00  0.00    +0.000 A 
ATOM     17  C   UNL     1      46.675   6.384  11.618  0.00  0.00    +0.000 A 
ATOM     18  C   UNL     1      46.152   5.655  12.695  0.00  0.00    +0.000 A 
ATOM     19  C   UNL     1      46.806   5.808  13.930  0.00  0.00    +0.000 A 
BRANCH  18  20
ATOM     20  N   UNL     1      45.083   4.797  12.547  0.00  0.00    +0.000 N 
ATOM     21  C   UNL     1      45.223   3.389  12.149  0.00  0.00    +0.000 C 
ATOM     22  C   UNL     1      44.254   3.088  10.995  0.00  0.00    +0.000 C 
ATOM     23  O   UNL     1      42.897   3.402  11.355  0.00  0.00    +0.000 OA
ATOM     24  C   UNL     1      42.782   4.795  11.695  0.00  0.00    +0.000 C 
ATOM     25  C   UNL     1      43.700   5.181  12.871  0.00  0.00    +0.000 C 
ENDBRANCH  18  20
ENDBRANCH   1  14
TORSDOF 4
ENDMDL
MODEL 8
REMARK VINA RESULT:    -6.621      2.017      2.795
REMARK INTER + INTRA:          -8.815
REMARK INTER:                  -8.619
REMARK INTRA:                  -0.195
REMARK UNBOUND:                -0.645
REMARK  Name = 
REMARK  4 active torsions:
REMARK  status: ('A' for Active; 'I' for Inactive)
REMARK    1  A    between atoms: C_2  and  C_5
REMARK    2  A    between atoms: N_9  and  C_10
REMARK    3  A    between atoms: C_10  and  C_11
REMARK    4  A    between atoms: C_15  and  N_16
REMARK                            x       y       z     vdW  Elec       q    Type
REMARK                         _______ _______ _______ _____ _____    ______ ____
ROOT
ATOM      1  C   UNL     1      43.431   3.900  11.200  0.00  0.00    +0.000 C 
ENDROOT
BRANCH   1   6
ATOM      2  C   UNL     1      46.236   2.877   7.364  0.00  0.00    +0.000 A 
ATOM      3  C   UNL     1      45.925   4.019   8.054  0.00  0.00    +0.000 A 
ATOM      4  N   UNL     1      45.311   4.017   9.252  0.00  0.00    +0.000 NA
ATOM      5  C   UNL     1      44.995   2.829   9.791  0.00  0.00    +0.000 A 
ATOM      6  N   UNL     1      44.332   2.778  11.008  0.00  0.00    +0.000 N 
ATOM      7  N   UNL     1      45.265   1.659   9.196  0.00  0.00    +0.000 NA
ATOM      8  C   UNL     1      45.888   1.707   7.997  0.00  0.00    +0.000 A 
ATOM      9  H   UNL     1      43.900   1.864  11.079  0.00  0.00    +0.000 HD
BRANCH   2  11
ATOM     10  F   UNL     1      46.218   2.174   5.093  0.00  0.00    +0.000 F 
ATOM     11  C   UNL     1      46.885   2.902   6.031  0.00  0.00    +0.000 C 
ATOM     12  F   UNL     1      48.149   2.401   6.059  0.00  0.00    +0.000 F 
ATOM     13  F   UNL     1      46.993   4.158   5.520  0.00  0.00    +0.000 F 
ENDBRANCH   2  11
ENDBRANCH   1   6
BRANCH   1  14
ATOM     14  C   UNL     1      44.142   5.075  11.833  0.00  0.00    +0.000 A 
ATOM     15  C   UNL     1      45.116   4.873  12.813  0.00  0.00    +0.000 A 
ATOM     16  C   UNL     1      45.845   5.953  13.297  0.00  0.00    +0.000 A 
ATOM     17  C   UNL     1      45.611   7.239  12.798  0.00  0.00    +0.000 A 
ATOM     18  C   UNL     1      44.648   7.490  11.810  0.00  0.00    +0.000 A 
ATOM     19  C   UNL     1      43.919   6.379  11.352  0.00  0.00    +0.000 A 
BRANCH  18  20
ATOM     20  N   UNL     1      44.454   8.748  11.280  0.00  0.00    +0.000 N 
ATOM     21  C   UNL     1      45.510   9.768  11.207  0.00  0.00    +0.000 C 
ATOM     22  C   UNL     1      44.978  11.091  11.779  0.00  0.00    +0.000 C 
ATOM     23  O   UNL     1      43.785  11.516  11.095  0.00  0.00    +0.000 OA
ATOM     24  C   UNL     1      42.757  10.519  11.223  0.00  0.00    +0.000 C 
ATOM     25  C   UNL     1      43.194   9.160  10.643  0.00  0.00    +0.000 C 
ENDBRANCH  18  20
ENDBRANCH   1  14
TORSDOF 4
ENDMDL
MODEL 9
REMARK VINA RESULT:    -6.211      4.762      5.769
REMARK INTER + INTRA:          -8.309
REMARK INTER:                  -7.848
REMARK INTRA:                  -0.461
REMARK UNBOUND:                -0.645
REMARK  Name = 
REMARK  4 active torsions:
REMARK  status: ('A' for Active; 'I' for Inactive)
REMARK    1  A    between atoms: C_2  and  C_5
REMARK    2  A    between atoms: N_9  and  C_10
REMARK    3  A    between atoms: C_10  and  C_11
REMARK    4  A    between atoms: C_15  and  N_16
REMARK                            x       y       z     vdW  Elec       q    Type
REMARK                         _______ _______ _______ _____ _____    ______ ____
ROOT
ATOM      1  C   UNL     1      47.294   3.827  15.344  0.00  0.00    +0.000 C 
ENDROOT
BRANCH   1   6
ATOM      2  C   UNL     1      45.140   4.416  11.026  0.00  0.00    +0.000 A 
ATOM      3  C   UNL     1      45.072   3.472  12.017  0.00  0.00    +0.000 A 
ATOM      4  N   UNL     1      45.585   3.653  13.248  0.00  0.00    +0.000 NA
ATOM      5  C   UNL     1      46.188   4.822  13.510  0.00  0.00    +0.000 A 
ATOM      6  N   UNL     1      46.760   5.042  14.754  0.00  0.00    +0.000 N 
ATOM      7  N   UNL     1      46.296   5.808  12.609  0.00  0.00    +0.000 NA
ATOM      8  C   UNL     1      45.762   5.588  11.386  0.00  0.00    +0.000 A 
ATOM      9  H   UNL     1      47.426   5.798  14.652  0.00  0.00    +0.000 HD
BRANCH   2  11
ATOM     10  F   UNL     1      44.392   2.869   9.383  0.00  0.00    +0.000 F 
ATOM     11  C   UNL     1      44.596   4.185   9.666  0.00  0.00    +0.000 C 
ATOM     12  F   UNL     1      45.422   4.649   8.690  0.00  0.00    +0.000 F 
ATOM     13  F   UNL     1      43.399   4.800   9.465  0.00  0.00    +0.000 F 
ENDBRANCH   2  11
ENDBRANCH   1   6
BRANCH   1  14
ATOM     14  C   UNL     1      47.729   4.055  16.774  0.00  0.00    +0.000 A 
ATOM     15  C   UNL     1      48.063   2.976  17.596  0.00  0.00    +0.000 A 
ATOM     16  C   UNL     1      48.576   3.207  18.867  0.00  0.00    +0.000 A 
ATOM     17  C   UNL     1      48.769   4.517  19.320  0.00  0.00    +0.000 A 
ATOM     18  C   UNL     1      48.454   5.631  18.529  0.00  0.00    +0.000 A 
ATOM     19  C   UNL     1      47.924   5.364  17.255  0.00  0.00    +0.000 A 
BRANCH  18  20
ATOM     20  N   UNL     1      48.693   6.920  18.954  0.00  0.00    +0.000 N 
ATOM     21  C   UNL     1      49.446   7.245  20.175  0.00  0.00    +0.000 C 
ATOM     22  C   UNL     1      48.644   8.253  21.013  0.00  0.00    +0.000 C 
ATOM     23  O   UNL     1      48.333   9.435  20.254  0.00  0.00    +0.000 OA
ATOM     24  C   UNL     1      47.558   9.091  19.092  0.00  0.00    +0.000 C 
ATOM     25  C   UNL     1      48.302   8.104  18.173  0.00  0.00    +0.000 C 
ENDBRANCH  18  20
ENDBRANCH   1  14
TORSDOF 4
ENDMDL
