MODEL 1
REMARK VINA RESULT:    -7.549      0.000      0.000
REMARK INTER + INTRA:         -11.765
REMARK INTER:                 -10.197
REMARK INTRA:                  -1.568
REMARK UNBOUND:                -1.568
REMARK  Name = 
REMARK  8 active torsions:
REMARK  status: ('A' for Active; 'I' for Inactive)
REMARK    1  A    between atoms: C_1  and  C_2
REMARK    2  A    between atoms: C_2  and  C_3
REMARK    3  A    between atoms: C_3  and  N_4
REMARK    4  A    between atoms: C_3  and  C_18
REMARK    5  A    between atoms: C_5  and  C_7
REMARK    6  A    between atoms: N_13  and  C_14
REMARK    7  A    between atoms: C_21  and  C_22
REMARK    8  A    between atoms: C_22  and  C_23
REMARK                            x       y       z     vdW  Elec       q    Type
REMARK                         _______ _______ _______ _____ _____    ______ ____
ROOT
ATOM      1  C   UNL     1      46.989   8.080  13.492  0.00  0.00    +0.000 C 
ENDROOT
BRANCH   1   2
ATOM      2  C   UNL     1      46.168   7.039  12.738  0.00  0.00    +0.000 A 
ATOM      3  C   UNL     1      45.219   7.477  11.804  0.00  0.00    +0.000 A 
ATOM      4  C   UNL     1      44.507   6.564  11.023  0.00  0.00    +0.000 A 
ATOM      5  C   UNL     1      44.727   5.187  11.155  0.00  0.00    +0.000 A 
ATOM      6  C   UNL     1      45.620   4.741  12.137  0.00  0.00    +0.000 A 
ATOM      7  C   UNL     1      46.313   5.657  12.936  0.00  0.00    +0.000 A 
BRANCH   5   8
ATOM      8  C   UNL     1      44.027   4.201  10.246  0.00  0.00    +0.000 C 
BRANCH   8   9
ATOM      9  C   UNL     1      44.905   3.553   9.192  0.00  0.00    +0.000 A 
ATOM     10  C   UNL     1      45.130   2.175   9.191  0.00  0.00    +0.000 A 
ATOM     11  C   UNL     1      46.027   1.634   8.273  0.00  0.00    +0.000 A 
ATOM     12  C   UNL     1      46.676   2.474   7.379  0.00  0.00    +0.000 A 
ATOM     13  C   UNL     1      46.390   3.826   7.433  0.00  0.00    +0.000 A 
ATOM     14  N   UNL     1      45.528   4.382   8.316  0.00  0.00    +0.000 NA
ENDBRANCH   8   9
ENDBRANCH   5   8
ENDBRANCH   1   2
BRANCH   1  15
ATOM     15  N   UNL     1      47.985   7.396  14.290  0.00  0.00    +0.000 N 
ATOM     16  C   UNL     1      48.558   7.942  15.414  0.00  0.00    +0.000 C 
ATOM     17  O   UNL     1      48.160   8.977  15.932  0.00  0.00    +0.000 OA
ATOM     18  H   UNL     1      48.464   6.642  13.819  0.00  0.00    +0.000 HD
BRANCH  16  19
ATOM     19  C   UNL     1      49.654   7.154  15.993  0.00  0.00    +0.000 A 
ATOM     20  C   UNL     1      50.951   7.648  16.011  0.00  0.00    +0.000 A 
ATOM     21  S   UNL     1      52.053   6.616  16.814  0.00  0.00    +0.000 S 
ATOM     22  C   UNL     1      50.840   5.457  17.111  0.00  0.00    +0.000 A 
ATOM     23  N   UNL     1      51.111   4.310  17.787  0.00  0.00    +0.000 NA
ATOM     24  C   UNL     1      50.094   3.520  17.931  0.00  0.00    +0.000 A 
ATOM     25  N   UNL     1      48.824   3.753  17.446  0.00  0.00    +0.000 N 
ATOM     26  C   UNL     1      47.750   2.812  17.672  0.00  0.00    +0.000 C 
ATOM     27  C   UNL     1      48.522   4.910  16.738  0.00  0.00    +0.000 A 
ATOM     28  O   UNL     1      47.398   5.137  16.295  0.00  0.00    +0.000 OA
ATOM     29  C   UNL     1      49.624   5.843  16.595  0.00  0.00    +0.000 A 
ENDBRANCH  16  19
ENDBRANCH   1  15
BRANCH   1  31
ATOM     30  C   UNL     1      48.794   8.590  11.763  0.00  0.00    +0.000 C 
ATOM     31  C   UNL     1      47.647   9.150  12.595  0.00  0.00    +0.000 C 
ENDBRANCH   1  31
TORSDOF 6
ENDMDL
MODEL 2
REMARK VINA RESULT:    -7.383      1.794      1.968
REMARK INTER + INTRA:         -11.540
REMARK INTER:                 -10.228
REMARK INTRA:                  -1.312
REMARK UNBOUND:                -1.568
REMARK  Name = 
REMARK  8 active torsions:
REMARK  status: ('A' for Active; 'I' for Inactive)
REMARK    1  A    between atoms: C_1  and  C_2
REMARK    2  A    between atoms: C_2  and  C_3
REMARK    3  A    between atoms: C_3  and  N_4
REMARK    4  A    between atoms: C_3  and  C_18
REMARK    5  A    between atoms: C_5  and  C_7
REMARK    6  A    between atoms: N_13  and  C_14
REMARK    7  A    between atoms: C_21  and  C_22
REMARK    8  A    between atoms: C_22  and  C_23
REMARK                            x       y       z     vdW  Elec       q    Type
REMARK                         _______ _______ _______ _____ _____    ______ ____
ROOT
ATOM      1  C   UNL     1      48.102   7.856  13.711  0.00  0.00    +0.000 C 
ENDROOT
BRANCH   1   2
ATOM      2  C   UNL     1      47.043   7.031  12.987  0.00  0.00    +0.000 A 
ATOM      3  C   UNL     1      46.161   7.684  12.114  0.00  0.00    +0.000 A 
ATOM      4  C   UNL     1      45.234   6.962  11.358  0.00  0.00    +0.000 A 
ATOM      5  C   UNL     1      45.166   5.566  11.456  0.00  0.00    +0.000 A 
ATOM      6  C   UNL     1      45.994   4.917  12.378  0.00  0.00    +0.000 A 
ATOM      7  C   UNL     1      46.904   5.644  13.153  0.00  0.00    +0.000 A 
BRANCH   5   8
ATOM      8  C   UNL     1      44.229   4.775  10.570  0.00  0.00    +0.000 C 
BRANCH   8   9
ATOM      9  C   UNL     1      44.900   3.943   9.493  0.00  0.00    +0.000 A 
ATOM     10  C   UNL     1      44.917   2.549   9.567  0.00  0.00    +0.000 A 
ATOM     11  C   UNL     1      45.636   1.827   8.616  0.00  0.00    +0.000 A 
ATOM     12  C   UNL     1      46.317   2.508   7.617  0.00  0.00    +0.000 A 
ATOM     13  C   UNL     1      46.242   3.889   7.603  0.00  0.00    +0.000 A 
ATOM     14  N   UNL     1      45.556   4.618   8.515  0.00  0.00    +0.000 NA
ENDBRANCH   8   9
ENDBRANCH   5   8
ENDBRANCH   1   2
BRANCH   1  15
ATOM     15  N   UNL     1      47.948   7.658  15.137  0.00  0.00    +0.000 N 
ATOM     16  C   UNL     1      48.549   8.459  16.080  0.00  0.00    +0.000 C 
ATOM     17  O   UNL     1      49.125   9.502  15.801  0.00  0.00    +0.000 OA
ATOM     18  H   UNL     1      47.643   6.735  15.409  0.00  0.00    +0.000 HD
BRANCH  16  19
ATOM     19  C   UNL     1      48.394   8.002  17.467  0.00  0.00    +0.000 A 
ATOM     20  C   UNL     1      47.977   8.878  18.460  0.00  0.00    +0.000 A 
ATOM     21  S   UNL     1      47.770   8.122  19.980  0.00  0.00    +0.000 S 
ATOM     22  C   UNL     1      48.283   6.617  19.367  0.00  0.00    +0.000 A 
ATOM     23  N   UNL     1      48.328   5.512  20.155  0.00  0.00    +0.000 NA
ATOM     24  C   UNL     1      48.744   4.442  19.556  0.00  0.00    +0.000 A 
ATOM     25  N   UNL     1      49.145   4.368  18.238  0.00  0.00    +0.000 N 
ATOM     26  C   UNL     1      49.583   3.118  17.656  0.00  0.00    +0.000 C 
ATOM     27  C   UNL     1      49.125   5.485  17.412  0.00  0.00    +0.000 A 
ATOM     28  O   UNL     1      49.479   5.442  16.235  0.00  0.00    +0.000 OA
ATOM     29  C   UNL     1      48.619   6.694  18.034  0.00  0.00    +0.000 A 
ENDBRANCH  16  19
ENDBRANCH   1  15
BRANCH   1  31
ATOM     30  C   UNL     1      49.756   7.750  11.772  0.00  0.00    +0.000 C 
ATOM     31  C   UNL     1      49.553   7.566  13.270  0.00  0.00    +0.000 C 
ENDBRANCH   1  31
TORSDOF 6
ENDMDL
MODEL 3
REMARK VINA RESULT:    -7.034      3.219      4.174
REMARK INTER + INTRA:         -11.069
REMARK INTER:                 -10.190
REMARK INTRA:                  -0.880
REMARK UNBOUND:                -1.568
REMARK  Name = 
REMARK  8 active torsions:
REMARK  status: ('A' for Active; 'I' for Inactive)
REMARK    1  A    between atoms: C_1  and  C_2
REMARK    2  A    between atoms: C_2  and  C_3
REMARK    3  A    between atoms: C_3  and  N_4
REMARK    4  A    between atoms: C_3  and  C_18
REMARK    5  A    between atoms: C_5  and  C_7
REMARK    6  A    between atoms: N_13  and  C_14
REMARK    7  A    between atoms: C_21  and  C_22
REMARK    8  A    between atoms: C_22  and  C_23
REMARK                            x       y       z     vdW  Elec       q    Type
REMARK                         _______ _______ _______ _____ _____    ______ ____
ROOT
ATOM      1  C   UNL     1      46.214   7.216  12.882  0.00  0.00    +0.000 C 
ENDROOT
BRANCH   1   2
ATOM      2  C   UNL     1      45.714   6.051  12.034  0.00  0.00    +0.000 A 
ATOM      3  C   UNL     1      45.708   6.188  10.639  0.00  0.00    +0.000 A 
ATOM      4  C   UNL     1      45.347   5.119   9.815  0.00  0.00    +0.000 A 
ATOM      5  C   UNL     1      44.984   3.883  10.367  0.00  0.00    +0.000 A 
ATOM      6  C   UNL     1      44.920   3.763  11.759  0.00  0.00    +0.000 A 
ATOM      7  C   UNL     1      45.256   4.843  12.583  0.00  0.00    +0.000 A 
BRANCH   5   8
ATOM      8  C   UNL     1      44.684   2.698   9.477  0.00  0.00    +0.000 C 
BRANCH   8   9
ATOM      9  C   UNL     1      45.671   2.466   8.348  0.00  0.00    +0.000 A 
ATOM     10  C   UNL     1      45.812   3.393   7.314  0.00  0.00    +0.000 A 
ATOM     11  C   UNL     1      46.650   3.093   6.242  0.00  0.00    +0.000 A 
ATOM     12  C   UNL     1      47.327   1.882   6.226  0.00  0.00    +0.000 A 
ATOM     13  C   UNL     1      47.146   1.021   7.294  0.00  0.00    +0.000 A 
ATOM     14  N   UNL     1      46.336   1.282   8.346  0.00  0.00    +0.000 NA
ENDBRANCH   8   9
ENDBRANCH   5   8
ENDBRANCH   1   2
BRANCH   1  15
ATOM     15  N   UNL     1      47.546   7.575  12.438  0.00  0.00    +0.000 N 
ATOM     16  C   UNL     1      48.688   6.983  12.921  0.00  0.00    +0.000 C 
ATOM     17  O   UNL     1      48.676   5.991  13.639  0.00  0.00    +0.000 OA
ATOM     18  H   UNL     1      47.617   8.480  11.998  0.00  0.00    +0.000 HD
BRANCH  16  19
ATOM     19  C   UNL     1      49.942   7.592  12.458  0.00  0.00    +0.000 A 
ATOM     20  C   UNL     1      50.389   7.394  11.159  0.00  0.00    +0.000 A 
ATOM     21  S   UNL     1      51.814   8.266  10.797  0.00  0.00    +0.000 S 
ATOM     22  C   UNL     1      51.904   8.889  12.381  0.00  0.00    +0.000 A 
ATOM     23  N   UNL     1      52.898   9.737  12.750  0.00  0.00    +0.000 NA
ATOM     24  C   UNL     1      52.843  10.122  13.986  0.00  0.00    +0.000 A 
ATOM     25  N   UNL     1      51.896   9.725  14.906  0.00  0.00    +0.000 N 
ATOM     26  C   UNL     1      51.912  10.224  16.264  0.00  0.00    +0.000 C 
ATOM     27  C   UNL     1      50.876   8.847  14.561  0.00  0.00    +0.000 A 
ATOM     28  O   UNL     1      50.023   8.478  15.366  0.00  0.00    +0.000 OA
ATOM     29  C   UNL     1      50.876   8.428  13.172  0.00  0.00    +0.000 A 
ENDBRANCH  16  19
ENDBRANCH   1  15
BRANCH   1  31
ATOM     30  C   UNL     1      45.889   9.636  12.143  0.00  0.00    +0.000 C 
ATOM     31  C   UNL     1      45.287   8.450  12.888  0.00  0.00    +0.000 C 
ENDBRANCH   1  31
TORSDOF 6
ENDMDL
MODEL 4
REMARK VINA RESULT:    -6.932      1.679      2.545
REMARK INTER + INTRA:         -10.931
REMARK INTER:                  -9.768
REMARK INTRA:                  -1.163
REMARK UNBOUND:                -1.568
REMARK  Name = 
REMARK  8 active torsions:
REMARK  status: ('A' for Active; 'I' for Inactive)
REMARK    1  A    between atoms: C_1  and  C_2
REMARK    2  A    between atoms: C_2  and  C_3
REMARK    3  A    between atoms: C_3  and  N_4
REMARK    4  A    between atoms: C_3  and  C_18
REMARK    5  A    between atoms: C_5  and  C_7
REMARK    6  A    between atoms: N_13  and  C_14
REMARK    7  A    between atoms: C_21  and  C_22
REMARK    8  A    between atoms: C_22  and  C_23
REMARK                            x       y       z     vdW  Elec       q    Type
REMARK                         _______ _______ _______ _____ _____    ______ ____
ROOT
ATOM      1  C   UNL     1      47.692   7.233  13.713  0.00  0.00    +0.000 C 
ENDROOT
BRANCH   1   2
ATOM      2  C   UNL     1      46.768   6.408  12.824  0.00  0.00    +0.000 A 
ATOM      3  C   UNL     1      46.334   6.959  11.610  0.00  0.00    +0.000 A 
ATOM      4  C   UNL     1      45.562   6.210  10.718  0.00  0.00    +0.000 A 
ATOM      5  C   UNL     1      45.206   4.888  11.018  0.00  0.00    +0.000 A 
ATOM      6  C   UNL     1      45.576   4.359  12.259  0.00  0.00    +0.000 A 
ATOM      7  C   UNL     1      46.327   5.119  13.162  0.00  0.00    +0.000 A 
BRANCH   5   8
ATOM      8  C   UNL     1      44.452   4.045  10.014  0.00  0.00    +0.000 C 
BRANCH   8   9
ATOM      9  C   UNL     1      45.311   3.338   8.983  0.00  0.00    +0.000 A 
ATOM     10  C   UNL     1      45.813   4.021   7.874  0.00  0.00    +0.000 A 
ATOM     11  C   UNL     1      46.507   3.312   6.896  0.00  0.00    +0.000 A 
ATOM     12  C   UNL     1      46.686   1.944   7.045  0.00  0.00    +0.000 A 
ATOM     13  C   UNL     1      46.170   1.340   8.178  0.00  0.00    +0.000 A 
ATOM     14  N   UNL     1      45.488   2.001   9.142  0.00  0.00    +0.000 NA
ENDBRANCH   8   9
ENDBRANCH   5   8
ENDBRANCH   1   2
BRANCH   1  15
ATOM     15  N   UNL     1      48.112   6.414  14.832  0.00  0.00    +0.000 N 
ATOM     16  C   UNL     1      48.601   6.934  16.007  0.00  0.00    +0.000 C 
ATOM     17  O   UNL     1      48.567   8.128  16.275  0.00  0.00    +0.000 OA
ATOM     18  H   UNL     1      48.323   5.455  14.601  0.00  0.00    +0.000 HD
BRANCH  16  19
ATOM     19  C   UNL     1      49.112   5.938  16.956  0.00  0.00    +0.000 A 
ATOM     20  C   UNL     1      48.245   5.216  17.765  0.00  0.00    +0.000 A 
ATOM     21  S   UNL     1      49.037   4.044  18.725  0.00  0.00    +0.000 S 
ATOM     22  C   UNL     1      50.565   4.505  18.129  0.00  0.00    +0.000 A 
ATOM     23  N   UNL     1      51.700   3.879  18.537  0.00  0.00    +0.000 NA
ATOM     24  C   UNL     1      52.787   4.340  18.005  0.00  0.00    +0.000 A 
ATOM     25  N   UNL     1      52.859   5.390  17.113  0.00  0.00    +0.000 N 
ATOM     26  C   UNL     1      54.126   5.823  16.565  0.00  0.00    +0.000 C 
ATOM     27  C   UNL     1      51.718   6.059  16.691  0.00  0.00    +0.000 A 
ATOM     28  O   UNL     1      51.759   6.998  15.898  0.00  0.00    +0.000 OA
ATOM     29  C   UNL     1      50.473   5.541  17.228  0.00  0.00    +0.000 A 
ENDBRANCH  16  19
ENDBRANCH   1  15
BRANCH   1  31
ATOM     30  C   UNL     1      48.879   9.358  12.949  0.00  0.00    +0.000 C 
ATOM     31  C   UNL     1      48.914   7.835  12.986  0.00  0.00    +0.000 C 
ENDBRANCH   1  31
TORSDOF 6
ENDMDL
MODEL 5
REMARK VINA RESULT:    -6.900      2.728      3.912
REMARK INTER + INTRA:         -10.889
REMARK INTER:                  -9.566
REMARK INTRA:                  -1.323
REMARK UNBOUND:                -1.568
REMARK  Name = 
REMARK  8 active torsions:
REMARK  status: ('A' for Active; 'I' for Inactive)
REMARK    1  A    between atoms: C_1  and  C_2
REMARK    2  A    between atoms: C_2  and  C_3
REMARK    3  A    between atoms: C_3  and  N_4
REMARK    4  A    between atoms: C_3  and  C_18
REMARK    5  A    between atoms: C_5  and  C_7
REMARK    6  A    between atoms: N_13  and  C_14
REMARK    7  A    between atoms: C_21  and  C_22
REMARK    8  A    between atoms: C_22  and  C_23
REMARK                            x       y       z     vdW  Elec       q    Type
REMARK                         _______ _______ _______ _____ _____    ______ ____
ROOT
ATOM      1  C   UNL     1      47.763   4.872  15.457  0.00  0.00    +0.000 C 
ENDROOT
BRANCH   1   2
ATOM      2  C   UNL     1      46.993   4.764  14.145  0.00  0.00    +0.000 A 
ATOM      3  C   UNL     1      46.680   3.490  13.651  0.00  0.00    +0.000 A 
ATOM      4  C   UNL     1      45.898   3.338  12.504  0.00  0.00    +0.000 A 
ATOM      5  C   UNL     1      45.408   4.458  11.820  0.00  0.00    +0.000 A 
ATOM      6  C   UNL     1      45.777   5.731  12.267  0.00  0.00    +0.000 A 
ATOM      7  C   UNL     1      46.582   5.881  13.402  0.00  0.00    +0.000 A 
BRANCH   5   8
ATOM      8  C   UNL     1      44.484   4.296  10.633  0.00  0.00    +0.000 C 
BRANCH   8   9
ATOM      9  C   UNL     1      45.114   3.681   9.398  0.00  0.00    +0.000 A 
ATOM     10  C   UNL     1      45.234   2.297   9.266  0.00  0.00    +0.000 A 
ATOM     11  C   UNL     1      45.916   1.775   8.167  0.00  0.00    +0.000 A 
ATOM     12  C   UNL     1      46.458   2.642   7.229  0.00  0.00    +0.000 A 
ATOM     13  C   UNL     1      46.285   4.001   7.423  0.00  0.00    +0.000 A 
ATOM     14  N   UNL     1      45.633   4.537   8.481  0.00  0.00    +0.000 NA
ENDBRANCH   8   9
ENDBRANCH   5   8
ENDBRANCH   1   2
BRANCH   1  15
ATOM     15  N   UNL     1      47.892   6.273  15.804  0.00  0.00    +0.000 N 
ATOM     16  C   UNL     1      49.103   6.914  15.917  0.00  0.00    +0.000 C 
ATOM     17  O   UNL     1      50.163   6.408  15.572  0.00  0.00    +0.000 OA
ATOM     18  H   UNL     1      47.087   6.674  16.261  0.00  0.00    +0.000 HD
BRANCH  16  19
ATOM     19  C   UNL     1      49.027   8.290  16.426  0.00  0.00    +0.000 A 
ATOM     20  C   UNL     1      49.405   9.363  15.630  0.00  0.00    +0.000 A 
ATOM     21  S   UNL     1      49.149  10.878  16.378  0.00  0.00    +0.000 S 
ATOM     22  C   UNL     1      48.579  10.143  17.806  0.00  0.00    +0.000 A 
ATOM     23  N   UNL     1      48.168  10.885  18.867  0.00  0.00    +0.000 NA
ATOM     24  C   UNL     1      47.768  10.190  19.884  0.00  0.00    +0.000 A 
ATOM     25  N   UNL     1      47.757   8.813  19.958  0.00  0.00    +0.000 N 
ATOM     26  C   UNL     1      47.277   8.128  21.139  0.00  0.00    +0.000 C 
ATOM     27  C   UNL     1      48.186   8.028  18.895  0.00  0.00    +0.000 A 
ATOM     28  O   UNL     1      48.186   6.799  18.940  0.00  0.00    +0.000 OA
ATOM     29  C   UNL     1      48.598   8.769  17.717  0.00  0.00    +0.000 A 
ENDBRANCH  16  19
ENDBRANCH   1  15
BRANCH   1  31
ATOM     30  C   UNL     1      48.013   2.882  17.032  0.00  0.00    +0.000 C 
ATOM     31  C   UNL     1      47.152   4.072  16.627  0.00  0.00    +0.000 C 
ENDBRANCH   1  31
TORSDOF 6
ENDMDL
MODEL 6
REMARK VINA RESULT:    -6.691      4.077      7.528
REMARK INTER + INTRA:         -10.606
REMARK INTER:                  -9.181
REMARK INTRA:                  -1.425
REMARK UNBOUND:                -1.568
REMARK  Name = 
REMARK  8 active torsions:
REMARK  status: ('A' for Active; 'I' for Inactive)
REMARK    1  A    between atoms: C_1  and  C_2
REMARK    2  A    between atoms: C_2  and  C_3
REMARK    3  A    between atoms: C_3  and  N_4
REMARK    4  A    between atoms: C_3  and  C_18
REMARK    5  A    between atoms: C_5  and  C_7
REMARK    6  A    between atoms: N_13  and  C_14
REMARK    7  A    between atoms: C_21  and  C_22
REMARK    8  A    between atoms: C_22  and  C_23
REMARK                            x       y       z     vdW  Elec       q    Type
REMARK                         _______ _______ _______ _____ _____    ______ ____
ROOT
ATOM      1  C   UNL     1      47.100   8.636  12.263  0.00  0.00    +0.000 C 
ENDROOT
BRANCH   1   2
ATOM      2  C   UNL     1      48.534   8.575  11.748  0.00  0.00    +0.000 A 
ATOM      3  C   UNL     1      49.214   9.777  11.504  0.00  0.00    +0.000 A 
ATOM      4  C   UNL     1      50.557   9.777  11.120  0.00  0.00    +0.000 A 
ATOM      5  C   UNL     1      51.256   8.572  10.971  0.00  0.00    +0.000 A 
ATOM      6  C   UNL     1      50.563   7.368  11.143  0.00  0.00    +0.000 A 
ATOM      7  C   UNL     1      49.211   7.371  11.502  0.00  0.00    +0.000 A 
BRANCH   5   8
ATOM      8  C   UNL     1      52.734   8.571  10.648  0.00  0.00    +0.000 C 
BRANCH   8   9
ATOM      9  C   UNL     1      53.195   7.463   9.720  0.00  0.00    +0.000 A 
ATOM     10  C   UNL     1      52.779   7.420   8.388  0.00  0.00    +0.000 A 
ATOM     11  C   UNL     1      53.137   6.329   7.599  0.00  0.00    +0.000 A 
ATOM     12  C   UNL     1      53.901   5.311   8.152  0.00  0.00    +0.000 A 
ATOM     13  C   UNL     1      54.287   5.432   9.475  0.00  0.00    +0.000 A 
ATOM     14  N   UNL     1      53.950   6.476  10.268  0.00  0.00    +0.000 NA
ENDBRANCH   8   9
ENDBRANCH   5   8
ENDBRANCH   1   2
BRANCH   1  15
ATOM     15  N   UNL     1      46.475   7.347  12.049  0.00  0.00    +0.000 N 
ATOM     16  C   UNL     1      45.156   7.196  11.694  0.00  0.00    +0.000 C 
ATOM     17  O   UNL     1      44.441   8.133  11.364  0.00  0.00    +0.000 OA
ATOM     18  H   UNL     1      46.956   6.566  12.472  0.00  0.00    +0.000 HD
BRANCH  16  19
ATOM     19  C   UNL     1      44.677   5.808  11.675  0.00  0.00    +0.000 A 
ATOM     20  C   UNL     1      43.961   5.290  12.746  0.00  0.00    +0.000 A 
ATOM     21  S   UNL     1      43.418   3.690  12.481  0.00  0.00    +0.000 S 
ATOM     22  C   UNL     1      44.170   3.626  10.953  0.00  0.00    +0.000 A 
ATOM     23  N   UNL     1      44.082   2.520  10.169  0.00  0.00    +0.000 NA
ATOM     24  C   UNL     1      44.708   2.613   9.040  0.00  0.00    +0.000 A 
ATOM     25  N   UNL     1      45.441   3.703   8.618  0.00  0.00    +0.000 N 
ATOM     26  C   UNL     1      46.097   3.713   7.328  0.00  0.00    +0.000 C 
ATOM     27  C   UNL     1      45.562   4.841   9.404  0.00  0.00    +0.000 A 
ATOM     28  O   UNL     1      46.211   5.823   9.049  0.00  0.00    +0.000 OA
ATOM     29  C   UNL     1      44.834   4.795  10.659  0.00  0.00    +0.000 A 
ENDBRANCH  16  19
ENDBRANCH   1  15
BRANCH   1  31
ATOM     30  C   UNL     1      47.964   8.370  14.648  0.00  0.00    +0.000 C 
ATOM     31  C   UNL     1      46.965   9.073  13.737  0.00  0.00    +0.000 C 
ENDBRANCH   1  31
TORSDOF 6
ENDMDL
MODEL 7
REMARK VINA RESULT:    -6.493      2.273      4.425
REMARK INTER + INTRA:         -10.339
REMARK INTER:                  -9.106
REMARK INTRA:                  -1.233
REMARK UNBOUND:                -1.568
REMARK  Name = 
REMARK  8 active torsions:
REMARK  status: ('A' for Active; 'I' for Inactive)
REMARK    1  A    between atoms: C_1  and  C_2
REMARK    2  A    between atoms: C_2  and  C_3
REMARK    3  A    between atoms: C_3  and  N_4
REMARK    4  A    between atoms: C_3  and  C_18
REMARK    5  A    between atoms: C_5  and  C_7
REMARK    6  A    between atoms: N_13  and  C_14
REMARK    7  A    between atoms: C_21  and  C_22
REMARK    8  A    between atoms: C_22  and  C_23
REMARK                            x       y       z     vdW  Elec       q    Type
REMARK                         _______ _______ _______ _____ _____    ______ ____
ROOT
ATOM      1  C   UNL     1      47.878   4.849  15.507  0.00  0.00    +0.000 C 
ENDROOT
BRANCH   1   2
ATOM      2  C   UNL     1      47.147   4.832  14.170  0.00  0.00    +0.000 A 
ATOM      3  C   UNL     1      46.443   3.677  13.801  0.00  0.00    +0.000 A 
ATOM      4  C   UNL     1      45.682   3.644  12.631  0.00  0.00    +0.000 A 
ATOM      5  C   UNL     1      45.603   4.768  11.797  0.00  0.00    +0.000 A 
ATOM      6  C   UNL     1      46.361   5.898  12.123  0.00  0.00    +0.000 A 
ATOM      7  C   UNL     1      47.144   5.920  13.283  0.00  0.00    +0.000 A 
BRANCH   5   8
ATOM      8  C   UNL     1      44.706   4.767  10.580  0.00  0.00    +0.000 C 
BRANCH   8   9
ATOM      9  C   UNL     1      45.229   3.988   9.388  0.00  0.00    +0.000 A 
ATOM     10  C   UNL     1      45.143   2.596   9.344  0.00  0.00    +0.000 A 
ATOM     11  C   UNL     1      45.731   1.912   8.282  0.00  0.00    +0.000 A 
ATOM     12  C   UNL     1      46.387   2.628   7.291  0.00  0.00    +0.000 A 
ATOM     13  C   UNL     1      46.418   4.007   7.397  0.00  0.00    +0.000 A 
ATOM     14  N   UNL     1      45.860   4.699   8.418  0.00  0.00    +0.000 NA
ENDBRANCH   8   9
ENDBRANCH   5   8
ENDBRANCH   1   2
BRANCH   1  15
ATOM     15  N   UNL     1      48.250   6.215  15.816  0.00  0.00    +0.000 N 
ATOM     16  C   UNL     1      49.476   6.567  16.328  0.00  0.00    +0.000 C 
ATOM     17  O   UNL     1      50.415   5.786  16.410  0.00  0.00    +0.000 OA
ATOM     18  H   UNL     1      47.474   6.850  15.934  0.00  0.00    +0.000 HD
BRANCH  16  19
ATOM     19  C   UNL     1      49.601   7.978  16.715  0.00  0.00    +0.000 A 
ATOM     20  C   UNL     1      49.276   8.393  17.999  0.00  0.00    +0.000 A 
ATOM     21  S   UNL     1      49.583  10.054  18.267  0.00  0.00    +0.000 S 
ATOM     22  C   UNL     1      50.105  10.276  16.660  0.00  0.00    +0.000 A 
ATOM     23  N   UNL     1      50.533  11.487  16.218  0.00  0.00    +0.000 NA
ATOM     24  C   UNL     1      50.892  11.507  14.974  0.00  0.00    +0.000 A 
ATOM     25  N   UNL     1      50.847  10.432  14.110  0.00  0.00    +0.000 N 
ATOM     26  C   UNL     1      51.284  10.554  12.736  0.00  0.00    +0.000 C 
ATOM     27  C   UNL     1      50.400   9.186  14.530  0.00  0.00    +0.000 A 
ATOM     28  O   UNL     1      50.350   8.215  13.776  0.00  0.00    +0.000 OA
ATOM     29  C   UNL     1      50.033   9.110  15.932  0.00  0.00    +0.000 A 
ENDBRANCH  16  19
ENDBRANCH   1  15
BRANCH   1  31
ATOM     30  C   UNL     1      47.779   2.978  17.239  0.00  0.00    +0.000 C 
ATOM     31  C   UNL     1      47.093   4.217  16.677  0.00  0.00    +0.000 C 
ENDBRANCH   1  31
TORSDOF 6
ENDMDL
MODEL 8
REMARK VINA RESULT:    -6.073      2.998      8.394
REMARK INTER + INTRA:          -9.771
REMARK INTER:                  -9.402
REMARK INTRA:                  -0.368
REMARK UNBOUND:                -1.568
REMARK  Name = 
REMARK  8 active torsions:
REMARK  status: ('A' for Active; 'I' for Inactive)
REMARK    1  A    between atoms: C_1  and  C_2
REMARK    2  A    between atoms: C_2  and  C_3
REMARK    3  A    between atoms: C_3  and  N_4
REMARK    4  A    between atoms: C_3  and  C_18
REMARK    5  A    between atoms: C_5  and  C_7
REMARK    6  A    between atoms: N_13  and  C_14
REMARK    7  A    between atoms: C_21  and  C_22
REMARK    8  A    between atoms: C_22  and  C_23
REMARK                            x       y       z     vdW  Elec       q    Type
REMARK                         _______ _______ _______ _____ _____    ______ ____
ROOT
ATOM      1  C   UNL     1      47.071   8.198  12.060  0.00  0.00    +0.000 C 
ENDROOT
BRANCH   1   2
ATOM      2  C   UNL     1      48.193   8.002  13.073  0.00  0.00    +0.000 A 
ATOM      3  C   UNL     1      47.957   7.190  14.191  0.00  0.00    +0.000 A 
ATOM      4  C   UNL     1      48.979   6.904  15.099  0.00  0.00    +0.000 A 
ATOM      5  C   UNL     1      50.267   7.423  14.911  0.00  0.00    +0.000 A 
ATOM      6  C   UNL     1      50.490   8.291  13.836  0.00  0.00    +0.000 A 
ATOM      7  C   UNL     1      49.458   8.597  12.942  0.00  0.00    +0.000 A 
BRANCH   5   8
ATOM      8  C   UNL     1      51.399   7.039  15.839  0.00  0.00    +0.000 C 
BRANCH   8   9
ATOM      9  C   UNL     1      50.987   6.280  17.085  0.00  0.00    +0.000 A 
ATOM     10  C   UNL     1      50.628   6.955  18.253  0.00  0.00    +0.000 A 
ATOM     11  C   UNL     1      50.361   6.221  19.407  0.00  0.00    +0.000 A 
ATOM     12  C   UNL     1      50.456   4.837  19.371  0.00  0.00    +0.000 A 
ATOM     13  C   UNL     1      50.805   4.240  18.173  0.00  0.00    +0.000 A 
ATOM     14  N   UNL     1      51.075   4.926  17.037  0.00  0.00    +0.000 NA
ENDBRANCH   8   9
ENDBRANCH   5   8
ENDBRANCH   1   2
BRANCH   1  15
ATOM     15  N   UNL     1      46.453   6.914  11.797  0.00  0.00    +0.000 N 
ATOM     16  C   UNL     1      45.123   6.765  11.486  0.00  0.00    +0.000 C 
ATOM     17  O   UNL     1      44.384   7.710  11.241  0.00  0.00    +0.000 OA
ATOM     18  H   UNL     1      46.961   6.118  12.153  0.00  0.00    +0.000 HD
BRANCH  16  19
ATOM     19  C   UNL     1      44.661   5.374  11.405  0.00  0.00    +0.000 A 
ATOM     20  C   UNL     1      43.941   4.803  12.446  0.00  0.00    +0.000 A 
ATOM     21  S   UNL     1      43.419   3.210  12.110  0.00  0.00    +0.000 S 
ATOM     22  C   UNL     1      44.185   3.219  10.588  0.00  0.00    +0.000 A 
ATOM     23  N   UNL     1      44.117   2.146   9.757  0.00  0.00    +0.000 NA
ATOM     24  C   UNL     1      44.753   2.293   8.639  0.00  0.00    +0.000 A 
ATOM     25  N   UNL     1      45.476   3.408   8.270  0.00  0.00    +0.000 N 
ATOM     26  C   UNL     1      46.143   3.480   6.988  0.00  0.00    +0.000 C 
ATOM     27  C   UNL     1      45.577   4.513   9.104  0.00  0.00    +0.000 A 
ATOM     28  O   UNL     1      46.218   5.517   8.797  0.00  0.00    +0.000 OA
ATOM     29  C   UNL     1      44.838   4.407  10.349  0.00  0.00    +0.000 A 
ENDBRANCH  16  19
ENDBRANCH   1  15
BRANCH   1  31
ATOM     30  C   UNL     1      46.287  10.620  11.885  0.00  0.00    +0.000 C 
ATOM     31  C   UNL     1      46.009   9.242  12.472  0.00  0.00    +0.000 C 
ENDBRANCH   1  31
TORSDOF 6
ENDMDL
MODEL 9
REMARK VINA RESULT:    -5.765      2.895      5.615
REMARK INTER + INTRA:          -9.355
REMARK INTER:                  -8.484
REMARK INTRA:                  -0.871
REMARK UNBOUND:                -1.568
REMARK  Name = 
REMARK  8 active torsions:
REMARK  status: ('A' for Active; 'I' for Inactive)
REMARK    1  A    between atoms: C_1  and  C_2
REMARK    2  A    between atoms: C_2  and  C_3
REMARK    3  A    between atoms: C_3  and  N_4
REMARK    4  A    between atoms: C_3  and  C_18
REMARK    5  A    between atoms: C_5  and  C_7
REMARK    6  A    between atoms: N_13  and  C_14
REMARK    7  A    between atoms: C_21  and  C_22
REMARK    8  A    between atoms: C_22  and  C_23
REMARK                            x       y       z     vdW  Elec       q    Type
REMARK                         _______ _______ _______ _____ _____    ______ ____
ROOT
ATOM      1  C   UNL     1      48.471   3.992  17.984  0.00  0.00    +0.000 C 
ENDROOT
BRANCH   1   2
ATOM      2  C   UNL     1      48.161   4.596  16.618  0.00  0.00    +0.000 A 
ATOM      3  C   UNL     1      47.262   3.929  15.775  0.00  0.00    +0.000 A 
ATOM      4  C   UNL     1      46.875   4.486  14.554  0.00  0.00    +0.000 A 
ATOM      5  C   UNL     1      47.378   5.728  14.145  0.00  0.00    +0.000 A 
ATOM      6  C   UNL     1      48.330   6.364  14.949  0.00  0.00    +0.000 A 
ATOM      7  C   UNL     1      48.736   5.792  16.160  0.00  0.00    +0.000 A 
BRANCH   5   8
ATOM      8  C   UNL     1      46.889   6.378  12.869  0.00  0.00    +0.000 C 
BRANCH   8   9
ATOM      9  C   UNL     1      45.618   5.790  12.287  0.00  0.00    +0.000 A 
ATOM     10  C   UNL     1      45.640   5.072  11.090  0.00  0.00    +0.000 A 
ATOM     11  C   UNL     1      44.437   4.642  10.533  0.00  0.00    +0.000 A 
ATOM     12  C   UNL     1      43.245   4.933  11.180  0.00  0.00    +0.000 A 
ATOM     13  C   UNL     1      43.306   5.637  12.369  0.00  0.00    +0.000 A 
ATOM     14  N   UNL     1      44.457   6.073  12.932  0.00  0.00    +0.000 NA
ENDBRANCH   8   9
ENDBRANCH   5   8
ENDBRANCH   1   2
BRANCH   1  15
ATOM     15  N   UNL     1      49.864   3.594  18.010  0.00  0.00    +0.000 N 
ATOM     16  C   UNL     1      50.361   2.538  17.284  0.00  0.00    +0.000 C 
ATOM     17  O   UNL     1      49.713   1.951  16.429  0.00  0.00    +0.000 OA
ATOM     18  H   UNL     1      50.384   3.920  18.811  0.00  0.00    +0.000 HD
BRANCH  16  19
ATOM     19  C   UNL     1      51.763   2.203  17.565  0.00  0.00    +0.000 A 
ATOM     20  C   UNL     1      52.143   0.891  17.812  0.00  0.00    +0.000 A 
ATOM     21  S   UNL     1      53.831   0.707  18.020  0.00  0.00    +0.000 S 
ATOM     22  C   UNL     1      54.094   2.381  17.841  0.00  0.00    +0.000 A 
ATOM     23  N   UNL     1      55.344   2.909  17.897  0.00  0.00    +0.000 NA
ATOM     24  C   UNL     1      55.390   4.195  17.752  0.00  0.00    +0.000 A 
ATOM     25  N   UNL     1      54.299   5.020  17.576  0.00  0.00    +0.000 N 
ATOM     26  C   UNL     1      54.456   6.449  17.410  0.00  0.00    +0.000 C 
ATOM     27  C   UNL     1      53.007   4.511  17.530  0.00  0.00    +0.000 A 
ATOM     28  O   UNL     1      52.020   5.228  17.376  0.00  0.00    +0.000 OA
ATOM     29  C   UNL     1      52.917   3.067  17.642  0.00  0.00    +0.000 A 
ENDBRANCH  16  19
ENDBRANCH   1  15
BRANCH   1  31
ATOM     30  C   UNL     1      48.800   4.443  20.473  0.00  0.00    +0.000 C 
ATOM     31  C   UNL     1      48.141   4.909  19.181  0.00  0.00    +0.000 C 
ENDBRANCH   1  31
TORSDOF 6
ENDMDL
