MODEL 1
REMARK VINA RESULT:    -8.304      0.000      0.000
REMARK INTER + INTRA:         -13.497
REMARK INTER:                 -12.430
REMARK INTRA:                  -1.067
REMARK UNBOUND:                -1.067
REMARK  Name = 
REMARK  9 active torsions:
REMARK  status: ('A' for Active; 'I' for Inactive)
REMARK    1  A    between atoms: N_1  and  C_2
REMARK    2  A    between atoms: C_2  and  C_3
REMARK    3  A    between atoms: C_3  and  N_4
REMARK    4  A    between atoms: C_3  and  C_26
REMARK    5  A    between atoms: N_4  and  C_5
REMARK    6  A    between atoms: C_5  and  C_6
REMARK    7  A    between atoms: C_9  and  C_10
REMARK    8  A    between atoms: C_10  and  N_11
REMARK    9  A    between atoms: C_12  and  C_14
REMARK                            x       y       z     vdW  Elec       q    Type
REMARK                         _______ _______ _______ _____ _____    ______ ____
ROOT
ATOM      1  C   UNL     1      44.664   6.127  11.399  0.00  0.00    +0.000 A 
ATOM      2  C   UNL     1      44.486   7.486  11.694  0.00  0.00    +0.000 A 
ATOM      3  C   UNL     1      45.474   8.200  12.376  0.00  0.00    +0.000 A 
ATOM      4  C   UNL     1      46.657   7.567  12.780  0.00  0.00    +0.000 A 
ATOM      5  C   UNL     1      46.821   6.202  12.516  0.00  0.00    +0.000 A 
ATOM      6  C   UNL     1      45.840   5.492  11.825  0.00  0.00    +0.000 A 
ENDROOT
BRANCH   1   7
ATOM      7  C   UNL     1      43.617   5.337  10.644  0.00  0.00    +0.000 C 
BRANCH   7   8
ATOM      8  N   UNL     1      44.183   4.740   9.441  0.00  0.00    +0.000 NA
ATOM      9  H   UNL     1      43.631   5.048   8.642  0.00  0.00    +0.000 HD
BRANCH   8  10
ATOM     10  C   UNL     1      44.173   3.257   9.426  0.00  0.00    +0.000 C 
BRANCH  10  11
ATOM     11  C   UNL     1      45.290   2.738   8.506  0.00  0.00    +0.000 A 
ATOM     12  C   UNL     1      45.907   3.588   7.584  0.00  0.00    +0.000 A 
ATOM     13  C   UNL     1      46.904   3.086   6.753  0.00  0.00    +0.000 A 
ATOM     14  C   UNL     1      47.278   1.756   6.872  0.00  0.00    +0.000 A 
ATOM     15  C   UNL     1      46.633   0.979   7.820  0.00  0.00    +0.000 A 
ATOM     16  N   UNL     1      45.652   1.434   8.635  0.00  0.00    +0.000 NA
ENDBRANCH  10  11
BRANCH  10  17
ATOM     17  C   UNL     1      44.336   2.550  10.810  0.00  0.00    +0.000 C 
BRANCH  17  18
ATOM     18  N   UNL     1      43.094   2.090  11.454  0.00  0.00    +0.000 NA
ATOM     19  H   UNL     1      43.281   1.899  12.438  0.00  0.00    +0.000 HD
ATOM     20  H   UNL     1      42.798   1.210  11.035  0.00  0.00    +0.000 HD
ENDBRANCH  17  18
ENDBRANCH  10  17
ENDBRANCH   8  10
ENDBRANCH   7   8
ENDBRANCH   1   7
BRANCH   4  21
ATOM     21  C   UNL     1      47.711   8.318  13.544  0.00  0.00    +0.000 C 
BRANCH  21  22
ATOM     22  N   UNL     1      48.016   7.643  14.778  0.00  0.00    +0.000 N 
ATOM     23  C   UNL     1      49.288   7.225  15.060  0.00  0.00    +0.000 C 
ATOM     24  O   UNL     1      50.228   7.441  14.299  0.00  0.00    +0.000 OA
ATOM     25  H   UNL     1      47.232   7.268  15.304  0.00  0.00    +0.000 HD
BRANCH  23  26
ATOM     26  C   UNL     1      49.487   6.557  16.352  0.00  0.00    +0.000 A 
ATOM     27  C   UNL     1      50.354   7.117  17.280  0.00  0.00    +0.000 A 
ATOM     28  S   UNL     1      50.440   6.253  18.746  0.00  0.00    +0.000 S 
ATOM     29  C   UNL     1      49.359   5.071  18.175  0.00  0.00    +0.000 A 
ATOM     30  N   UNL     1      49.018   4.006  18.948  0.00  0.00    +0.000 NA
ATOM     31  C   UNL     1      48.213   3.171  18.381  0.00  0.00    +0.000 A 
ATOM     32  N   UNL     1      47.711   3.310  17.113  0.00  0.00    +0.000 N 
ATOM     33  C   UNL     1      48.012   4.378  16.303  0.00  0.00    +0.000 A 
ATOM     34  O   UNL     1      47.518   4.489  15.185  0.00  0.00    +0.000 OA
ATOM     35  C   UNL     1      48.921   5.343  16.891  0.00  0.00    +0.000 A 
ATOM     36  H   UNL     1      47.080   2.623  16.729  0.00  0.00    +0.000 HD
ENDBRANCH  23  26
ENDBRANCH  21  22
ENDBRANCH   4  21
TORSDOF 9
ENDMDL
MODEL 2
REMARK VINA RESULT:    -7.534      1.684      2.159
REMARK INTER + INTRA:         -12.345
REMARK INTER:                 -10.733
REMARK INTRA:                  -1.613
REMARK UNBOUND:                -1.067
REMARK  Name = 
REMARK  9 active torsions:
REMARK  status: ('A' for Active; 'I' for Inactive)
REMARK    1  A    between atoms: N_1  and  C_2
REMARK    2  A    between atoms: C_2  and  C_3
REMARK    3  A    between atoms: C_3  and  N_4
REMARK    4  A    between atoms: C_3  and  C_26
REMARK    5  A    between atoms: N_4  and  C_5
REMARK    6  A    between atoms: C_5  and  C_6
REMARK    7  A    between atoms: C_9  and  C_10
REMARK    8  A    between atoms: C_10  and  N_11
REMARK    9  A    between atoms: C_12  and  C_14
REMARK                            x       y       z     vdW  Elec       q    Type
REMARK                         _______ _______ _______ _____ _____    ______ ____
ROOT
ATOM      1  C   UNL     1      45.273   6.307  12.524  0.00  0.00    +0.000 A 
ATOM      2  C   UNL     1      46.400   5.512  12.775  0.00  0.00    +0.000 A 
ATOM      3  C   UNL     1      47.672   6.084  12.842  0.00  0.00    +0.000 A 
ATOM      4  C   UNL     1      47.843   7.462  12.652  0.00  0.00    +0.000 A 
ATOM      5  C   UNL     1      46.722   8.251  12.367  0.00  0.00    +0.000 A 
ATOM      6  C   UNL     1      45.451   7.682  12.312  0.00  0.00    +0.000 A 
ENDROOT
BRANCH   1   7
ATOM      7  C   UNL     1      43.882   5.714  12.467  0.00  0.00    +0.000 C 
BRANCH   7   8
ATOM      8  N   UNL     1      43.501   5.413  11.093  0.00  0.00    +0.000 NA
ATOM      9  H   UNL     1      42.578   5.812  10.924  0.00  0.00    +0.000 HD
BRANCH   8  10
ATOM     10  C   UNL     1      43.410   3.967  10.782  0.00  0.00    +0.000 C 
BRANCH  10  11
ATOM     11  C   UNL     1      44.454   3.597   9.716  0.00  0.00    +0.000 A 
ATOM     12  C   UNL     1      45.159   4.593   9.032  0.00  0.00    +0.000 A 
ATOM     13  C   UNL     1      46.086   4.228   8.061  0.00  0.00    +0.000 A 
ATOM     14  C   UNL     1      46.308   2.883   7.807  0.00  0.00    +0.000 A 
ATOM     15  C   UNL     1      45.584   1.953   8.536  0.00  0.00    +0.000 A 
ATOM     16  N   UNL     1      44.666   2.276   9.479  0.00  0.00    +0.000 NA
ENDBRANCH  10  11
BRANCH  10  17
ATOM     17  C   UNL     1      43.597   2.987  11.985  0.00  0.00    +0.000 C 
BRANCH  17  18
ATOM     18  N   UNL     1      42.973   1.660  11.845  0.00  0.00    +0.000 NA
ATOM     19  H   UNL     1      43.116   1.133  12.706  0.00  0.00    +0.000 HD
ATOM     20  H   UNL     1      43.437   1.141  11.101  0.00  0.00    +0.000 HD
ENDBRANCH  17  18
ENDBRANCH  10  17
ENDBRANCH   8  10
ENDBRANCH   7   8
ENDBRANCH   1   7
BRANCH   4  21
ATOM     21  C   UNL     1      49.211   8.082  12.688  0.00  0.00    +0.000 C 
BRANCH  21  22
ATOM     22  N   UNL     1      50.059   7.378  13.614  0.00  0.00    +0.000 N 
ATOM     23  C   UNL     1      50.355   7.905  14.841  0.00  0.00    +0.000 C 
ATOM     24  O   UNL     1      49.881   8.972  15.223  0.00  0.00    +0.000 OA
ATOM     25  H   UNL     1      50.623   6.621  13.239  0.00  0.00    +0.000 HD
BRANCH  23  26
ATOM     26  C   UNL     1      51.221   7.097  15.710  0.00  0.00    +0.000 A 
ATOM     27  C   UNL     1      52.589   7.325  15.707  0.00  0.00    +0.000 A 
ATOM     28  S   UNL     1      53.451   6.345  16.802  0.00  0.00    +0.000 S 
ATOM     29  C   UNL     1      52.030   5.544  17.285  0.00  0.00    +0.000 A 
ATOM     30  N   UNL     1      52.071   4.543  18.204  0.00  0.00    +0.000 NA
ATOM     31  C   UNL     1      50.926   4.002  18.456  0.00  0.00    +0.000 A 
ATOM     32  N   UNL     1      49.741   4.380  17.879  0.00  0.00    +0.000 N 
ATOM     33  C   UNL     1      49.648   5.397  16.961  0.00  0.00    +0.000 A 
ATOM     34  O   UNL     1      48.566   5.732  16.488  0.00  0.00    +0.000 OA
ATOM     35  C   UNL     1      50.910   6.033  16.635  0.00  0.00    +0.000 A 
ATOM     36  H   UNL     1      48.878   3.919  18.124  0.00  0.00    +0.000 HD
ENDBRANCH  23  26
ENDBRANCH  21  22
ENDBRANCH   4  21
TORSDOF 9
ENDMDL
MODEL 3
REMARK VINA RESULT:    -7.447      2.885      8.077
REMARK INTER + INTRA:         -12.215
REMARK INTER:                 -10.675
REMARK INTRA:                  -1.540
REMARK UNBOUND:                -1.067
REMARK  Name = 
REMARK  9 active torsions:
REMARK  status: ('A' for Active; 'I' for Inactive)
REMARK    1  A    between atoms: N_1  and  C_2
REMARK    2  A    between atoms: C_2  and  C_3
REMARK    3  A    between atoms: C_3  and  N_4
REMARK    4  A    between atoms: C_3  and  C_26
REMARK    5  A    between atoms: N_4  and  C_5
REMARK    6  A    between atoms: C_5  and  C_6
REMARK    7  A    between atoms: C_9  and  C_10
REMARK    8  A    between atoms: C_10  and  N_11
REMARK    9  A    between atoms: C_12  and  C_14
REMARK                            x       y       z     vdW  Elec       q    Type
REMARK                         _______ _______ _______ _____ _____    ______ ____
ROOT
ATOM      1  C   UNL     1      49.345   8.180  15.779  0.00  0.00    +0.000 A 
ATOM      2  C   UNL     1      48.239   8.957  15.407  0.00  0.00    +0.000 A 
ATOM      3  C   UNL     1      47.693   8.848  14.125  0.00  0.00    +0.000 A 
ATOM      4  C   UNL     1      48.248   7.965  13.190  0.00  0.00    +0.000 A 
ATOM      5  C   UNL     1      49.374   7.214  13.550  0.00  0.00    +0.000 A 
ATOM      6  C   UNL     1      49.911   7.314  14.832  0.00  0.00    +0.000 A 
ENDROOT
BRANCH   1   7
ATOM      7  C   UNL     1      49.941   8.266  17.167  0.00  0.00    +0.000 C 
BRANCH   7   8
ATOM      8  N   UNL     1      49.849   6.982  17.853  0.00  0.00    +0.000 NA
ATOM      9  H   UNL     1      50.556   6.362  17.461  0.00  0.00    +0.000 HD
BRANCH   8  10
ATOM     10  C   UNL     1      48.543   6.297  17.705  0.00  0.00    +0.000 C 
BRANCH  10  11
ATOM     11  C   UNL     1      48.768   4.819  17.347  0.00  0.00    +0.000 A 
ATOM     12  C   UNL     1      49.936   4.159  17.742  0.00  0.00    +0.000 A 
ATOM     13  C   UNL     1      50.120   2.826  17.390  0.00  0.00    +0.000 A 
ATOM     14  C   UNL     1      49.130   2.173  16.671  0.00  0.00    +0.000 A 
ATOM     15  C   UNL     1      47.993   2.888  16.329  0.00  0.00    +0.000 A 
ATOM     16  N   UNL     1      47.789   4.188  16.646  0.00  0.00    +0.000 NA
ENDBRANCH  10  11
BRANCH  10  17
ATOM     17  C   UNL     1      47.593   6.342  18.945  0.00  0.00    +0.000 C 
BRANCH  17  18
ATOM     18  N   UNL     1      46.406   5.473  18.886  0.00  0.00    +0.000 NA
ATOM     19  H   UNL     1      46.053   5.458  17.930  0.00  0.00    +0.000 HD
ATOM     20  H   UNL     1      45.667   5.864  19.467  0.00  0.00    +0.000 HD
ENDBRANCH  17  18
ENDBRANCH  10  17
ENDBRANCH   8  10
ENDBRANCH   7   8
ENDBRANCH   1   7
BRANCH   4  21
ATOM     21  C   UNL     1      47.690   7.865  11.798  0.00  0.00    +0.000 C 
BRANCH  21  22
ATOM     22  N   UNL     1      47.001   6.615  11.621  0.00  0.00    +0.000 N 
ATOM     23  C   UNL     1      45.638   6.538  11.720  0.00  0.00    +0.000 C 
ATOM     24  O   UNL     1      44.944   7.531  11.922  0.00  0.00    +0.000 OA
ATOM     25  H   UNL     1      47.559   5.768  11.673  0.00  0.00    +0.000 HD
BRANCH  23  26
ATOM     26  C   UNL     1      45.038   5.214  11.510  0.00  0.00    +0.000 A 
ATOM     27  C   UNL     1      44.363   4.600  12.556  0.00  0.00    +0.000 A 
ATOM     28  S   UNL     1      43.683   3.094  12.143  0.00  0.00    +0.000 S 
ATOM     29  C   UNL     1      44.308   3.185  10.563  0.00  0.00    +0.000 A 
ATOM     30  N   UNL     1      44.107   2.177   9.674  0.00  0.00    +0.000 NA
ATOM     31  C   UNL     1      44.660   2.362   8.522  0.00  0.00    +0.000 A 
ATOM     32  N   UNL     1      45.389   3.470   8.177  0.00  0.00    +0.000 N 
ATOM     33  C   UNL     1      45.604   4.522   9.035  0.00  0.00    +0.000 A 
ATOM     34  O   UNL     1      46.233   5.514   8.682  0.00  0.00    +0.000 OA
ATOM     35  C   UNL     1      45.009   4.359  10.348  0.00  0.00    +0.000 A 
ATOM     36  H   UNL     1      45.792   3.556   7.256  0.00  0.00    +0.000 HD
ENDBRANCH  23  26
ENDBRANCH  21  22
ENDBRANCH   4  21
TORSDOF 9
ENDMDL
MODEL 4
REMARK VINA RESULT:    -7.362      1.739      2.021
REMARK INTER + INTRA:         -12.088
REMARK INTER:                 -11.154
REMARK INTRA:                  -0.934
REMARK UNBOUND:                -1.067
REMARK  Name = 
REMARK  9 active torsions:
REMARK  status: ('A' for Active; 'I' for Inactive)
REMARK    1  A    between atoms: N_1  and  C_2
REMARK    2  A    between atoms: C_2  and  C_3
REMARK    3  A    between atoms: C_3  and  N_4
REMARK    4  A    between atoms: C_3  and  C_26
REMARK    5  A    between atoms: N_4  and  C_5
REMARK    6  A    between atoms: C_5  and  C_6
REMARK    7  A    between atoms: C_9  and  C_10
REMARK    8  A    between atoms: C_10  and  N_11
REMARK    9  A    between atoms: C_12  and  C_14
REMARK                            x       y       z     vdW  Elec       q    Type
REMARK                         _______ _______ _______ _____ _____    ______ ____
ROOT
ATOM      1  C   UNL     1      45.440   6.840  11.818  0.00  0.00    +0.000 A 
ATOM      2  C   UNL     1      45.264   8.102  12.401  0.00  0.00    +0.000 A 
ATOM      3  C   UNL     1      46.245   8.642  13.236  0.00  0.00    +0.000 A 
ATOM      4  C   UNL     1      47.419   7.927  13.508  0.00  0.00    +0.000 A 
ATOM      5  C   UNL     1      47.581   6.652  12.953  0.00  0.00    +0.000 A 
ATOM      6  C   UNL     1      46.607   6.117  12.111  0.00  0.00    +0.000 A 
ENDROOT
BRANCH   1   7
ATOM      7  C   UNL     1      44.401   6.242  10.895  0.00  0.00    +0.000 C 
BRANCH   7   8
ATOM      8  N   UNL     1      45.034   5.498   9.812  0.00  0.00    +0.000 NA
ATOM      9  H   UNL     1      44.815   5.967   8.934  0.00  0.00    +0.000 HD
BRANCH   8  10
ATOM     10  C   UNL     1      44.574   4.095   9.678  0.00  0.00    +0.000 C 
BRANCH  10  11
ATOM     11  C   UNL     1      45.433   3.364   8.633  0.00  0.00    +0.000 A 
ATOM     12  C   UNL     1      45.685   1.994   8.749  0.00  0.00    +0.000 A 
ATOM     13  C   UNL     1      46.479   1.362   7.797  0.00  0.00    +0.000 A 
ATOM     14  C   UNL     1      46.987   2.103   6.741  0.00  0.00    +0.000 A 
ATOM     15  C   UNL     1      46.682   3.453   6.683  0.00  0.00    +0.000 A 
ATOM     16  N   UNL     1      45.922   4.099   7.599  0.00  0.00    +0.000 NA
ENDBRANCH  10  11
BRANCH  10  17
ATOM     17  C   UNL     1      44.587   3.235  10.983  0.00  0.00    +0.000 C 
BRANCH  17  18
ATOM     18  N   UNL     1      43.336   2.529  11.306  0.00  0.00    +0.000 NA
ATOM     19  H   UNL     1      43.440   2.067  12.209  0.00  0.00    +0.000 HD
ATOM     20  H   UNL     1      43.169   1.797  10.618  0.00  0.00    +0.000 HD
ENDBRANCH  17  18
ENDBRANCH  10  17
ENDBRANCH   8  10
ENDBRANCH   7   8
ENDBRANCH   1   7
BRANCH   4  21
ATOM     21  C   UNL     1      48.465   8.485  14.431  0.00  0.00    +0.000 C 
BRANCH  21  22
ATOM     22  N   UNL     1      48.318   7.931  15.751  0.00  0.00    +0.000 N 
ATOM     23  C   UNL     1      48.624   8.666  16.864  0.00  0.00    +0.000 C 
ATOM     24  O   UNL     1      48.995   9.835  16.791  0.00  0.00    +0.000 OA
ATOM     25  H   UNL     1      48.229   6.922  15.821  0.00  0.00    +0.000 HD
BRANCH  23  26
ATOM     26  C   UNL     1      48.427   8.005  18.161  0.00  0.00    +0.000 A 
ATOM     27  C   UNL     1      47.972   8.749  19.240  0.00  0.00    +0.000 A 
ATOM     28  S   UNL     1      47.747   7.833  20.659  0.00  0.00    +0.000 S 
ATOM     29  C   UNL     1      48.298   6.417  19.895  0.00  0.00    +0.000 A 
ATOM     30  N   UNL     1      48.381   5.244  20.577  0.00  0.00    +0.000 NA
ATOM     31  C   UNL     1      48.842   4.255  19.885  0.00  0.00    +0.000 A 
ATOM     32  N   UNL     1      49.217   4.333  18.569  0.00  0.00    +0.000 N 
ATOM     33  C   UNL     1      49.132   5.491  17.834  0.00  0.00    +0.000 A 
ATOM     34  O   UNL     1      49.445   5.517  16.648  0.00  0.00    +0.000 OA
ATOM     35  C   UNL     1      48.628   6.635  18.569  0.00  0.00    +0.000 A 
ATOM     36  H   UNL     1      49.565   3.521  18.083  0.00  0.00    +0.000 HD
ENDBRANCH  23  26
ENDBRANCH  21  22
ENDBRANCH   4  21
TORSDOF 9
ENDMDL
MODEL 5
REMARK VINA RESULT:    -7.162      3.146      8.051
REMARK INTER + INTRA:         -11.789
REMARK INTER:                 -10.023
REMARK INTRA:                  -1.766
REMARK UNBOUND:                -1.067
REMARK  Name = 
REMARK  9 active torsions:
REMARK  status: ('A' for Active; 'I' for Inactive)
REMARK    1  A    between atoms: N_1  and  C_2
REMARK    2  A    between atoms: C_2  and  C_3
REMARK    3  A    between atoms: C_3  and  N_4
REMARK    4  A    between atoms: C_3  and  C_26
REMARK    5  A    between atoms: N_4  and  C_5
REMARK    6  A    between atoms: C_5  and  C_6
REMARK    7  A    between atoms: C_9  and  C_10
REMARK    8  A    between atoms: C_10  and  N_11
REMARK    9  A    between atoms: C_12  and  C_14
REMARK                            x       y       z     vdW  Elec       q    Type
REMARK                         _______ _______ _______ _____ _____    ______ ____
ROOT
ATOM      1  C   UNL     1      48.658   7.698  16.325  0.00  0.00    +0.000 A 
ATOM      2  C   UNL     1      48.276   8.927  15.772  0.00  0.00    +0.000 A 
ATOM      3  C   UNL     1      48.126   9.068  14.390  0.00  0.00    +0.000 A 
ATOM      4  C   UNL     1      48.363   7.983  13.535  0.00  0.00    +0.000 A 
ATOM      5  C   UNL     1      48.778   6.764  14.085  0.00  0.00    +0.000 A 
ATOM      6  C   UNL     1      48.916   6.620  15.465  0.00  0.00    +0.000 A 
ENDROOT
BRANCH   1   7
ATOM      7  C   UNL     1      48.807   7.515  17.820  0.00  0.00    +0.000 C 
BRANCH   7   8
ATOM      8  N   UNL     1      47.620   6.888  18.389  0.00  0.00    +0.000 NA
ATOM      9  H   UNL     1      47.164   7.565  18.999  0.00  0.00    +0.000 HD
BRANCH   8  10
ATOM     10  C   UNL     1      47.892   5.683  19.207  0.00  0.00    +0.000 C 
BRANCH  10  11
ATOM     11  C   UNL     1      48.299   4.515  18.295  0.00  0.00    +0.000 A 
ATOM     12  C   UNL     1      47.353   3.879  17.485  0.00  0.00    +0.000 A 
ATOM     13  C   UNL     1      47.748   2.814  16.681  0.00  0.00    +0.000 A 
ATOM     14  C   UNL     1      49.077   2.419  16.685  0.00  0.00    +0.000 A 
ATOM     15  C   UNL     1      49.960   3.107  17.502  0.00  0.00    +0.000 A 
ATOM     16  N   UNL     1      49.605   4.140  18.303  0.00  0.00    +0.000 NA
ENDBRANCH  10  11
BRANCH  10  17
ATOM     17  C   UNL     1      48.993   5.827  20.307  0.00  0.00    +0.000 C 
BRANCH  17  18
ATOM     18  N   UNL     1      49.240   4.637  21.138  0.00  0.00    +0.000 NA
ATOM     19  H   UNL     1      49.038   3.801  20.590  0.00  0.00    +0.000 HD
ATOM     20  H   UNL     1      48.598   4.633  21.929  0.00  0.00    +0.000 HD
ENDBRANCH  17  18
ENDBRANCH  10  17
ENDBRANCH   8  10
ENDBRANCH   7   8
ENDBRANCH   1   7
BRANCH   4  21
ATOM     21  C   UNL     1      48.238   8.133  12.046  0.00  0.00    +0.000 C 
BRANCH  21  22
ATOM     22  N   UNL     1      47.562   6.995  11.480  0.00  0.00    +0.000 N 
ATOM     23  C   UNL     1      46.197   6.951  11.401  0.00  0.00    +0.000 C 
ATOM     24  O   UNL     1      45.493   7.889  11.767  0.00  0.00    +0.000 OA
ATOM     25  H   UNL     1      48.102   6.141  11.379  0.00  0.00    +0.000 HD
BRANCH  23  26
ATOM     26  C   UNL     1      45.613   5.746  10.796  0.00  0.00    +0.000 A 
ATOM     27  C   UNL     1      45.800   5.508   9.442  0.00  0.00    +0.000 A 
ATOM     28  S   UNL     1      45.106   4.049   8.900  0.00  0.00    +0.000 S 
ATOM     29  C   UNL     1      44.488   3.707  10.448  0.00  0.00    +0.000 A 
ATOM     30  N   UNL     1      43.751   2.587  10.673  0.00  0.00    +0.000 NA
ATOM     31  C   UNL     1      43.320   2.466  11.884  0.00  0.00    +0.000 A 
ATOM     32  N   UNL     1      43.569   3.359  12.893  0.00  0.00    +0.000 N 
ATOM     33  C   UNL     1      44.324   4.494  12.718  0.00  0.00    +0.000 A 
ATOM     34  O   UNL     1      44.555   5.256  13.651  0.00  0.00    +0.000 OA
ATOM     35  C   UNL     1      44.826   4.682  11.370  0.00  0.00    +0.000 A 
ATOM     36  H   UNL     1      43.207   3.203  13.821  0.00  0.00    +0.000 HD
ENDBRANCH  23  26
ENDBRANCH  21  22
ENDBRANCH   4  21
TORSDOF 9
ENDMDL
MODEL 6
REMARK VINA RESULT:    -7.121      3.032      8.568
REMARK INTER + INTRA:         -11.727
REMARK INTER:                 -10.030
REMARK INTRA:                  -1.697
REMARK UNBOUND:                -1.067
REMARK  Name = 
REMARK  9 active torsions:
REMARK  status: ('A' for Active; 'I' for Inactive)
REMARK    1  A    between atoms: N_1  and  C_2
REMARK    2  A    between atoms: C_2  and  C_3
REMARK    3  A    between atoms: C_3  and  N_4
REMARK    4  A    between atoms: C_3  and  C_26
REMARK    5  A    between atoms: N_4  and  C_5
REMARK    6  A    between atoms: C_5  and  C_6
REMARK    7  A    between atoms: C_9  and  C_10
REMARK    8  A    between atoms: C_10  and  N_11
REMARK    9  A    between atoms: C_12  and  C_14
REMARK                            x       y       z     vdW  Elec       q    Type
REMARK                         _______ _______ _______ _____ _____    ______ ____
ROOT
ATOM      1  C   UNL     1      50.188   7.530  14.969  0.00  0.00    +0.000 A 
ATOM      2  C   UNL     1      50.579   8.034  13.721  0.00  0.00    +0.000 A 
ATOM      3  C   UNL     1      49.652   8.161  12.684  0.00  0.00    +0.000 A 
ATOM      4  C   UNL     1      48.316   7.782  12.875  0.00  0.00    +0.000 A 
ATOM      5  C   UNL     1      47.933   7.247  14.111  0.00  0.00    +0.000 A 
ATOM      6  C   UNL     1      48.856   7.130  15.149  0.00  0.00    +0.000 A 
ENDROOT
BRANCH   1   7
ATOM      7  C   UNL     1      51.170   7.401  16.114  0.00  0.00    +0.000 C 
BRANCH   7   8
ATOM      8  N   UNL     1      51.627   6.024  16.255  0.00  0.00    +0.000 NA
ATOM      9  H   UNL     1      51.142   5.456  15.562  0.00  0.00    +0.000 HD
BRANCH   8  10
ATOM     10  C   UNL     1      51.353   5.417  17.579  0.00  0.00    +0.000 C 
BRANCH  10  11
ATOM     11  C   UNL     1      49.996   4.695  17.549  0.00  0.00    +0.000 A 
ATOM     12  C   UNL     1      48.855   5.297  18.090  0.00  0.00    +0.000 A 
ATOM     13  C   UNL     1      47.645   4.612  18.064  0.00  0.00    +0.000 A 
ATOM     14  C   UNL     1      47.591   3.354  17.483  0.00  0.00    +0.000 A 
ATOM     15  C   UNL     1      48.758   2.828  16.954  0.00  0.00    +0.000 A 
ATOM     16  N   UNL     1      49.954   3.464  16.973  0.00  0.00    +0.000 NA
ENDBRANCH  10  11
BRANCH  10  17
ATOM     17  C   UNL     1      52.416   4.401  18.108  0.00  0.00    +0.000 C 
BRANCH  17  18
ATOM     18  N   UNL     1      52.037   3.627  19.302  0.00  0.00    +0.000 NA
ATOM     19  H   UNL     1      51.054   3.800  19.512  0.00  0.00    +0.000 HD
ATOM     20  H   UNL     1      52.572   3.953  20.105  0.00  0.00    +0.000 HD
ENDBRANCH  17  18
ENDBRANCH  10  17
ENDBRANCH   8  10
ENDBRANCH   7   8
ENDBRANCH   1   7
BRANCH   4  21
ATOM     21  C   UNL     1      47.318   7.883  11.757  0.00  0.00    +0.000 C 
BRANCH  21  22
ATOM     22  N   UNL     1      46.688   6.610  11.527  0.00  0.00    +0.000 N 
ATOM     23  C   UNL     1      45.326   6.484  11.532  0.00  0.00    +0.000 C 
ATOM     24  O   UNL     1      44.583   7.450  11.690  0.00  0.00    +0.000 OA
ATOM     25  H   UNL     1      47.272   5.784  11.614  0.00  0.00    +0.000 HD
BRANCH  23  26
ATOM     26  C   UNL     1      44.790   5.141  11.276  0.00  0.00    +0.000 A 
ATOM     27  C   UNL     1      44.037   4.511  12.257  0.00  0.00    +0.000 A 
ATOM     28  S   UNL     1      43.446   2.983  11.792  0.00  0.00    +0.000 S 
ATOM     29  C   UNL     1      44.217   3.085  10.280  0.00  0.00    +0.000 A 
ATOM     30  N   UNL     1      44.133   2.067   9.383  0.00  0.00    +0.000 NA
ATOM     31  C   UNL     1      44.789   2.264   8.289  0.00  0.00    +0.000 A 
ATOM     32  N   UNL     1      45.514   3.392   8.006  0.00  0.00    +0.000 N 
ATOM     33  C   UNL     1      45.612   4.454   8.872  0.00  0.00    +0.000 A 
ATOM     34  O   UNL     1      46.242   5.464   8.574  0.00  0.00    +0.000 OA
ATOM     35  C   UNL     1      44.899   4.280  10.123  0.00  0.00    +0.000 A 
ATOM     36  H   UNL     1      46.001   3.487   7.128  0.00  0.00    +0.000 HD
ENDBRANCH  23  26
ENDBRANCH  21  22
ENDBRANCH   4  21
TORSDOF 9
ENDMDL
MODEL 7
REMARK VINA RESULT:    -7.097      3.152      8.189
REMARK INTER + INTRA:         -11.692
REMARK INTER:                 -10.153
REMARK INTRA:                  -1.539
REMARK UNBOUND:                -1.067
REMARK  Name = 
REMARK  9 active torsions:
REMARK  status: ('A' for Active; 'I' for Inactive)
REMARK    1  A    between atoms: N_1  and  C_2
REMARK    2  A    between atoms: C_2  and  C_3
REMARK    3  A    between atoms: C_3  and  N_4
REMARK    4  A    between atoms: C_3  and  C_26
REMARK    5  A    between atoms: N_4  and  C_5
REMARK    6  A    between atoms: C_5  and  C_6
REMARK    7  A    between atoms: C_9  and  C_10
REMARK    8  A    between atoms: C_10  and  N_11
REMARK    9  A    between atoms: C_12  and  C_14
REMARK                            x       y       z     vdW  Elec       q    Type
REMARK                         _______ _______ _______ _____ _____    ______ ____
ROOT
ATOM      1  C   UNL     1      50.143   6.692  16.140  0.00  0.00    +0.000 A 
ATOM      2  C   UNL     1      48.813   6.374  15.829  0.00  0.00    +0.000 A 
ATOM      3  C   UNL     1      48.260   6.754  14.604  0.00  0.00    +0.000 A 
ATOM      4  C   UNL     1      49.025   7.465  13.669  0.00  0.00    +0.000 A 
ATOM      5  C   UNL     1      50.342   7.813  13.994  0.00  0.00    +0.000 A 
ATOM      6  C   UNL     1      50.897   7.424  15.211  0.00  0.00    +0.000 A 
ENDROOT
BRANCH   1   7
ATOM      7  C   UNL     1      50.770   6.274  17.452  0.00  0.00    +0.000 C 
BRANCH   7   8
ATOM      8  N   UNL     1      51.726   5.191  17.250  0.00  0.00    +0.000 NA
ATOM      9  H   UNL     1      51.725   4.947  16.261  0.00  0.00    +0.000 HD
BRANCH   8  10
ATOM     10  C   UNL     1      51.418   3.951  18.001  0.00  0.00    +0.000 C 
BRANCH  10  11
ATOM     11  C   UNL     1      49.947   3.562  17.785  0.00  0.00    +0.000 A 
ATOM     12  C   UNL     1      48.972   3.908  18.725  0.00  0.00    +0.000 A 
ATOM     13  C   UNL     1      47.651   3.529  18.510  0.00  0.00    +0.000 A 
ATOM     14  C   UNL     1      47.326   2.832  17.356  0.00  0.00    +0.000 A 
ATOM     15  C   UNL     1      48.343   2.537  16.463  0.00  0.00    +0.000 A 
ATOM     16  N   UNL     1      49.639   2.883  16.648  0.00  0.00    +0.000 NA
ENDBRANCH  10  11
BRANCH  10  17
ATOM     17  C   UNL     1      52.291   2.700  17.659  0.00  0.00    +0.000 C 
BRANCH  17  18
ATOM     18  N   UNL     1      51.764   1.399  18.103  0.00  0.00    +0.000 NA
ATOM     19  H   UNL     1      51.816   1.349  19.120  0.00  0.00    +0.000 HD
ATOM     20  H   UNL     1      52.351   0.650  17.740  0.00  0.00    +0.000 HD
ENDBRANCH  17  18
ENDBRANCH  10  17
ENDBRANCH   8  10
ENDBRANCH   7   8
ENDBRANCH   1   7
BRANCH   4  21
ATOM     21  C   UNL     1      48.429   7.908  12.363  0.00  0.00    +0.000 C 
BRANCH  21  22
ATOM     22  N   UNL     1      47.698   6.830  11.752  0.00  0.00    +0.000 N 
ATOM     23  C   UNL     1      46.354   6.933  11.513  0.00  0.00    +0.000 C 
ATOM     24  O   UNL     1      45.724   7.956  11.769  0.00  0.00    +0.000 OA
ATOM     25  H   UNL     1      48.145   5.918  11.738  0.00  0.00    +0.000 HD
BRANCH  23  26
ATOM     26  C   UNL     1      45.711   5.777  10.875  0.00  0.00    +0.000 A 
ATOM     27  C   UNL     1      45.848   5.592   9.507  0.00  0.00    +0.000 A 
ATOM     28  S   UNL     1      45.088   4.183   8.925  0.00  0.00    +0.000 S 
ATOM     29  C   UNL     1      44.504   3.795  10.475  0.00  0.00    +0.000 A 
ATOM     30  N   UNL     1      43.735   2.692  10.674  0.00  0.00    +0.000 NA
ATOM     31  C   UNL     1      43.336   2.532  11.891  0.00  0.00    +0.000 A 
ATOM     32  N   UNL     1      43.646   3.371  12.930  0.00  0.00    +0.000 N 
ATOM     33  C   UNL     1      44.435   4.486  12.781  0.00  0.00    +0.000 A 
ATOM     34  O   UNL     1      44.721   5.197  13.738  0.00  0.00    +0.000 OA
ATOM     35  C   UNL     1      44.903   4.716  11.427  0.00  0.00    +0.000 A 
ATOM     36  H   UNL     1      43.306   3.186  13.862  0.00  0.00    +0.000 HD
ENDBRANCH  23  26
ENDBRANCH  21  22
ENDBRANCH   4  21
TORSDOF 9
ENDMDL
MODEL 8
REMARK VINA RESULT:    -6.738      3.705      8.858
REMARK INTER + INTRA:         -11.153
REMARK INTER:                 -10.096
REMARK INTRA:                  -1.057
REMARK UNBOUND:                -1.067
REMARK  Name = 
REMARK  9 active torsions:
REMARK  status: ('A' for Active; 'I' for Inactive)
REMARK    1  A    between atoms: N_1  and  C_2
REMARK    2  A    between atoms: C_2  and  C_3
REMARK    3  A    between atoms: C_3  and  N_4
REMARK    4  A    between atoms: C_3  and  C_26
REMARK    5  A    between atoms: N_4  and  C_5
REMARK    6  A    between atoms: C_5  and  C_6
REMARK    7  A    between atoms: C_9  and  C_10
REMARK    8  A    between atoms: C_10  and  N_11
REMARK    9  A    between atoms: C_12  and  C_14
REMARK                            x       y       z     vdW  Elec       q    Type
REMARK                         _______ _______ _______ _____ _____    ______ ____
ROOT
ATOM      1  C   UNL     1      49.402   5.103  17.465  0.00  0.00    +0.000 A 
ATOM      2  C   UNL     1      48.240   4.708  16.787  0.00  0.00    +0.000 A 
ATOM      3  C   UNL     1      47.850   5.353  15.611  0.00  0.00    +0.000 A 
ATOM      4  C   UNL     1      48.611   6.410  15.094  0.00  0.00    +0.000 A 
ATOM      5  C   UNL     1      49.752   6.828  15.790  0.00  0.00    +0.000 A 
ATOM      6  C   UNL     1      50.148   6.177  16.957  0.00  0.00    +0.000 A 
ENDROOT
BRANCH   1   7
ATOM      7  C   UNL     1      49.856   4.407  18.729  0.00  0.00    +0.000 C 
BRANCH   7   8
ATOM      8  N   UNL     1      51.252   3.999  18.626  0.00  0.00    +0.000 NA
ATOM      9  H   UNL     1      51.795   4.803  18.313  0.00  0.00    +0.000 HD
BRANCH   8  10
ATOM     10  C   UNL     1      51.504   2.905  17.659  0.00  0.00    +0.000 C 
BRANCH  10  11
ATOM     11  C   UNL     1      52.760   2.122  18.075  0.00  0.00    +0.000 A 
ATOM     12  C   UNL     1      53.183   1.009  17.341  0.00  0.00    +0.000 A 
ATOM     13  C   UNL     1      54.313   0.310  17.750  0.00  0.00    +0.000 A 
ATOM     14  C   UNL     1      55.010   0.745  18.868  0.00  0.00    +0.000 A 
ATOM     15  C   UNL     1      54.540   1.864  19.536  0.00  0.00    +0.000 A 
ATOM     16  N   UNL     1      53.437   2.559  19.169  0.00  0.00    +0.000 NA
ENDBRANCH  10  11
BRANCH  10  17
ATOM     17  C   UNL     1      50.347   1.872  17.466  0.00  0.00    +0.000 C 
BRANCH  17  18
ATOM     18  N   UNL     1      49.820   1.736  16.098  0.00  0.00    +0.000 NA
ATOM     19  H   UNL     1      49.261   0.885  16.040  0.00  0.00    +0.000 HD
ATOM     20  H   UNL     1      50.592   1.626  15.443  0.00  0.00    +0.000 HD
ENDBRANCH  17  18
ENDBRANCH  10  17
ENDBRANCH   8  10
ENDBRANCH   7   8
ENDBRANCH   1   7
BRANCH   4  21
ATOM     21  C   UNL     1      48.182   7.133  13.849  0.00  0.00    +0.000 C 
BRANCH  21  22
ATOM     22  N   UNL     1      47.438   6.253  12.987  0.00  0.00    +0.000 N 
ATOM     23  C   UNL     1      46.530   6.743  12.089  0.00  0.00    +0.000 C 
ATOM     24  O   UNL     1      46.339   7.949  11.949  0.00  0.00    +0.000 OA
ATOM     25  H   UNL     1      47.421   5.268  13.236  0.00  0.00    +0.000 HD
BRANCH  23  26
ATOM     26  C   UNL     1      45.836   5.756  11.252  0.00  0.00    +0.000 A 
ATOM     27  C   UNL     1      45.965   5.825   9.872  0.00  0.00    +0.000 A 
ATOM     28  S   UNL     1      45.143   4.584   9.043  0.00  0.00    +0.000 S 
ATOM     29  C   UNL     1      44.543   3.938  10.498  0.00  0.00    +0.000 A 
ATOM     30  N   UNL     1      43.726   2.852  10.494  0.00  0.00    +0.000 NA
ATOM     31  C   UNL     1      43.320   2.484  11.664  0.00  0.00    +0.000 A 
ATOM     32  N   UNL     1      43.667   3.100  12.838  0.00  0.00    +0.000 N 
ATOM     33  C   UNL     1      44.505   4.188  12.893  0.00  0.00    +0.000 A 
ATOM     34  O   UNL     1      44.822   4.695  13.964  0.00  0.00    +0.000 OA
ATOM     35  C   UNL     1      44.982   4.647  11.602  0.00  0.00    +0.000 A 
ATOM     36  H   UNL     1      43.320   2.760  13.722  0.00  0.00    +0.000 HD
ENDBRANCH  23  26
ENDBRANCH  21  22
ENDBRANCH   4  21
TORSDOF 9
ENDMDL
MODEL 9
REMARK VINA RESULT:    -6.699      4.220      5.331
REMARK INTER + INTRA:         -11.096
REMARK INTER:                  -9.775
REMARK INTRA:                  -1.321
REMARK UNBOUND:                -1.067
REMARK  Name = 
REMARK  9 active torsions:
REMARK  status: ('A' for Active; 'I' for Inactive)
REMARK    1  A    between atoms: N_1  and  C_2
REMARK    2  A    between atoms: C_2  and  C_3
REMARK    3  A    between atoms: C_3  and  N_4
REMARK    4  A    between atoms: C_3  and  C_26
REMARK    5  A    between atoms: N_4  and  C_5
REMARK    6  A    between atoms: C_5  and  C_6
REMARK    7  A    between atoms: C_9  and  C_10
REMARK    8  A    between atoms: C_10  and  N_11
REMARK    9  A    between atoms: C_12  and  C_14
REMARK                            x       y       z     vdW  Elec       q    Type
REMARK                         _______ _______ _______ _____ _____    ______ ____
ROOT
ATOM      1  C   UNL     1      45.778   7.218  12.253  0.00  0.00    +0.000 A 
ATOM      2  C   UNL     1      47.037   6.692  11.934  0.00  0.00    +0.000 A 
ATOM      3  C   UNL     1      48.135   7.537  11.750  0.00  0.00    +0.000 A 
ATOM      4  C   UNL     1      47.991   8.925  11.875  0.00  0.00    +0.000 A 
ATOM      5  C   UNL     1      46.726   9.454  12.160  0.00  0.00    +0.000 A 
ATOM      6  C   UNL     1      45.634   8.610  12.355  0.00  0.00    +0.000 A 
ENDROOT
BRANCH   1   7
ATOM      7  C   UNL     1      44.579   6.323  12.477  0.00  0.00    +0.000 C 
BRANCH   7   8
ATOM      8  N   UNL     1      43.973   5.938  11.208  0.00  0.00    +0.000 NA
ATOM      9  H   UNL     1      43.121   6.483  11.085  0.00  0.00    +0.000 HD
BRANCH   8  10
ATOM     10  C   UNL     1      43.589   4.509  11.117  0.00  0.00    +0.000 C 
BRANCH  10  11
ATOM     11  C   UNL     1      44.378   3.830   9.986  0.00  0.00    +0.000 A 
ATOM     12  C   UNL     1      45.255   4.567   9.185  0.00  0.00    +0.000 A 
ATOM     13  C   UNL     1      45.943   3.928   8.159  0.00  0.00    +0.000 A 
ATOM     14  C   UNL     1      45.759   2.567   7.964  0.00  0.00    +0.000 A 
ATOM     15  C   UNL     1      44.884   1.900   8.807  0.00  0.00    +0.000 A 
ATOM     16  N   UNL     1      44.192   2.495   9.808  0.00  0.00    +0.000 NA
ENDBRANCH  10  11
BRANCH  10  17
ATOM     17  C   UNL     1      43.790   3.655  12.410  0.00  0.00    +0.000 C 
BRANCH  17  18
ATOM     18  N   UNL     1      45.078   2.951  12.530  0.00  0.00    +0.000 NA
ATOM     19  H   UNL     1      45.760   3.577  12.956  0.00  0.00    +0.000 HD
ATOM     20  H   UNL     1      45.429   2.720  11.602  0.00  0.00    +0.000 HD
ENDBRANCH  17  18
ENDBRANCH  10  17
ENDBRANCH   8  10
ENDBRANCH   7   8
ENDBRANCH   1   7
BRANCH   4  21
ATOM     21  C   UNL     1      49.156   9.845  11.645  0.00  0.00    +0.000 C 
BRANCH  21  22
ATOM     22  N   UNL     1      50.397   9.156  11.885  0.00  0.00    +0.000 N 
ATOM     23  C   UNL     1      51.524   9.459  11.171  0.00  0.00    +0.000 C 
ATOM     24  O   UNL     1      51.539  10.353  10.328  0.00  0.00    +0.000 OA
ATOM     25  H   UNL     1      50.348   8.286  12.407  0.00  0.00    +0.000 HD
BRANCH  23  26
ATOM     26  C   UNL     1      52.736   8.701  11.506  0.00  0.00    +0.000 A 
ATOM     27  C   UNL     1      53.550   9.143  12.539  0.00  0.00    +0.000 A 
ATOM     28  S   UNL     1      54.889   8.132  12.838  0.00  0.00    +0.000 S 
ATOM     29  C   UNL     1      54.456   7.093  11.563  0.00  0.00    +0.000 A 
ATOM     30  N   UNL     1      55.219   6.010  11.256  0.00  0.00    +0.000 NA
ATOM     31  C   UNL     1      54.792   5.325  10.249  0.00  0.00    +0.000 A 
ATOM     32  N   UNL     1      53.665   5.618   9.527  0.00  0.00    +0.000 N 
ATOM     33  C   UNL     1      52.852   6.690   9.812  0.00  0.00    +0.000 A 
ATOM     34  O   UNL     1      51.832   6.905   9.167  0.00  0.00    +0.000 OA
ATOM     35  C   UNL     1      53.293   7.499  10.932  0.00  0.00    +0.000 A 
ATOM     36  H   UNL     1      53.381   5.038   8.753  0.00  0.00    +0.000 HD
ENDBRANCH  23  26
ENDBRANCH  21  22
ENDBRANCH   4  21
TORSDOF 9
ENDMDL
