MODEL 1
REMARK VINA RESULT:    -8.294      0.000      0.000
REMARK INTER + INTRA:         -12.534
REMARK INTER:                 -11.688
REMARK INTRA:                  -0.846
REMARK UNBOUND:                -0.846
REMARK  Name = 
REMARK  8 active torsions:
REMARK  status: ('A' for Active; 'I' for Inactive)
REMARK    1  A    between atoms: C_1  and  C_2
REMARK    2  A    between atoms: C_2  and  C_3
REMARK    3  A    between atoms: C_7  and  C_8
REMARK    4  A    between atoms: C_8  and  C_9
REMARK    5  A    between atoms: C_9  and  N_10
REMARK    6  A    between atoms: C_14  and  C_15
REMARK    7  A    between atoms: N_24  and  C_25
REMARK    8  A    between atoms: C_25  and  C_26
REMARK                            x       y       z     vdW  Elec       q    Type
REMARK                         _______ _______ _______ _____ _____    ______ ____
ROOT
ATOM      1  C   UNL     1      46.746   6.660  13.086  0.00  0.00    +0.000 A 
ATOM      2  C   UNL     1      47.390   5.561  13.676  0.00  0.00    +0.000 A 
ATOM      3  C   UNL     1      46.776   4.315  13.753  0.00  0.00    +0.000 A 
ATOM      4  C   UNL     1      45.482   4.145  13.267  0.00  0.00    +0.000 A 
ATOM      5  C   UNL     1      44.791   5.225  12.704  0.00  0.00    +0.000 A 
ATOM      6  C   UNL     1      45.464   6.455  12.577  0.00  0.00    +0.000 A 
ENDROOT
BRANCH   1   8
ATOM      7  C   UNL     1      46.311   9.070  12.720  0.00  0.00    +0.000 C 
ATOM      8  C   UNL     1      47.403   8.050  13.127  0.00  0.00    +0.000 C 
ATOM      9  C   UNL     1      47.931   8.340  14.556  0.00  0.00    +0.000 C 
ATOM     10  C   UNL     1      48.671   9.671  14.633  0.00  0.00    +0.000 C 
ATOM     11  C   UNL     1      49.778   9.763  13.587  0.00  0.00    +0.000 C 
ATOM     12  N   UNL     1      49.267   9.514  12.233  0.00  0.00    +0.000 NA
ATOM     13  C   UNL     1      48.610   8.198  12.147  0.00  0.00    +0.000 C 
BRANCH  12  14
ATOM     14  C   UNL     1      50.342   9.621  11.210  0.00  0.00    +0.000 C 
BRANCH  14  15
ATOM     15  C   UNL     1      51.371   8.471  11.118  0.00  0.00    +0.000 C 
ATOM     16  F   UNL     1      51.893   8.135  12.316  0.00  0.00    +0.000 F 
ATOM     17  F   UNL     1      50.809   7.358  10.594  0.00  0.00    +0.000 F 
ATOM     18  F   UNL     1      52.405   8.819  10.319  0.00  0.00    +0.000 F 
ENDBRANCH  14  15
ENDBRANCH  12  14
ENDBRANCH   1   8
BRANCH   5  19
ATOM     19  C   UNL     1      43.330   5.121  12.307  0.00  0.00    +0.000 C 
BRANCH  19  20
ATOM     20  C   UNL     1      43.114   4.389  10.966  0.00  0.00    +0.000 C 
BRANCH  20  21
ATOM     21  N   UNL     1      43.895   4.981   9.874  0.00  0.00    +0.000 N 
ATOM     22  C   UNL     1      44.674   4.007   9.223  0.00  0.00    +0.000 A 
ATOM     23  C   UNL     1      45.494   4.371   8.151  0.00  0.00    +0.000 A 
ATOM     24  C   UNL     1      46.262   3.389   7.527  0.00  0.00    +0.000 A 
ATOM     25  C   UNL     1      46.215   2.078   7.982  0.00  0.00    +0.000 A 
ATOM     26  C   UNL     1      45.385   1.803   9.054  0.00  0.00    +0.000 A 
ATOM     27  N   UNL     1      44.613   2.737   9.660  0.00  0.00    +0.000 NA
ATOM     28  H   UNL     1      44.538   5.692  10.214  0.00  0.00    +0.000 HD
BRANCH  25  29
ATOM     29  C   UNL     1      47.077   1.034   7.372  0.00  0.00    +0.000 C 
ATOM     30  N   UNL     1      46.757  -0.283   7.631  0.00  0.00    +0.000 N 
ATOM     31  O   UNL     1      48.013   1.312   6.664  0.00  0.00    +0.000 OA
ATOM     32  H   UNL     1      46.024  -0.606   8.239  0.00  0.00    +0.000 HD
ATOM     33  H   UNL     1      47.373  -0.974   7.224  0.00  0.00    +0.000 HD
ENDBRANCH  25  29
ENDBRANCH  20  21
ENDBRANCH  19  20
ENDBRANCH   5  19
TORSDOF 7
ENDMDL
MODEL 2
REMARK VINA RESULT:    -8.275      3.041      4.196
REMARK INTER + INTRA:         -12.507
REMARK INTER:                 -11.742
REMARK INTRA:                  -0.765
REMARK UNBOUND:                -0.846
REMARK  Name = 
REMARK  8 active torsions:
REMARK  status: ('A' for Active; 'I' for Inactive)
REMARK    1  A    between atoms: C_1  and  C_2
REMARK    2  A    between atoms: C_2  and  C_3
REMARK    3  A    between atoms: C_7  and  C_8
REMARK    4  A    between atoms: C_8  and  C_9
REMARK    5  A    between atoms: C_9  and  N_10
REMARK    6  A    between atoms: C_14  and  C_15
REMARK    7  A    between atoms: N_24  and  C_25
REMARK    8  A    between atoms: C_25  and  C_26
REMARK                            x       y       z     vdW  Elec       q    Type
REMARK                         _______ _______ _______ _____ _____    ______ ____
ROOT
ATOM      1  C   UNL     1      46.295   7.087  13.094  0.00  0.00    +0.000 A 
ATOM      2  C   UNL     1      46.347   8.304  12.398  0.00  0.00    +0.000 A 
ATOM      3  C   UNL     1      45.300   8.718  11.579  0.00  0.00    +0.000 A 
ATOM      4  C   UNL     1      44.184   7.903  11.412  0.00  0.00    +0.000 A 
ATOM      5  C   UNL     1      44.110   6.663  12.059  0.00  0.00    +0.000 A 
ATOM      6  C   UNL     1      45.152   6.304  12.935  0.00  0.00    +0.000 A 
ENDROOT
BRANCH   1   8
ATOM      7  C   UNL     1      48.531   6.046  12.860  0.00  0.00    +0.000 C 
ATOM      8  C   UNL     1      47.518   6.604  13.892  0.00  0.00    +0.000 C 
ATOM      9  C   UNL     1      48.128   7.788  14.686  0.00  0.00    +0.000 C 
ATOM     10  C   UNL     1      49.294   7.348  15.566  0.00  0.00    +0.000 C 
ATOM     11  C   UNL     1      48.905   6.189  16.479  0.00  0.00    +0.000 C 
ATOM     12  N   UNL     1      48.353   5.060  15.719  0.00  0.00    +0.000 NA
ATOM     13  C   UNL     1      47.187   5.477  14.921  0.00  0.00    +0.000 C 
BRANCH  12  14
ATOM     14  C   UNL     1      47.990   3.922  16.607  0.00  0.00    +0.000 C 
BRANCH  14  15
ATOM     15  C   UNL     1      49.122   2.982  17.079  0.00  0.00    +0.000 C 
ATOM     16  F   UNL     1      49.202   1.848  16.353  0.00  0.00    +0.000 F 
ATOM     17  F   UNL     1      50.325   3.598  17.004  0.00  0.00    +0.000 F 
ATOM     18  F   UNL     1      48.933   2.617  18.367  0.00  0.00    +0.000 F 
ENDBRANCH  14  15
ENDBRANCH  12  14
ENDBRANCH   1   8
BRANCH   5  19
ATOM     19  C   UNL     1      42.987   5.680  11.782  0.00  0.00    +0.000 C 
BRANCH  19  20
ATOM     20  C   UNL     1      43.362   4.605  10.740  0.00  0.00    +0.000 C 
BRANCH  20  21
ATOM     21  N   UNL     1      44.236   5.131   9.685  0.00  0.00    +0.000 N 
ATOM     22  C   UNL     1      44.944   4.093   9.052  0.00  0.00    +0.000 A 
ATOM     23  C   UNL     1      45.835   4.387   8.016  0.00  0.00    +0.000 A 
ATOM     24  C   UNL     1      46.532   3.343   7.409  0.00  0.00    +0.000 A 
ATOM     25  C   UNL     1      46.344   2.038   7.846  0.00  0.00    +0.000 A 
ATOM     26  C   UNL     1      45.451   1.834   8.882  0.00  0.00    +0.000 A 
ATOM     27  N   UNL     1      44.748   2.831   9.470  0.00  0.00    +0.000 NA
ATOM     28  H   UNL     1      44.930   5.775  10.058  0.00  0.00    +0.000 HD
BRANCH  25  29
ATOM     29  C   UNL     1      47.127   0.923   7.255  0.00  0.00    +0.000 C 
ATOM     30  N   UNL     1      46.815  -0.357   7.666  0.00  0.00    +0.000 N 
ATOM     31  O   UNL     1      47.992   1.113   6.438  0.00  0.00    +0.000 OA
ATOM     32  H   UNL     1      46.140  -0.606   8.369  0.00  0.00    +0.000 HD
ATOM     33  H   UNL     1      47.378  -1.097   7.267  0.00  0.00    +0.000 HD
ENDBRANCH  25  29
ENDBRANCH  20  21
ENDBRANCH  19  20
ENDBRANCH   5  19
TORSDOF 7
ENDMDL
MODEL 3
REMARK VINA RESULT:    -8.153      1.376      2.094
REMARK INTER + INTRA:         -12.336
REMARK INTER:                 -11.125
REMARK INTRA:                  -1.211
REMARK UNBOUND:                -0.846
REMARK  Name = 
REMARK  8 active torsions:
REMARK  status: ('A' for Active; 'I' for Inactive)
REMARK    1  A    between atoms: C_1  and  C_2
REMARK    2  A    between atoms: C_2  and  C_3
REMARK    3  A    between atoms: C_7  and  C_8
REMARK    4  A    between atoms: C_8  and  C_9
REMARK    5  A    between atoms: C_9  and  N_10
REMARK    6  A    between atoms: C_14  and  C_15
REMARK    7  A    between atoms: N_24  and  C_25
REMARK    8  A    between atoms: C_25  and  C_26
REMARK                            x       y       z     vdW  Elec       q    Type
REMARK                         _______ _______ _______ _____ _____    ______ ____
ROOT
ATOM      1  C   UNL     1      47.043   6.687  12.798  0.00  0.00    +0.000 A 
ATOM      2  C   UNL     1      47.546   5.666  13.618  0.00  0.00    +0.000 A 
ATOM      3  C   UNL     1      46.792   4.535  13.915  0.00  0.00    +0.000 A 
ATOM      4  C   UNL     1      45.495   4.413  13.421  0.00  0.00    +0.000 A 
ATOM      5  C   UNL     1      44.943   5.427  12.629  0.00  0.00    +0.000 A 
ATOM      6  C   UNL     1      45.755   6.526  12.289  0.00  0.00    +0.000 A 
ENDROOT
BRANCH   1   8
ATOM      7  C   UNL     1      48.937   7.656  11.529  0.00  0.00    +0.000 C 
ATOM      8  C   UNL     1      47.854   7.978  12.590  0.00  0.00    +0.000 C 
ATOM      9  C   UNL     1      46.919   9.114  12.103  0.00  0.00    +0.000 C 
ATOM     10  C   UNL     1      47.656  10.442  11.963  0.00  0.00    +0.000 C 
ATOM     11  C   UNL     1      48.389  10.818  13.248  0.00  0.00    +0.000 C 
ATOM     12  N   UNL     1      49.294   9.749  13.689  0.00  0.00    +0.000 NA
ATOM     13  C   UNL     1      48.565   8.483  13.885  0.00  0.00    +0.000 C 
BRANCH  12  14
ATOM     14  C   UNL     1      50.023  10.121  14.932  0.00  0.00    +0.000 C 
BRANCH  14  15
ATOM     15  C   UNL     1      51.350   9.390  15.239  0.00  0.00    +0.000 C 
ATOM     16  F   UNL     1      52.308  10.215  15.710  0.00  0.00    +0.000 F 
ATOM     17  F   UNL     1      51.164   8.416  16.159  0.00  0.00    +0.000 F 
ATOM     18  F   UNL     1      51.842   8.806  14.123  0.00  0.00    +0.000 F 
ENDBRANCH  14  15
ENDBRANCH  12  14
ENDBRANCH   1   8
BRANCH   5  19
ATOM     19  C   UNL     1      43.487   5.406  12.202  0.00  0.00    +0.000 C 
BRANCH  19  20
ATOM     20  C   UNL     1      43.230   4.535  10.953  0.00  0.00    +0.000 C 
BRANCH  20  21
ATOM     21  N   UNL     1      43.918   5.048   9.763  0.00  0.00    +0.000 N 
ATOM     22  C   UNL     1      44.684   4.042   9.148  0.00  0.00    +0.000 A 
ATOM     23  C   UNL     1      45.420   4.331   7.995  0.00  0.00    +0.000 A 
ATOM     24  C   UNL     1      46.178   3.319   7.408  0.00  0.00    +0.000 A 
ATOM     25  C   UNL     1      46.204   2.052   7.977  0.00  0.00    +0.000 A 
ATOM     26  C   UNL     1      45.455   1.852   9.123  0.00  0.00    +0.000 A 
ATOM     27  N   UNL     1      44.695   2.814   9.697  0.00  0.00    +0.000 NA
ATOM     28  H   UNL     1      44.559   5.804   9.996  0.00  0.00    +0.000 HD
BRANCH  25  29
ATOM     29  C   UNL     1      47.058   0.982   7.402  0.00  0.00    +0.000 C 
ATOM     30  N   UNL     1      46.702  -0.324   7.670  0.00  0.00    +0.000 N 
ATOM     31  O   UNL     1      48.017   1.230   6.716  0.00  0.00    +0.000 OA
ATOM     32  H   UNL     1      45.946  -0.623   8.262  0.00  0.00    +0.000 HD
ATOM     33  H   UNL     1      47.312  -1.034   7.287  0.00  0.00    +0.000 HD
ENDBRANCH  25  29
ENDBRANCH  20  21
ENDBRANCH  19  20
ENDBRANCH   5  19
TORSDOF 7
ENDMDL
MODEL 4
REMARK VINA RESULT:    -7.975      4.843      7.988
REMARK INTER + INTRA:         -12.085
REMARK INTER:                 -11.253
REMARK INTRA:                  -0.832
REMARK UNBOUND:                -0.846
REMARK  Name = 
REMARK  8 active torsions:
REMARK  status: ('A' for Active; 'I' for Inactive)
REMARK    1  A    between atoms: C_1  and  C_2
REMARK    2  A    between atoms: C_2  and  C_3
REMARK    3  A    between atoms: C_7  and  C_8
REMARK    4  A    between atoms: C_8  and  C_9
REMARK    5  A    between atoms: C_9  and  N_10
REMARK    6  A    between atoms: C_14  and  C_15
REMARK    7  A    between atoms: N_24  and  C_25
REMARK    8  A    between atoms: C_25  and  C_26
REMARK                            x       y       z     vdW  Elec       q    Type
REMARK                         _______ _______ _______ _____ _____    ______ ____
ROOT
ATOM      1  C   UNL     1      46.252   6.561  12.828  0.00  0.00    +0.000 A 
ATOM      2  C   UNL     1      45.723   7.858  12.750  0.00  0.00    +0.000 A 
ATOM      3  C   UNL     1      46.376   8.945  13.323  0.00  0.00    +0.000 A 
ATOM      4  C   UNL     1      47.567   8.753  14.019  0.00  0.00    +0.000 A 
ATOM      5  C   UNL     1      48.110   7.469  14.151  0.00  0.00    +0.000 A 
ATOM      6  C   UNL     1      47.463   6.401  13.502  0.00  0.00    +0.000 A 
ENDROOT
BRANCH   1   8
ATOM      7  C   UNL     1      46.198   4.086  12.733  0.00  0.00    +0.000 C 
ATOM      8  C   UNL     1      45.445   5.366  12.291  0.00  0.00    +0.000 C 
ATOM      9  C   UNL     1      44.009   5.397  12.877  0.00  0.00    +0.000 C 
ATOM     10  C   UNL     1      43.136   4.283  12.309  0.00  0.00    +0.000 C 
ATOM     11  C   UNL     1      43.130   4.292  10.783  0.00  0.00    +0.000 C 
ATOM     12  N   UNL     1      44.491   4.236  10.235  0.00  0.00    +0.000 NA
ATOM     13  C   UNL     1      45.312   5.352  10.736  0.00  0.00    +0.000 C 
BRANCH  12  14
ATOM     14  C   UNL     1      44.487   4.227   8.747  0.00  0.00    +0.000 C 
BRANCH  14  15
ATOM     15  C   UNL     1      45.699   3.599   8.023  0.00  0.00    +0.000 C 
ATOM     16  F   UNL     1      45.422   3.231   6.755  0.00  0.00    +0.000 F 
ATOM     17  F   UNL     1      46.737   4.465   7.977  0.00  0.00    +0.000 F 
ATOM     18  F   UNL     1      46.123   2.493   8.674  0.00  0.00    +0.000 F 
ENDBRANCH  14  15
ENDBRANCH  12  14
ENDBRANCH   1   8
BRANCH   5  19
ATOM     19  C   UNL     1      49.317   7.196  15.030  0.00  0.00    +0.000 C 
BRANCH  19  20
ATOM     20  C   UNL     1      48.944   6.832  16.483  0.00  0.00    +0.000 C 
BRANCH  20  21
ATOM     21  N   UNL     1      48.292   5.521  16.580  0.00  0.00    +0.000 N 
ATOM     22  C   UNL     1      49.221   4.518  16.909  0.00  0.00    +0.000 A 
ATOM     23  C   UNL     1      48.797   3.193  17.048  0.00  0.00    +0.000 A 
ATOM     24  C   UNL     1      49.738   2.214  17.367  0.00  0.00    +0.000 A 
ATOM     25  C   UNL     1      51.073   2.562  17.528  0.00  0.00    +0.000 A 
ATOM     26  C   UNL     1      51.411   3.893  17.365  0.00  0.00    +0.000 A 
ATOM     27  N   UNL     1      50.510   4.863  17.077  0.00  0.00    +0.000 NA
ATOM     28  H   UNL     1      47.865   5.247  15.697  0.00  0.00    +0.000 HD
BRANCH  25  29
ATOM     29  C   UNL     1      52.098   1.522  17.803  0.00  0.00    +0.000 C 
ATOM     30  N   UNL     1      51.647   0.253  18.104  0.00  0.00    +0.000 N 
ATOM     31  O   UNL     1      53.278   1.761  17.753  0.00  0.00    +0.000 OA
ATOM     32  H   UNL     1      50.687  -0.026  18.207  0.00  0.00    +0.000 HD
ATOM     33  H   UNL     1      52.364  -0.430  18.310  0.00  0.00    +0.000 HD
ENDBRANCH  25  29
ENDBRANCH  20  21
ENDBRANCH  19  20
ENDBRANCH   5  19
TORSDOF 7
ENDMDL
MODEL 5
REMARK VINA RESULT:    -7.691      4.033      7.798
REMARK INTER + INTRA:         -11.684
REMARK INTER:                 -10.493
REMARK INTRA:                  -1.192
REMARK UNBOUND:                -0.846
REMARK  Name = 
REMARK  8 active torsions:
REMARK  status: ('A' for Active; 'I' for Inactive)
REMARK    1  A    between atoms: C_1  and  C_2
REMARK    2  A    between atoms: C_2  and  C_3
REMARK    3  A    between atoms: C_7  and  C_8
REMARK    4  A    between atoms: C_8  and  C_9
REMARK    5  A    between atoms: C_9  and  N_10
REMARK    6  A    between atoms: C_14  and  C_15
REMARK    7  A    between atoms: N_24  and  C_25
REMARK    8  A    between atoms: C_25  and  C_26
REMARK                            x       y       z     vdW  Elec       q    Type
REMARK                         _______ _______ _______ _____ _____    ______ ____
ROOT
ATOM      1  C   UNL     1      45.836   7.174  11.950  0.00  0.00    +0.000 A 
ATOM      2  C   UNL     1      44.893   8.201  11.796  0.00  0.00    +0.000 A 
ATOM      3  C   UNL     1      45.233   9.536  11.994  0.00  0.00    +0.000 A 
ATOM      4  C   UNL     1      46.527   9.874  12.384  0.00  0.00    +0.000 A 
ATOM      5  C   UNL     1      47.488   8.876  12.585  0.00  0.00    +0.000 A 
ATOM      6  C   UNL     1      47.133   7.542  12.309  0.00  0.00    +0.000 A 
ENDROOT
BRANCH   1   8
ATOM      7  C   UNL     1      46.562   4.850  12.408  0.00  0.00    +0.000 C 
ATOM      8  C   UNL     1      45.398   5.704  11.844  0.00  0.00    +0.000 C 
ATOM      9  C   UNL     1      44.098   5.482  12.661  0.00  0.00    +0.000 C 
ATOM     10  C   UNL     1      43.569   4.059  12.520  0.00  0.00    +0.000 C 
ATOM     11  C   UNL     1      43.396   3.664  11.055  0.00  0.00    +0.000 C 
ATOM     12  N   UNL     1      44.637   3.850  10.293  0.00  0.00    +0.000 NA
ATOM     13  C   UNL     1      45.109   5.243  10.380  0.00  0.00    +0.000 C 
BRANCH  12  14
ATOM     14  C   UNL     1      44.475   3.449   8.869  0.00  0.00    +0.000 C 
BRANCH  14  15
ATOM     15  C   UNL     1      45.753   3.216   8.033  0.00  0.00    +0.000 C 
ATOM     16  F   UNL     1      46.598   4.268   8.059  0.00  0.00    +0.000 F 
ATOM     17  F   UNL     1      46.435   2.137   8.481  0.00  0.00    +0.000 F 
ATOM     18  F   UNL     1      45.441   2.990   6.737  0.00  0.00    +0.000 F 
ENDBRANCH  14  15
ENDBRANCH  12  14
ENDBRANCH   1   8
BRANCH   5  19
ATOM     19  C   UNL     1      48.859   9.188  13.158  0.00  0.00    +0.000 C 
BRANCH  19  20
ATOM     20  C   UNL     1      49.538   7.966  13.811  0.00  0.00    +0.000 C 
BRANCH  20  21
ATOM     21  N   UNL     1      49.657   8.105  15.267  0.00  0.00    +0.000 N 
ATOM     22  C   UNL     1      49.158   6.967  15.926  0.00  0.00    +0.000 A 
ATOM     23  C   UNL     1      49.179   6.903  17.323  0.00  0.00    +0.000 A 
ATOM     24  C   UNL     1      48.672   5.768  17.954  0.00  0.00    +0.000 A 
ATOM     25  C   UNL     1      48.144   4.731  17.196  0.00  0.00    +0.000 A 
ATOM     26  C   UNL     1      48.153   4.876  15.821  0.00  0.00    +0.000 A 
ATOM     27  N   UNL     1      48.661   5.960  15.187  0.00  0.00    +0.000 NA
ATOM     28  H   UNL     1      49.126   8.901  15.614  0.00  0.00    +0.000 HD
BRANCH  25  29
ATOM     29  C   UNL     1      47.540   3.545  17.854  0.00  0.00    +0.000 C 
ATOM     30  N   UNL     1      48.166   3.061  18.985  0.00  0.00    +0.000 N 
ATOM     31  O   UNL     1      46.536   3.025  17.436  0.00  0.00    +0.000 OA
ATOM     32  H   UNL     1      49.024   3.404  19.380  0.00  0.00    +0.000 HD
ATOM     33  H   UNL     1      47.748   2.239  19.401  0.00  0.00    +0.000 HD
ENDBRANCH  25  29
ENDBRANCH  20  21
ENDBRANCH  19  20
ENDBRANCH   5  19
TORSDOF 7
ENDMDL
MODEL 6
REMARK VINA RESULT:    -7.276      2.504      3.599
REMARK INTER + INTRA:         -11.100
REMARK INTER:                 -10.043
REMARK INTRA:                  -1.057
REMARK UNBOUND:                -0.846
REMARK  Name = 
REMARK  8 active torsions:
REMARK  status: ('A' for Active; 'I' for Inactive)
REMARK    1  A    between atoms: C_1  and  C_2
REMARK    2  A    between atoms: C_2  and  C_3
REMARK    3  A    between atoms: C_7  and  C_8
REMARK    4  A    between atoms: C_8  and  C_9
REMARK    5  A    between atoms: C_9  and  N_10
REMARK    6  A    between atoms: C_14  and  C_15
REMARK    7  A    between atoms: N_24  and  C_25
REMARK    8  A    between atoms: C_25  and  C_26
REMARK                            x       y       z     vdW  Elec       q    Type
REMARK                         _______ _______ _______ _____ _____    ______ ____
ROOT
ATOM      1  C   UNL     1      46.674   8.004  12.729  0.00  0.00    +0.000 A 
ATOM      2  C   UNL     1      46.072   9.035  11.991  0.00  0.00    +0.000 A 
ATOM      3  C   UNL     1      44.820   8.872  11.405  0.00  0.00    +0.000 A 
ATOM      4  C   UNL     1      44.151   7.656  11.517  0.00  0.00    +0.000 A 
ATOM      5  C   UNL     1      44.735   6.590  12.214  0.00  0.00    +0.000 A 
ATOM      6  C   UNL     1      45.969   6.808  12.854  0.00  0.00    +0.000 A 
ENDROOT
BRANCH   1   8
ATOM      7  C   UNL     1      48.935   6.993  12.693  0.00  0.00    +0.000 C 
ATOM      8  C   UNL     1      48.108   8.175  13.259  0.00  0.00    +0.000 C 
ATOM      9  C   UNL     1      48.685   9.534  12.786  0.00  0.00    +0.000 C 
ATOM     10  C   UNL     1      50.075   9.795  13.357  0.00  0.00    +0.000 C 
ATOM     11  C   UNL     1      50.096   9.664  14.877  0.00  0.00    +0.000 C 
ATOM     12  N   UNL     1      49.573   8.365  15.317  0.00  0.00    +0.000 NA
ATOM     13  C   UNL     1      48.204   8.146  14.817  0.00  0.00    +0.000 C 
BRANCH  12  14
ATOM     14  C   UNL     1      49.609   8.229  16.799  0.00  0.00    +0.000 C 
BRANCH  14  15
ATOM     15  C   UNL     1      49.754   6.809  17.392  0.00  0.00    +0.000 C 
ATOM     16  F   UNL     1      48.638   6.384  18.019  0.00  0.00    +0.000 F 
ATOM     17  F   UNL     1      50.044   5.908  16.426  0.00  0.00    +0.000 F 
ATOM     18  F   UNL     1      50.758   6.771  18.297  0.00  0.00    +0.000 F 
ENDBRANCH  14  15
ENDBRANCH  12  14
ENDBRANCH   1   8
BRANCH   5  19
ATOM     19  C   UNL     1      44.113   5.206  12.227  0.00  0.00    +0.000 C 
BRANCH  19  20
ATOM     20  C   UNL     1      43.590   4.759  10.846  0.00  0.00    +0.000 C 
BRANCH  20  21
ATOM     21  N   UNL     1      43.827   3.333  10.594  0.00  0.00    +0.000 N 
ATOM     22  C   UNL     1      44.722   3.150   9.524  0.00  0.00    +0.000 A 
ATOM     23  C   UNL     1      45.077   1.858   9.124  0.00  0.00    +0.000 A 
ATOM     24  C   UNL     1      45.960   1.702   8.057  0.00  0.00    +0.000 A 
ATOM     25  C   UNL     1      46.460   2.820   7.401  0.00  0.00    +0.000 A 
ATOM     26  C   UNL     1      46.051   4.062   7.853  0.00  0.00    +0.000 A 
ATOM     27  N   UNL     1      45.213   4.236   8.902  0.00  0.00    +0.000 NA
ATOM     28  H   UNL     1      42.967   2.847  10.344  0.00  0.00    +0.000 HD
BRANCH  25  29
ATOM     29  C   UNL     1      47.348   2.670   6.220  0.00  0.00    +0.000 C 
ATOM     30  N   UNL     1      48.599   2.127   6.434  0.00  0.00    +0.000 N 
ATOM     31  O   UNL     1      46.998   2.991   5.113  0.00  0.00    +0.000 OA
ATOM     32  H   UNL     1      48.989   1.869   7.324  0.00  0.00    +0.000 HD
ATOM     33  H   UNL     1      49.193   2.057   5.619  0.00  0.00    +0.000 HD
ENDBRANCH  25  29
ENDBRANCH  20  21
ENDBRANCH  19  20
ENDBRANCH   5  19
TORSDOF 7
ENDMDL
MODEL 7
REMARK VINA RESULT:    -7.254      3.342      4.400
REMARK INTER + INTRA:         -11.069
REMARK INTER:                 -10.053
REMARK INTRA:                  -1.016
REMARK UNBOUND:                -0.846
REMARK  Name = 
REMARK  8 active torsions:
REMARK  status: ('A' for Active; 'I' for Inactive)
REMARK    1  A    between atoms: C_1  and  C_2
REMARK    2  A    between atoms: C_2  and  C_3
REMARK    3  A    between atoms: C_7  and  C_8
REMARK    4  A    between atoms: C_8  and  C_9
REMARK    5  A    between atoms: C_9  and  N_10
REMARK    6  A    between atoms: C_14  and  C_15
REMARK    7  A    between atoms: N_24  and  C_25
REMARK    8  A    between atoms: C_25  and  C_26
REMARK                            x       y       z     vdW  Elec       q    Type
REMARK                         _______ _______ _______ _____ _____    ______ ____
ROOT
ATOM      1  C   UNL     1      48.139   7.362  13.786  0.00  0.00    +0.000 A 
ATOM      2  C   UNL     1      48.843   7.549  12.586  0.00  0.00    +0.000 A 
ATOM      3  C   UNL     1      48.240   7.340  11.350  0.00  0.00    +0.000 A 
ATOM      4  C   UNL     1      46.918   6.905  11.285  0.00  0.00    +0.000 A 
ATOM      5  C   UNL     1      46.193   6.670  12.459  0.00  0.00    +0.000 A 
ATOM      6  C   UNL     1      46.808   6.958  13.692  0.00  0.00    +0.000 A 
ENDROOT
BRANCH   1   8
ATOM      7  C   UNL     1      50.377   7.643  14.810  0.00  0.00    +0.000 C 
ATOM      8  C   UNL     1      48.870   7.483  15.134  0.00  0.00    +0.000 C 
ATOM      9  C   UNL     1      48.335   8.713  15.913  0.00  0.00    +0.000 C 
ATOM     10  C   UNL     1      48.964   8.832  17.297  0.00  0.00    +0.000 C 
ATOM     11  C   UNL     1      48.815   7.540  18.097  0.00  0.00    +0.000 C 
ATOM     12  N   UNL     1      49.348   6.384  17.366  0.00  0.00    +0.000 NA
ATOM     13  C   UNL     1      48.691   6.235  16.055  0.00  0.00    +0.000 C 
BRANCH  12  14
ATOM     14  C   UNL     1      49.220   5.127  18.152  0.00  0.00    +0.000 C 
BRANCH  14  15
ATOM     15  C   UNL     1      50.385   4.114  18.092  0.00  0.00    +0.000 C 
ATOM     16  F   UNL     1      51.247   4.362  17.084  0.00  0.00    +0.000 F 
ATOM     17  F   UNL     1      51.094   4.122  19.244  0.00  0.00    +0.000 F 
ATOM     18  F   UNL     1      49.916   2.858  17.913  0.00  0.00    +0.000 F 
ENDBRANCH  14  15
ENDBRANCH  12  14
ENDBRANCH   1   8
BRANCH   5  19
ATOM     19  C   UNL     1      44.808   6.049  12.435  0.00  0.00    +0.000 C 
BRANCH  19  20
ATOM     20  C   UNL     1      44.342   5.655  11.017  0.00  0.00    +0.000 C 
BRANCH  20  21
ATOM     21  N   UNL     1      44.197   4.203  10.861  0.00  0.00    +0.000 N 
ATOM     22  C   UNL     1      44.962   3.732   9.779  0.00  0.00    +0.000 A 
ATOM     23  C   UNL     1      44.959   2.371   9.461  0.00  0.00    +0.000 A 
ATOM     24  C   UNL     1      45.720   1.929   8.380  0.00  0.00    +0.000 A 
ATOM     25  C   UNL     1      46.454   2.839   7.630  0.00  0.00    +0.000 A 
ATOM     26  C   UNL     1      46.396   4.169   8.005  0.00  0.00    +0.000 A 
ATOM     27  N   UNL     1      45.681   4.616   9.065  0.00  0.00    +0.000 NA
ATOM     28  H   UNL     1      43.231   3.939  10.674  0.00  0.00    +0.000 HD
BRANCH  25  29
ATOM     29  C   UNL     1      47.216   2.394   6.435  0.00  0.00    +0.000 C 
ATOM     30  N   UNL     1      47.061   3.127   5.276  0.00  0.00    +0.000 N 
ATOM     31  O   UNL     1      47.955   1.443   6.468  0.00  0.00    +0.000 OA
ATOM     32  H   UNL     1      46.440   3.907   5.147  0.00  0.00    +0.000 HD
ATOM     33  H   UNL     1      47.573   2.791   4.472  0.00  0.00    +0.000 HD
ENDBRANCH  25  29
ENDBRANCH  20  21
ENDBRANCH  19  20
ENDBRANCH   5  19
TORSDOF 7
ENDMDL
MODEL 8
REMARK VINA RESULT:    -7.114      4.497      8.426
REMARK INTER + INTRA:         -10.872
REMARK INTER:                  -9.666
REMARK INTRA:                  -1.206
REMARK UNBOUND:                -0.846
REMARK  Name = 
REMARK  8 active torsions:
REMARK  status: ('A' for Active; 'I' for Inactive)
REMARK    1  A    between atoms: C_1  and  C_2
REMARK    2  A    between atoms: C_2  and  C_3
REMARK    3  A    between atoms: C_7  and  C_8
REMARK    4  A    between atoms: C_8  and  C_9
REMARK    5  A    between atoms: C_9  and  N_10
REMARK    6  A    between atoms: C_14  and  C_15
REMARK    7  A    between atoms: N_24  and  C_25
REMARK    8  A    between atoms: C_25  and  C_26
REMARK                            x       y       z     vdW  Elec       q    Type
REMARK                         _______ _______ _______ _____ _____    ______ ____
ROOT
ATOM      1  C   UNL     1      46.641   7.272  12.102  0.00  0.00    +0.000 A 
ATOM      2  C   UNL     1      46.095   8.564  12.117  0.00  0.00    +0.000 A 
ATOM      3  C   UNL     1      46.904   9.693  12.219  0.00  0.00    +0.000 A 
ATOM      4  C   UNL     1      48.284   9.552  12.341  0.00  0.00    +0.000 A 
ATOM      5  C   UNL     1      48.865   8.278  12.367  0.00  0.00    +0.000 A 
ATOM      6  C   UNL     1      48.028   7.159  12.192  0.00  0.00    +0.000 A 
ENDROOT
BRANCH   1   8
ATOM      7  C   UNL     1      46.471   4.920  12.863  0.00  0.00    +0.000 C 
ATOM      8  C   UNL     1      45.713   6.045  12.111  0.00  0.00    +0.000 C 
ATOM      9  C   UNL     1      44.384   6.396  12.829  0.00  0.00    +0.000 C 
ATOM     10  C   UNL     1      43.390   5.240  12.791  0.00  0.00    +0.000 C 
ATOM     11  C   UNL     1      43.156   4.744  11.366  0.00  0.00    +0.000 C 
ATOM     12  N   UNL     1      44.415   4.387  10.702  0.00  0.00    +0.000 NA
ATOM     13  C   UNL     1      45.348   5.528  10.684  0.00  0.00    +0.000 C 
BRANCH  12  14
ATOM     14  C   UNL     1      44.187   3.887   9.319  0.00  0.00    +0.000 C 
BRANCH  14  15
ATOM     15  C   UNL     1      44.990   2.651   8.855  0.00  0.00    +0.000 C 
ATOM     16  F   UNL     1      44.202   1.638   8.439  0.00  0.00    +0.000 F 
ATOM     17  F   UNL     1      45.818   2.967   7.832  0.00  0.00    +0.000 F 
ATOM     18  F   UNL     1      45.753   2.172   9.862  0.00  0.00    +0.000 F 
ENDBRANCH  14  15
ENDBRANCH  12  14
ENDBRANCH   1   8
BRANCH   5  19
ATOM     19  C   UNL     1      50.342   8.077  12.654  0.00  0.00    +0.000 C 
BRANCH  19  20
ATOM     20  C   UNL     1      50.755   8.533  14.069  0.00  0.00    +0.000 C 
BRANCH  20  21
ATOM     21  N   UNL     1      51.411   7.464  14.831  0.00  0.00    +0.000 N 
ATOM     22  C   UNL     1      50.568   6.976  15.846  0.00  0.00    +0.000 A 
ATOM     23  C   UNL     1      51.009   5.951  16.687  0.00  0.00    +0.000 A 
ATOM     24  C   UNL     1      50.158   5.489  17.691  0.00  0.00    +0.000 A 
ATOM     25  C   UNL     1      48.901   6.057  17.849  0.00  0.00    +0.000 A 
ATOM     26  C   UNL     1      48.544   7.072  16.980  0.00  0.00    +0.000 A 
ATOM     27  N   UNL     1      49.346   7.520  15.985  0.00  0.00    +0.000 NA
ATOM     28  H   UNL     1      52.259   7.793  15.287  0.00  0.00    +0.000 HD
BRANCH  25  29
ATOM     29  C   UNL     1      48.008   5.622  18.954  0.00  0.00    +0.000 C 
ATOM     30  N   UNL     1      46.658   5.534  18.681  0.00  0.00    +0.000 N 
ATOM     31  O   UNL     1      48.435   5.341  20.046  0.00  0.00    +0.000 OA
ATOM     32  H   UNL     1      46.211   5.786  17.816  0.00  0.00    +0.000 HD
ATOM     33  H   UNL     1      46.070   5.259  19.456  0.00  0.00    +0.000 HD
ENDBRANCH  25  29
ENDBRANCH  20  21
ENDBRANCH  19  20
ENDBRANCH   5  19
TORSDOF 7
ENDMDL
MODEL 9
REMARK VINA RESULT:    -6.775      4.094      6.196
REMARK INTER + INTRA:         -10.393
REMARK INTER:                  -9.746
REMARK INTRA:                  -0.647
REMARK UNBOUND:                -0.846
REMARK  Name = 
REMARK  8 active torsions:
REMARK  status: ('A' for Active; 'I' for Inactive)
REMARK    1  A    between atoms: C_1  and  C_2
REMARK    2  A    between atoms: C_2  and  C_3
REMARK    3  A    between atoms: C_7  and  C_8
REMARK    4  A    between atoms: C_8  and  C_9
REMARK    5  A    between atoms: C_9  and  N_10
REMARK    6  A    between atoms: C_14  and  C_15
REMARK    7  A    between atoms: N_24  and  C_25
REMARK    8  A    between atoms: C_25  and  C_26
REMARK                            x       y       z     vdW  Elec       q    Type
REMARK                         _______ _______ _______ _____ _____    ______ ____
ROOT
ATOM      1  C   UNL     1      50.552   7.611  15.133  0.00  0.00    +0.000 A 
ATOM      2  C   UNL     1      51.861   8.002  14.811  0.00  0.00    +0.000 A 
ATOM      3  C   UNL     1      52.181   8.498  13.551  0.00  0.00    +0.000 A 
ATOM      4  C   UNL     1      51.199   8.587  12.567  0.00  0.00    +0.000 A 
ATOM      5  C   UNL     1      49.888   8.173  12.837  0.00  0.00    +0.000 A 
ATOM      6  C   UNL     1      49.580   7.741  14.141  0.00  0.00    +0.000 A 
ENDROOT
BRANCH   1   8
ATOM      7  C   UNL     1      51.460   6.028  16.808  0.00  0.00    +0.000 C 
ATOM      8  C   UNL     1      50.258   6.953  16.492  0.00  0.00    +0.000 C 
ATOM      9  C   UNL     1      50.097   8.046  17.581  0.00  0.00    +0.000 C 
ATOM     10  C   UNL     1      49.717   7.455  18.934  0.00  0.00    +0.000 C 
ATOM     11  C   UNL     1      48.482   6.563  18.834  0.00  0.00    +0.000 C 
ATOM     12  N   UNL     1      48.652   5.514  17.821  0.00  0.00    +0.000 NA
ATOM     13  C   UNL     1      48.954   6.094  16.500  0.00  0.00    +0.000 C 
BRANCH  12  14
ATOM     14  C   UNL     1      47.456   4.632  17.734  0.00  0.00    +0.000 C 
BRANCH  14  15
ATOM     15  C   UNL     1      47.653   3.194  17.204  0.00  0.00    +0.000 C 
ATOM     16  F   UNL     1      46.775   2.315  17.729  0.00  0.00    +0.000 F 
ATOM     17  F   UNL     1      47.516   3.150  15.859  0.00  0.00    +0.000 F 
ATOM     18  F   UNL     1      48.893   2.743  17.501  0.00  0.00    +0.000 F 
ENDBRANCH  14  15
ENDBRANCH  12  14
ENDBRANCH   1   8
BRANCH   5  19
ATOM     19  C   UNL     1      48.830   8.107  11.752  0.00  0.00    +0.000 C 
BRANCH  19  20
ATOM     20  C   UNL     1      47.392   8.258  12.293  0.00  0.00    +0.000 C 
BRANCH  20  21
ATOM     21  N   UNL     1      47.066   7.244  13.302  0.00  0.00    +0.000 N 
ATOM     22  C   UNL     1      46.340   6.181  12.735  0.00  0.00    +0.000 A 
ATOM     23  C   UNL     1      45.932   5.110  13.536  0.00  0.00    +0.000 A 
ATOM     24  C   UNL     1      45.207   4.071  12.953  0.00  0.00    +0.000 A 
ATOM     25  C   UNL     1      44.891   4.119  11.601  0.00  0.00    +0.000 A 
ATOM     26  C   UNL     1      45.326   5.218  10.882  0.00  0.00    +0.000 A 
ATOM     27  N   UNL     1      46.050   6.226  11.424  0.00  0.00    +0.000 NA
ATOM     28  H   UNL     1      46.490   7.628  14.048  0.00  0.00    +0.000 HD
BRANCH  25  29
ATOM     29  C   UNL     1      44.064   3.054  10.979  0.00  0.00    +0.000 C 
ATOM     30  N   UNL     1      44.626   2.339   9.942  0.00  0.00    +0.000 N 
ATOM     31  O   UNL     1      42.950   2.804  11.366  0.00  0.00    +0.000 OA
ATOM     32  H   UNL     1      45.528   2.504   9.529  0.00  0.00    +0.000 HD
ATOM     33  H   UNL     1      44.035   1.636   9.520  0.00  0.00    +0.000 HD
ENDBRANCH  25  29
ENDBRANCH  20  21
ENDBRANCH  19  20
ENDBRANCH   5  19
TORSDOF 7
ENDMDL
