MODEL 1
REMARK VINA RESULT:    -8.996      0.000      0.000
REMARK INTER + INTRA:         -11.042
REMARK INTER:                 -10.573
REMARK INTRA:                  -0.468
REMARK UNBOUND:                -0.468
REMARK  Name = 
REMARK  3 active torsions:
REMARK  status: ('A' for Active; 'I' for Inactive)
REMARK    1  A    between atoms: C_2  and  C_4
REMARK    2  A    between atoms: N_8  and  C_9
REMARK    3  A    between atoms: C_9  and  C_10
REMARK                            x       y       z     vdW  Elec       q    Type
REMARK                         _______ _______ _______ _____ _____    ______ ____
ROOT
ATOM      1  C   UNL     1      46.381   2.298   7.706  0.00  0.00    +0.000 A 
ATOM      2  C   UNL     1      45.606   1.886   8.761  0.00  0.00    +0.000 A 
ATOM      3  N   UNL     1      44.755   2.700   9.417  0.00  0.00    +0.000 NA
ATOM      4  C   UNL     1      44.680   3.978   9.014  0.00  0.00    +0.000 A 
ATOM      5  N   UNL     1      43.794   4.830   9.637  0.00  0.00    +0.000 N 
ATOM      6  N   UNL     1      45.401   4.476   7.999  0.00  0.00    +0.000 NA
ATOM      7  C   UNL     1      46.249   3.624   7.369  0.00  0.00    +0.000 A 
ATOM      8  H   UNL     1      43.986   5.782   9.352  0.00  0.00    +0.000 HD
ENDROOT
BRANCH   1  10
ATOM      9  N   UNL     1      48.491   1.984   6.548  0.00  0.00    +0.000 N 
ATOM     10  C   UNL     1      47.336   1.423   7.015  0.00  0.00    +0.000 C 
ATOM     11  O   UNL     1      47.109   0.229   6.880  0.00  0.00    +0.000 OA
ATOM     12  H   UNL     1      49.165   1.347   6.141  0.00  0.00    +0.000 HD
ATOM     13  H   UNL     1      48.837   2.889   6.841  0.00  0.00    +0.000 HD
ENDBRANCH   1  10
BRANCH   5  14
ATOM     14  C   UNL     1      43.632   4.624  11.060  0.00  0.00    +0.000 C 
BRANCH  14  15
ATOM     15  C   UNL     1      44.544   5.572  11.793  0.00  0.00    +0.000 A 
ATOM     16  C   UNL     1      44.481   6.948  11.618  0.00  0.00    +0.000 A 
ATOM     17  C   UNL     1      45.368   7.726  12.336  0.00  0.00    +0.000 A 
ATOM     18  N   UNL     1      46.302   7.231  13.183  0.00  0.00    +0.000 NA
ATOM     19  C   UNL     1      46.387   5.893  13.351  0.00  0.00    +0.000 A 
ATOM     20  N   UNL     1      47.374   5.385  14.163  0.00  0.00    +0.000 N 
ATOM     21  C   UNL     1      47.228   4.140  14.924  0.00  0.00    +0.000 C 
ATOM     22  C   UNL     1      47.306   4.421  16.434  0.00  0.00    +0.000 C 
ATOM     23  O   UNL     1      48.488   5.157  16.782  0.00  0.00    +0.000 OA
ATOM     24  C   UNL     1      48.501   6.423  16.097  0.00  0.00    +0.000 C 
ATOM     25  C   UNL     1      48.496   6.236  14.574  0.00  0.00    +0.000 C 
ATOM     26  C   UNL     1      45.519   5.055  12.659  0.00  0.00    +0.000 A 
ENDBRANCH  14  15
ENDBRANCH   5  14
TORSDOF 3
ENDMDL
MODEL 2
REMARK VINA RESULT:    -8.950      1.660      2.596
REMARK INTER + INTRA:         -10.988
REMARK INTER:                 -10.636
REMARK INTRA:                  -0.353
REMARK UNBOUND:                -0.468
REMARK  Name = 
REMARK  3 active torsions:
REMARK  status: ('A' for Active; 'I' for Inactive)
REMARK    1  A    between atoms: C_2  and  C_4
REMARK    2  A    between atoms: N_8  and  C_9
REMARK    3  A    between atoms: C_9  and  C_10
REMARK                            x       y       z     vdW  Elec       q    Type
REMARK                         _______ _______ _______ _____ _____    ______ ____
ROOT
ATOM      1  C   UNL     1      46.529   2.551   7.618  0.00  0.00    +0.000 A 
ATOM      2  C   UNL     1      45.639   2.020   8.517  0.00  0.00    +0.000 A 
ATOM      3  N   UNL     1      44.816   2.771   9.277  0.00  0.00    +0.000 NA
ATOM      4  C   UNL     1      44.891   4.105   9.144  0.00  0.00    +0.000 A 
ATOM      5  N   UNL     1      44.039   4.903   9.877  0.00  0.00    +0.000 N 
ATOM      6  N   UNL     1      45.731   4.718   8.298  0.00  0.00    +0.000 NA
ATOM      7  C   UNL     1      46.545   3.925   7.556  0.00  0.00    +0.000 A 
ATOM      8  H   UNL     1      44.339   5.867   9.808  0.00  0.00    +0.000 HD
ENDROOT
BRANCH   1  10
ATOM      9  N   UNL     1      48.599   2.329   6.371  0.00  0.00    +0.000 N 
ATOM     10  C   UNL     1      47.452   1.737   6.818  0.00  0.00    +0.000 C 
ATOM     11  O   UNL     1      47.205   0.564   6.577  0.00  0.00    +0.000 OA
ATOM     12  H   UNL     1      49.253   1.727   5.884  0.00  0.00    +0.000 HD
ATOM     13  H   UNL     1      48.966   3.198   6.738  0.00  0.00    +0.000 HD
ENDBRANCH   1  10
BRANCH   5  14
ATOM     14  C   UNL     1      43.747   4.434  11.215  0.00  0.00    +0.000 C 
BRANCH  14  15
ATOM     15  C   UNL     1      45.002   4.521  12.042  0.00  0.00    +0.000 A 
ATOM     16  C   UNL     1      45.550   3.415  12.678  0.00  0.00    +0.000 A 
ATOM     17  C   UNL     1      46.702   3.606  13.417  0.00  0.00    +0.000 A 
ATOM     18  N   UNL     1      47.316   4.803  13.573  0.00  0.00    +0.000 NA
ATOM     19  C   UNL     1      46.785   5.892  12.975  0.00  0.00    +0.000 A 
ATOM     20  N   UNL     1      47.372   7.119  13.181  0.00  0.00    +0.000 N 
ATOM     21  C   UNL     1      47.349   8.199  12.190  0.00  0.00    +0.000 C 
ATOM     22  C   UNL     1      48.778   8.538  11.732  0.00  0.00    +0.000 C 
ATOM     23  O   UNL     1      49.645   8.813  12.843  0.00  0.00    +0.000 OA
ATOM     24  C   UNL     1      49.720   7.664  13.707  0.00  0.00    +0.000 C 
ATOM     25  C   UNL     1      48.341   7.294  14.268  0.00  0.00    +0.000 C 
ATOM     26  C   UNL     1      45.628   5.765  12.213  0.00  0.00    +0.000 A 
ENDBRANCH  14  15
ENDBRANCH   5  14
TORSDOF 3
ENDMDL
MODEL 3
REMARK VINA RESULT:    -7.675      1.779      2.043
REMARK INTER + INTRA:          -9.489
REMARK INTER:                  -9.097
REMARK INTRA:                  -0.392
REMARK UNBOUND:                -0.468
REMARK  Name = 
REMARK  3 active torsions:
REMARK  status: ('A' for Active; 'I' for Inactive)
REMARK    1  A    between atoms: C_2  and  C_4
REMARK    2  A    between atoms: N_8  and  C_9
REMARK    3  A    between atoms: C_9  and  C_10
REMARK                            x       y       z     vdW  Elec       q    Type
REMARK                         _______ _______ _______ _____ _____    ______ ____
ROOT
ATOM      1  C   UNL     1      46.249   2.066   7.931  0.00  0.00    +0.000 A 
ATOM      2  C   UNL     1      45.630   1.925   9.148  0.00  0.00    +0.000 A 
ATOM      3  N   UNL     1      44.905   2.902   9.728  0.00  0.00    +0.000 NA
ATOM      4  C   UNL     1      44.800   4.071   9.075  0.00  0.00    +0.000 A 
ATOM      5  N   UNL     1      44.036   5.080   9.620  0.00  0.00    +0.000 N 
ATOM      6  N   UNL     1      45.374   4.308   7.887  0.00  0.00    +0.000 NA
ATOM      7  C   UNL     1      46.099   3.299   7.341  0.00  0.00    +0.000 A 
ATOM      8  H   UNL     1      44.206   5.940   9.115  0.00  0.00    +0.000 HD
ENDROOT
BRANCH   1  10
ATOM      9  N   UNL     1      46.771  -0.283   7.612  0.00  0.00    +0.000 N 
ATOM     10  C   UNL     1      47.071   1.017   7.316  0.00  0.00    +0.000 C 
ATOM     11  O   UNL     1      47.983   1.301   6.552  0.00  0.00    +0.000 OA
ATOM     12  H   UNL     1      47.305  -0.989   7.119  0.00  0.00    +0.000 HD
ATOM     13  H   UNL     1      45.897  -0.579   8.027  0.00  0.00    +0.000 HD
ENDBRANCH   1  10
BRANCH   5  14
ATOM     14  C   UNL     1      44.082   5.183  11.063  0.00  0.00    +0.000 C 
BRANCH  14  15
ATOM     15  C   UNL     1      44.739   6.487  11.434  0.00  0.00    +0.000 A 
ATOM     16  C   UNL     1      44.102   7.710  11.278  0.00  0.00    +0.000 A 
ATOM     17  C   UNL     1      44.797   8.846  11.645  0.00  0.00    +0.000 A 
ATOM     18  N   UNL     1      46.062   8.841  12.129  0.00  0.00    +0.000 NA
ATOM     19  C   UNL     1      46.702   7.659  12.270  0.00  0.00    +0.000 A 
ATOM     20  N   UNL     1      48.008   7.656  12.703  0.00  0.00    +0.000 N 
ATOM     21  C   UNL     1      48.595   6.559  13.479  0.00  0.00    +0.000 C 
ATOM     22  C   UNL     1      49.023   7.055  14.871  0.00  0.00    +0.000 C 
ATOM     23  O   UNL     1      49.877   8.207  14.790  0.00  0.00    +0.000 OA
ATOM     24  C   UNL     1      49.189   9.285  14.129  0.00  0.00    +0.000 C 
ATOM     25  C   UNL     1      48.784   8.901  12.701  0.00  0.00    +0.000 C 
ATOM     26  C   UNL     1      46.054   6.479  11.922  0.00  0.00    +0.000 A 
ENDBRANCH  14  15
ENDBRANCH   5  14
TORSDOF 3
ENDMDL
MODEL 4
REMARK VINA RESULT:    -7.035      3.454      7.755
REMARK INTER + INTRA:          -8.737
REMARK INTER:                  -8.358
REMARK INTRA:                  -0.379
REMARK UNBOUND:                -0.468
REMARK  Name = 
REMARK  3 active torsions:
REMARK  status: ('A' for Active; 'I' for Inactive)
REMARK    1  A    between atoms: C_2  and  C_4
REMARK    2  A    between atoms: N_8  and  C_9
REMARK    3  A    between atoms: C_9  and  C_10
REMARK                            x       y       z     vdW  Elec       q    Type
REMARK                         _______ _______ _______ _____ _____    ______ ____
ROOT
ATOM      1  C   UNL     1      50.886   2.518  17.367  0.00  0.00    +0.000 A 
ATOM      2  C   UNL     1      51.060   3.878  17.408  0.00  0.00    +0.000 A 
ATOM      3  N   UNL     1      50.116   4.758  17.017  0.00  0.00    +0.000 NA
ATOM      4  C   UNL     1      48.956   4.263  16.556  0.00  0.00    +0.000 A 
ATOM      5  N   UNL     1      47.954   5.132  16.182  0.00  0.00    +0.000 N 
ATOM      6  N   UNL     1      48.695   2.951  16.471  0.00  0.00    +0.000 NA
ATOM      7  C   UNL     1      49.674   2.100  16.871  0.00  0.00    +0.000 A 
ATOM      8  H   UNL     1      47.232   4.621  15.692  0.00  0.00    +0.000 HD
ENDROOT
BRANCH   1  10
ATOM      9  N   UNL     1      51.533   0.296  18.100  0.00  0.00    +0.000 N 
ATOM     10  C   UNL     1      51.927   1.559  17.756  0.00  0.00    +0.000 C 
ATOM     11  O   UNL     1      53.107   1.879  17.755  0.00  0.00    +0.000 OA
ATOM     12  H   UNL     1      52.274  -0.366  18.294  0.00  0.00    +0.000 HD
ATOM     13  H   UNL     1      50.622  -0.088  17.886  0.00  0.00    +0.000 HD
ENDBRANCH   1  10
BRANCH   5  14
ATOM     14  C   UNL     1      48.398   6.353  15.544  0.00  0.00    +0.000 C 
BRANCH  14  15
ATOM     15  C   UNL     1      47.844   6.397  14.145  0.00  0.00    +0.000 A 
ATOM     16  C   UNL     1      48.527   6.992  13.093  0.00  0.00    +0.000 A 
ATOM     17  C   UNL     1      47.925   6.981  11.850  0.00  0.00    +0.000 A 
ATOM     18  N   UNL     1      46.708   6.443  11.598  0.00  0.00    +0.000 NA
ATOM     19  C   UNL     1      46.023   5.875  12.615  0.00  0.00    +0.000 A 
ATOM     20  N   UNL     1      44.761   5.383  12.375  0.00  0.00    +0.000 N 
ATOM     21  C   UNL     1      44.187   4.249  13.108  0.00  0.00    +0.000 C 
ATOM     22  C   UNL     1      43.907   3.078  12.151  0.00  0.00    +0.000 C 
ATOM     23  O   UNL     1      43.109   3.483  11.027  0.00  0.00    +0.000 OA
ATOM     24  C   UNL     1      43.792   4.509  10.282  0.00  0.00    +0.000 C 
ATOM     25  C   UNL     1      44.052   5.750  11.145  0.00  0.00    +0.000 C 
ATOM     26  C   UNL     1      46.577   5.851  13.891  0.00  0.00    +0.000 A 
ENDBRANCH  14  15
ENDBRANCH   5  14
TORSDOF 3
ENDMDL
MODEL 5
REMARK VINA RESULT:    -6.570      3.470      8.123
REMARK INTER + INTRA:          -8.190
REMARK INTER:                  -7.704
REMARK INTRA:                  -0.487
REMARK UNBOUND:                -0.468
REMARK  Name = 
REMARK  3 active torsions:
REMARK  status: ('A' for Active; 'I' for Inactive)
REMARK    1  A    between atoms: C_2  and  C_4
REMARK    2  A    between atoms: N_8  and  C_9
REMARK    3  A    between atoms: C_9  and  C_10
REMARK                            x       y       z     vdW  Elec       q    Type
REMARK                         _______ _______ _______ _____ _____    ______ ____
ROOT
ATOM      1  C   UNL     1      48.548   5.928  18.219  0.00  0.00    +0.000 A 
ATOM      2  C   UNL     1      48.990   5.226  17.126  0.00  0.00    +0.000 A 
ATOM      3  N   UNL     1      49.316   5.808  15.954  0.00  0.00    +0.000 NA
ATOM      4  C   UNL     1      49.188   7.141  15.864  0.00  0.00    +0.000 A 
ATOM      5  N   UNL     1      49.547   7.775  14.694  0.00  0.00    +0.000 N 
ATOM      6  N   UNL     1      48.758   7.912  16.873  0.00  0.00    +0.000 NA
ATOM      7  C   UNL     1      48.435   7.286  18.033  0.00  0.00    +0.000 A 
ATOM      8  H   UNL     1      49.222   8.733  14.717  0.00  0.00    +0.000 HD
ENDROOT
BRANCH   1  10
ATOM      9  N   UNL     1      48.482   3.978  19.663  0.00  0.00    +0.000 N 
ATOM     10  C   UNL     1      48.155   5.292  19.482  0.00  0.00    +0.000 C 
ATOM     11  O   UNL     1      47.570   5.927  20.349  0.00  0.00    +0.000 OA
ATOM     12  H   UNL     1      48.265   3.584  20.570  0.00  0.00    +0.000 HD
ATOM     13  H   UNL     1      49.164   3.484  19.102  0.00  0.00    +0.000 HD
ENDBRANCH   1  10
BRANCH   5  14
ATOM     14  C   UNL     1      49.256   7.045  13.478  0.00  0.00    +0.000 C 
BRANCH  14  15
ATOM     15  C   UNL     1      47.790   7.193  13.165  0.00  0.00    +0.000 A 
ATOM     16  C   UNL     1      47.190   8.432  12.987  0.00  0.00    +0.000 A 
ATOM     17  C   UNL     1      45.837   8.453  12.708  0.00  0.00    +0.000 A 
ATOM     18  N   UNL     1      45.061   7.347  12.615  0.00  0.00    +0.000 NA
ATOM     19  C   UNL     1      45.627   6.135  12.803  0.00  0.00    +0.000 A 
ATOM     20  N   UNL     1      44.830   5.014  12.769  0.00  0.00    +0.000 N 
ATOM     21  C   UNL     1      45.308   3.700  12.328  0.00  0.00    +0.000 C 
ATOM     22  C   UNL     1      44.546   3.245  11.072  0.00  0.00    +0.000 C 
ATOM     23  O   UNL     1      43.123   3.291  11.262  0.00  0.00    +0.000 OA
ATOM     24  C   UNL     1      42.710   4.636  11.567  0.00  0.00    +0.000 C 
ATOM     25  C   UNL     1      43.372   5.150  12.851  0.00  0.00    +0.000 C 
ATOM     26  C   UNL     1      46.987   6.045  13.082  0.00  0.00    +0.000 A 
ENDBRANCH  14  15
ENDBRANCH   5  14
TORSDOF 3
ENDMDL
MODEL 6
REMARK VINA RESULT:    -6.200      2.998      5.521
REMARK INTER + INTRA:          -7.755
REMARK INTER:                  -7.449
REMARK INTRA:                  -0.307
REMARK UNBOUND:                -0.468
REMARK  Name = 
REMARK  3 active torsions:
REMARK  status: ('A' for Active; 'I' for Inactive)
REMARK    1  A    between atoms: C_2  and  C_4
REMARK    2  A    between atoms: N_8  and  C_9
REMARK    3  A    between atoms: C_9  and  C_10
REMARK                            x       y       z     vdW  Elec       q    Type
REMARK                         _______ _______ _______ _____ _____    ______ ____
ROOT
ATOM      1  C   UNL     1      45.486   4.807  10.823  0.00  0.00    +0.000 A 
ATOM      2  C   UNL     1      45.351   3.730  11.661  0.00  0.00    +0.000 A 
ATOM      3  N   UNL     1      45.732   3.746  12.955  0.00  0.00    +0.000 NA
ATOM      4  C   UNL     1      46.280   4.876  13.429  0.00  0.00    +0.000 A 
ATOM      5  N   UNL     1      46.648   4.941  14.756  0.00  0.00    +0.000 N 
ATOM      6  N   UNL     1      46.461   5.977  12.687  0.00  0.00    +0.000 NA
ATOM      7  C   UNL     1      46.068   5.917  11.389  0.00  0.00    +0.000 A 
ATOM      8  H   UNL     1      47.205   5.772  14.909  0.00  0.00    +0.000 HD
ENDROOT
BRANCH   1  10
ATOM      9  N   UNL     1      43.832   4.398   9.094  0.00  0.00    +0.000 N 
ATOM     10  C   UNL     1      45.107   4.780   9.405  0.00  0.00    +0.000 C 
ATOM     11  O   UNL     1      45.904   5.104   8.536  0.00  0.00    +0.000 OA
ATOM     12  H   UNL     1      43.574   4.458   8.116  0.00  0.00    +0.000 HD
ATOM     13  H   UNL     1      43.076   4.361   9.764  0.00  0.00    +0.000 HD
ENDBRANCH   1  10
BRANCH   5  14
ATOM     14  C   UNL     1      47.185   3.717  15.311  0.00  0.00    +0.000 C 
BRANCH  14  15
ATOM     15  C   UNL     1      47.754   4.013  16.674  0.00  0.00    +0.000 A 
ATOM     16  C   UNL     1      48.119   3.010  17.561  0.00  0.00    +0.000 A 
ATOM     17  C   UNL     1      48.626   3.392  18.787  0.00  0.00    +0.000 A 
ATOM     18  N   UNL     1      48.773   4.679  19.183  0.00  0.00    +0.000 NA
ATOM     19  C   UNL     1      48.406   5.667  18.338  0.00  0.00    +0.000 A 
ATOM     20  N   UNL     1      48.496   6.973  18.760  0.00  0.00    +0.000 N 
ATOM     21  C   UNL     1      48.755   8.096  17.853  0.00  0.00    +0.000 C 
ATOM     22  C   UNL     1      50.087   8.777  18.208  0.00  0.00    +0.000 C 
ATOM     23  O   UNL     1      50.147   9.149  19.593  0.00  0.00    +0.000 OA
ATOM     24  C   UNL     1      50.014   7.980  20.423  0.00  0.00    +0.000 C 
ATOM     25  C   UNL     1      48.674   7.272  20.185  0.00  0.00    +0.000 C 
ATOM     26  C   UNL     1      47.892   5.347  17.085  0.00  0.00    +0.000 A 
ENDBRANCH  14  15
ENDBRANCH   5  14
TORSDOF 3
ENDMDL
MODEL 7
REMARK VINA RESULT:    -6.137      3.652      6.365
REMARK INTER + INTRA:          -7.682
REMARK INTER:                  -7.423
REMARK INTRA:                  -0.259
REMARK UNBOUND:                -0.468
REMARK  Name = 
REMARK  3 active torsions:
REMARK  status: ('A' for Active; 'I' for Inactive)
REMARK    1  A    between atoms: C_2  and  C_4
REMARK    2  A    between atoms: N_8  and  C_9
REMARK    3  A    between atoms: C_9  and  C_10
REMARK                            x       y       z     vdW  Elec       q    Type
REMARK                         _______ _______ _______ _____ _____    ______ ____
ROOT
ATOM      1  C   UNL     1      44.456   4.982  11.905  0.00  0.00    +0.000 A 
ATOM      2  C   UNL     1      45.112   5.795  12.795  0.00  0.00    +0.000 A 
ATOM      3  N   UNL     1      45.990   5.336  13.709  0.00  0.00    +0.000 NA
ATOM      4  C   UNL     1      46.216   4.013  13.746  0.00  0.00    +0.000 A 
ATOM      5  N   UNL     1      47.135   3.512  14.643  0.00  0.00    +0.000 N 
ATOM      6  N   UNL     1      45.619   3.138  12.925  0.00  0.00    +0.000 NA
ATOM      7  C   UNL     1      44.738   3.641  12.023  0.00  0.00    +0.000 A 
ATOM      8  H   UNL     1      47.056   2.503  14.677  0.00  0.00    +0.000 HD
ENDROOT
BRANCH   1  10
ATOM      9  N   UNL     1      42.728   6.569  11.281  0.00  0.00    +0.000 N 
ATOM     10  C   UNL     1      43.471   5.475  10.935  0.00  0.00    +0.000 C 
ATOM     11  O   UNL     1      43.334   4.931   9.848  0.00  0.00    +0.000 OA
ATOM     12  H   UNL     1      42.109   6.933  10.567  0.00  0.00    +0.000 HD
ATOM     13  H   UNL     1      42.965   7.193  12.041  0.00  0.00    +0.000 HD
ENDBRANCH   1  10
BRANCH   5  14
ATOM     14  C   UNL     1      47.177   4.179  15.927  0.00  0.00    +0.000 C 
BRANCH  14  15
ATOM     15  C   UNL     1      48.470   3.827  16.613  0.00  0.00    +0.000 A 
ATOM     16  C   UNL     1      48.940   2.523  16.689  0.00  0.00    +0.000 A 
ATOM     17  C   UNL     1      50.136   2.310  17.346  0.00  0.00    +0.000 A 
ATOM     18  N   UNL     1      50.866   3.288  17.934  0.00  0.00    +0.000 NA
ATOM     19  C   UNL     1      50.414   4.560  17.884  0.00  0.00    +0.000 A 
ATOM     20  N   UNL     1      51.122   5.545  18.532  0.00  0.00    +0.000 N 
ATOM     21  C   UNL     1      51.156   6.940  18.081  0.00  0.00    +0.000 C 
ATOM     22  C   UNL     1      52.588   7.343  17.693  0.00  0.00    +0.000 C 
ATOM     23  O   UNL     1      53.526   7.069  18.744  0.00  0.00    +0.000 OA
ATOM     24  C   UNL     1      53.531   5.662  19.047  0.00  0.00    +0.000 C 
ATOM     25  C   UNL     1      52.150   5.184  19.513  0.00  0.00    +0.000 C 
ATOM     26  C   UNL     1      49.217   4.840  17.232  0.00  0.00    +0.000 A 
ENDBRANCH  14  15
ENDBRANCH   5  14
TORSDOF 3
ENDMDL
MODEL 8
REMARK VINA RESULT:    -6.023      3.804      6.036
REMARK INTER + INTRA:          -7.548
REMARK INTER:                  -7.297
REMARK INTRA:                  -0.251
REMARK UNBOUND:                -0.468
REMARK  Name = 
REMARK  3 active torsions:
REMARK  status: ('A' for Active; 'I' for Inactive)
REMARK    1  A    between atoms: C_2  and  C_4
REMARK    2  A    between atoms: N_8  and  C_9
REMARK    3  A    between atoms: C_9  and  C_10
REMARK                            x       y       z     vdW  Elec       q    Type
REMARK                         _______ _______ _______ _____ _____    ______ ____
ROOT
ATOM      1  C   UNL     1      45.227   4.695  11.467  0.00  0.00    +0.000 A 
ATOM      2  C   UNL     1      45.115   3.747  12.453  0.00  0.00    +0.000 A 
ATOM      3  N   UNL     1      45.681   3.874  13.670  0.00  0.00    +0.000 NA
ATOM      4  C   UNL     1      46.397   4.983  13.912  0.00  0.00    +0.000 A 
ATOM      5  N   UNL     1      46.960   5.164  15.157  0.00  0.00    +0.000 N 
ATOM      6  N   UNL     1      46.571   5.961  13.011  0.00  0.00    +0.000 NA
ATOM      7  C   UNL     1      45.988   5.792  11.798  0.00  0.00    +0.000 A 
ATOM      8  H   UNL     1      47.609   5.939  15.123  0.00  0.00    +0.000 HD
ENDROOT
BRANCH   1  10
ATOM      9  N   UNL     1      45.304   5.113   9.077  0.00  0.00    +0.000 N 
ATOM     10  C   UNL     1      44.644   4.542  10.129  0.00  0.00    +0.000 C 
ATOM     11  O   UNL     1      43.610   3.910   9.964  0.00  0.00    +0.000 OA
ATOM     12  H   UNL     1      44.921   4.931   8.157  0.00  0.00    +0.000 HD
ATOM     13  H   UNL     1      46.266   5.425   9.118  0.00  0.00    +0.000 HD
ENDBRANCH   1  10
BRANCH   5  14
ATOM     14  C   UNL     1      47.454   3.962  15.795  0.00  0.00    +0.000 C 
BRANCH  14  15
ATOM     15  C   UNL     1      48.114   4.340  17.094  0.00  0.00    +0.000 A 
ATOM     16  C   UNL     1      47.396   4.825  18.179  0.00  0.00    +0.000 A 
ATOM     17  C   UNL     1      48.101   5.147  19.322  0.00  0.00    +0.000 A 
ATOM     18  N   UNL     1      49.445   5.035  19.443  0.00  0.00    +0.000 NA
ATOM     19  C   UNL     1      50.160   4.581  18.391  0.00  0.00    +0.000 A 
ATOM     20  N   UNL     1      51.531   4.525  18.491  0.00  0.00    +0.000 N 
ATOM     21  C   UNL     1      52.350   3.537  17.780  0.00  0.00    +0.000 C 
ATOM     22  C   UNL     1      53.086   2.630  18.781  0.00  0.00    +0.000 C 
ATOM     23  O   UNL     1      53.832   3.390  19.745  0.00  0.00    +0.000 OA
ATOM     24  C   UNL     1      52.946   4.244  20.492  0.00  0.00    +0.000 C 
ATOM     25  C   UNL     1      52.217   5.235  19.576  0.00  0.00    +0.000 C 
ATOM     26  C   UNL     1      49.508   4.236  17.212  0.00  0.00    +0.000 A 
ENDBRANCH  14  15
ENDBRANCH   5  14
TORSDOF 3
ENDMDL
