MODEL 1
REMARK VINA RESULT:    -9.320      0.000      0.000
REMARK INTER + INTRA:         -12.534
REMARK INTER:                 -11.772
REMARK INTRA:                  -0.763
REMARK UNBOUND:                -0.763
REMARK  Name = 
REMARK  5 active torsions:
REMARK  status: ('A' for Active; 'I' for Inactive)
REMARK    1  A    between atoms: C_2  and  C_4
REMARK    2  A    between atoms: N_8  and  C_9
REMARK    3  A    between atoms: C_9  and  C_10
REMARK    4  A    between atoms: C_14  and  C_15
REMARK    5  A    between atoms: C_19  and  O_20
REMARK                            x       y       z     vdW  Elec       q    Type
REMARK                         _______ _______ _______ _____ _____    ______ ____
ROOT
ATOM      1  C   UNL     1      44.167   4.883  11.497  0.00  0.00    +0.000 C 
ATOM      2  C   UNL     1      42.895   4.909  12.336  0.00  0.00    +0.000 C 
ATOM      3  C   UNL     1      43.018   5.810  11.153  0.00  0.00    +0.000 C 
ENDROOT
BRANCH   1   8
ATOM      4  C   UNL     1      46.573   2.703   7.394  0.00  0.00    +0.000 A 
ATOM      5  C   UNL     1      46.400   4.048   7.718  0.00  0.00    +0.000 A 
ATOM      6  C   UNL     1      45.662   4.385   8.854  0.00  0.00    +0.000 A 
ATOM      7  C   UNL     1      45.157   3.380   9.669  0.00  0.00    +0.000 A 
ATOM      8  N   UNL     1      44.393   3.613  10.805  0.00  0.00    +0.000 N 
ATOM      9  N   UNL     1      45.332   2.074   9.363  0.00  0.00    +0.000 NA
ATOM     10  C   UNL     1      46.005   1.762   8.226  0.00  0.00    +0.000 A 
ATOM     11  H   UNL     1      44.320   2.745  11.327  0.00  0.00    +0.000 HD
BRANCH   4  13
ATOM     12  N   UNL     1      47.083   3.013   5.044  0.00  0.00    +0.000 N 
ATOM     13  C   UNL     1      47.292   2.266   6.175  0.00  0.00    +0.000 C 
ATOM     14  O   UNL     1      48.047   1.306   6.182  0.00  0.00    +0.000 OA
ATOM     15  H   UNL     1      47.619   2.759   4.222  0.00  0.00    +0.000 HD
ATOM     16  H   UNL     1      46.673   3.933   5.070  0.00  0.00    +0.000 HD
ENDBRANCH   4  13
ENDBRANCH   1   8
BRANCH   1  17
ATOM     17  C   UNL     1      45.440   5.483  12.073  0.00  0.00    +0.000 A 
ATOM     18  C   UNL     1      46.035   6.620  11.509  0.00  0.00    +0.000 A 
ATOM     19  C   UNL     1      47.111   7.252  12.125  0.00  0.00    +0.000 A 
ATOM     20  C   UNL     1      47.609   6.764  13.334  0.00  0.00    +0.000 A 
ATOM     21  C   UNL     1      47.060   5.623  13.940  0.00  0.00    +0.000 A 
ATOM     22  C   UNL     1      46.000   4.988  13.266  0.00  0.00    +0.000 A 
BRANCH  21  23
ATOM     23  C   UNL     1      47.511   5.154  15.266  0.00  0.00    +0.000 A 
ATOM     24  C   UNL     1      48.525   5.808  15.974  0.00  0.00    +0.000 A 
ATOM     25  N   UNL     1      48.966   5.469  17.212  0.00  0.00    +0.000 NA
ATOM     26  C   UNL     1      48.354   4.420  17.798  0.00  0.00    +0.000 A 
ATOM     27  C   UNL     1      47.335   3.701  17.198  0.00  0.00    +0.000 A 
ATOM     28  C   UNL     1      46.919   4.064  15.923  0.00  0.00    +0.000 A 
BRANCH  27  29
ATOM     29  O   UNL     1      46.706   2.658  17.808  0.00  0.00    +0.000 OA
ATOM     30  H   UNL     1      47.182   1.835  17.600  0.00  0.00    +0.000 HD
ENDBRANCH  27  29
ENDBRANCH  21  23
ENDBRANCH   1  17
TORSDOF 5
ENDMDL
MODEL 2
REMARK VINA RESULT:    -8.723      2.863      4.068
REMARK INTER + INTRA:         -11.781
REMARK INTER:                 -10.730
REMARK INTRA:                  -1.051
REMARK UNBOUND:                -0.763
REMARK  Name = 
REMARK  5 active torsions:
REMARK  status: ('A' for Active; 'I' for Inactive)
REMARK    1  A    between atoms: C_2  and  C_4
REMARK    2  A    between atoms: N_8  and  C_9
REMARK    3  A    between atoms: C_9  and  C_10
REMARK    4  A    between atoms: C_14  and  C_15
REMARK    5  A    between atoms: C_19  and  O_20
REMARK                            x       y       z     vdW  Elec       q    Type
REMARK                         _______ _______ _______ _____ _____    ______ ____
ROOT
ATOM      1  C   UNL     1      44.015   4.887  11.493  0.00  0.00    +0.000 C 
ATOM      2  C   UNL     1      42.633   4.996  12.126  0.00  0.00    +0.000 C 
ATOM      3  C   UNL     1      43.016   5.927  11.025  0.00  0.00    +0.000 C 
ENDROOT
BRANCH   1   8
ATOM      4  C   UNL     1      46.555   2.749   7.449  0.00  0.00    +0.000 A 
ATOM      5  C   UNL     1      46.401   4.090   7.800  0.00  0.00    +0.000 A 
ATOM      6  C   UNL     1      45.620   4.417   8.909  0.00  0.00    +0.000 A 
ATOM      7  C   UNL     1      45.051   3.405   9.672  0.00  0.00    +0.000 A 
ATOM      8  N   UNL     1      44.240   3.630  10.777  0.00  0.00    +0.000 N 
ATOM      9  N   UNL     1      45.207   2.104   9.340  0.00  0.00    +0.000 NA
ATOM     10  C   UNL     1      45.925   1.802   8.227  0.00  0.00    +0.000 A 
ATOM     11  H   UNL     1      44.121   2.751  11.272  0.00  0.00    +0.000 HD
BRANCH   4  13
ATOM     12  N   UNL     1      47.085   3.027   5.099  0.00  0.00    +0.000 N 
ATOM     13  C   UNL     1      47.319   2.324   6.253  0.00  0.00    +0.000 C 
ATOM     14  O   UNL     1      48.130   1.412   6.297  0.00  0.00    +0.000 OA
ATOM     15  H   UNL     1      47.649   2.785   4.293  0.00  0.00    +0.000 HD
ATOM     16  H   UNL     1      46.621   3.921   5.094  0.00  0.00    +0.000 HD
ENDBRANCH   4  13
ENDBRANCH   1   8
BRANCH   1  17
ATOM     17  C   UNL     1      45.227   5.347  12.287  0.00  0.00    +0.000 A 
ATOM     18  C   UNL     1      45.829   4.524  13.249  0.00  0.00    +0.000 A 
ATOM     19  C   UNL     1      47.023   4.887  13.864  0.00  0.00    +0.000 A 
ATOM     20  C   UNL     1      47.651   6.084  13.518  0.00  0.00    +0.000 A 
ATOM     21  C   UNL     1      47.090   6.953  12.569  0.00  0.00    +0.000 A 
ATOM     22  C   UNL     1      45.862   6.571  11.999  0.00  0.00    +0.000 A 
BRANCH  21  23
ATOM     23  C   UNL     1      47.792   8.173  12.121  0.00  0.00    +0.000 A 
ATOM     24  C   UNL     1      47.165   9.425  12.119  0.00  0.00    +0.000 A 
ATOM     25  N   UNL     1      47.751  10.598  11.766  0.00  0.00    +0.000 NA
ATOM     26  C   UNL     1      49.048  10.533  11.404  0.00  0.00    +0.000 A 
ATOM     27  C   UNL     1      49.773   9.354  11.375  0.00  0.00    +0.000 A 
ATOM     28  C   UNL     1      49.138   8.168  11.726  0.00  0.00    +0.000 A 
BRANCH  27  29
ATOM     29  O   UNL     1      51.090   9.302  11.033  0.00  0.00    +0.000 OA
ATOM     30  H   UNL     1      51.176   9.473  10.079  0.00  0.00    +0.000 HD
ENDBRANCH  27  29
ENDBRANCH  21  23
ENDBRANCH   1  17
TORSDOF 5
ENDMDL
MODEL 3
REMARK VINA RESULT:    -7.129      3.411      8.364
REMARK INTER + INTRA:          -9.767
REMARK INTER:                  -9.219
REMARK INTRA:                  -0.548
REMARK UNBOUND:                -0.763
REMARK  Name = 
REMARK  5 active torsions:
REMARK  status: ('A' for Active; 'I' for Inactive)
REMARK    1  A    between atoms: C_2  and  C_4
REMARK    2  A    between atoms: N_8  and  C_9
REMARK    3  A    between atoms: C_9  and  C_10
REMARK    4  A    between atoms: C_14  and  C_15
REMARK    5  A    between atoms: C_19  and  O_20
REMARK                            x       y       z     vdW  Elec       q    Type
REMARK                         _______ _______ _______ _____ _____    ______ ____
ROOT
ATOM      1  C   UNL     1      48.105   4.687  16.935  0.00  0.00    +0.000 C 
ATOM      2  C   UNL     1      47.091   4.911  18.052  0.00  0.00    +0.000 C 
ATOM      3  C   UNL     1      47.131   3.599  17.342  0.00  0.00    +0.000 C 
ENDROOT
BRANCH   1   8
ATOM      4  C   UNL     1      52.340   1.701  17.664  0.00  0.00    +0.000 A 
ATOM      5  C   UNL     1      51.030   1.335  17.356  0.00  0.00    +0.000 A 
ATOM      6  C   UNL     1      50.049   2.325  17.266  0.00  0.00    +0.000 A 
ATOM      7  C   UNL     1      50.401   3.658  17.435  0.00  0.00    +0.000 A 
ATOM      8  N   UNL     1      49.497   4.711  17.388  0.00  0.00    +0.000 N 
ATOM      9  N   UNL     1      51.673   4.017  17.723  0.00  0.00    +0.000 NA
ATOM     10  C   UNL     1      52.605   3.039  17.861  0.00  0.00    +0.000 A 
ATOM     11  H   UNL     1      50.019   5.581  17.337  0.00  0.00    +0.000 HD
BRANCH   4  13
ATOM     12  N   UNL     1      53.075  -0.476  18.437  0.00  0.00    +0.000 N 
ATOM     13  C   UNL     1      53.423   0.706  17.835  0.00  0.00    +0.000 C 
ATOM     14  O   UNL     1      54.559   0.916  17.441  0.00  0.00    +0.000 OA
ATOM     15  H   UNL     1      53.794  -1.187  18.501  0.00  0.00    +0.000 HD
ATOM     16  H   UNL     1      52.117  -0.769  18.543  0.00  0.00    +0.000 HD
ENDBRANCH   4  13
ENDBRANCH   1   8
BRANCH   1  17
ATOM     17  C   UNL     1      47.898   5.388  15.602  0.00  0.00    +0.000 A 
ATOM     18  C   UNL     1      48.769   6.393  15.159  0.00  0.00    +0.000 A 
ATOM     19  C   UNL     1      48.664   6.925  13.878  0.00  0.00    +0.000 A 
ATOM     20  C   UNL     1      47.688   6.450  13.002  0.00  0.00    +0.000 A 
ATOM     21  C   UNL     1      46.783   5.452  13.393  0.00  0.00    +0.000 A 
ATOM     22  C   UNL     1      46.893   4.968  14.710  0.00  0.00    +0.000 A 
BRANCH  21  23
ATOM     23  C   UNL     1      45.809   4.870  12.446  0.00  0.00    +0.000 A 
ATOM     24  C   UNL     1      45.659   5.365  11.145  0.00  0.00    +0.000 A 
ATOM     25  N   UNL     1      44.823   4.861  10.202  0.00  0.00    +0.000 NA
ATOM     26  C   UNL     1      44.095   3.786  10.563  0.00  0.00    +0.000 A 
ATOM     27  C   UNL     1      44.164   3.205  11.818  0.00  0.00    +0.000 A 
ATOM     28  C   UNL     1      45.018   3.756  12.765  0.00  0.00    +0.000 A 
BRANCH  27  29
ATOM     29  O   UNL     1      43.443   2.102  12.164  0.00  0.00    +0.000 OA
ATOM     30  H   UNL     1      43.723   1.354  11.610  0.00  0.00    +0.000 HD
ENDBRANCH  27  29
ENDBRANCH  21  23
ENDBRANCH   1  17
TORSDOF 5
ENDMDL
MODEL 4
REMARK VINA RESULT:    -7.110      1.949      7.797
REMARK INTER + INTRA:          -9.743
REMARK INTER:                 -10.008
REMARK INTRA:                   0.265
REMARK UNBOUND:                -0.763
REMARK  Name = 
REMARK  5 active torsions:
REMARK  status: ('A' for Active; 'I' for Inactive)
REMARK    1  A    between atoms: C_2  and  C_4
REMARK    2  A    between atoms: N_8  and  C_9
REMARK    3  A    between atoms: C_9  and  C_10
REMARK    4  A    between atoms: C_14  and  C_15
REMARK    5  A    between atoms: C_19  and  O_20
REMARK                            x       y       z     vdW  Elec       q    Type
REMARK                         _______ _______ _______ _____ _____    ______ ____
ROOT
ATOM      1  C   UNL     1      48.647   8.009  12.652  0.00  0.00    +0.000 C 
ATOM      2  C   UNL     1      49.745   7.619  11.669  0.00  0.00    +0.000 C 
ATOM      3  C   UNL     1      49.399   9.058  11.858  0.00  0.00    +0.000 C 
ENDROOT
BRANCH   1   8
ATOM      4  C   UNL     1      47.796   4.545  16.480  0.00  0.00    +0.000 A 
ATOM      5  C   UNL     1      47.184   4.667  15.233  0.00  0.00    +0.000 A 
ATOM      6  C   UNL     1      47.550   5.724  14.396  0.00  0.00    +0.000 A 
ATOM      7  C   UNL     1      48.548   6.603  14.796  0.00  0.00    +0.000 A 
ATOM      8  N   UNL     1      48.965   7.696  14.046  0.00  0.00    +0.000 N 
ATOM      9  N   UNL     1      49.150   6.481  16.001  0.00  0.00    +0.000 NA
ATOM     10  C   UNL     1      48.746   5.482  16.827  0.00  0.00    +0.000 A 
ATOM     11  H   UNL     1      49.825   8.053  14.451  0.00  0.00    +0.000 HD
BRANCH   4  13
ATOM     12  N   UNL     1      48.306   3.255  18.469  0.00  0.00    +0.000 N 
ATOM     13  C   UNL     1      47.421   3.489  17.448  0.00  0.00    +0.000 C 
ATOM     14  O   UNL     1      46.370   2.873  17.355  0.00  0.00    +0.000 OA
ATOM     15  H   UNL     1      48.029   2.578  19.170  0.00  0.00    +0.000 HD
ATOM     16  H   UNL     1      49.041   3.901  18.707  0.00  0.00    +0.000 HD
ENDBRANCH   4  13
ENDBRANCH   1   8
BRANCH   1  17
ATOM     17  C   UNL     1      47.198   7.721  12.291  0.00  0.00    +0.000 A 
ATOM     18  C   UNL     1      46.194   8.684  12.462  0.00  0.00    +0.000 A 
ATOM     19  C   UNL     1      44.902   8.469  11.993  0.00  0.00    +0.000 A 
ATOM     20  C   UNL     1      44.589   7.285  11.325  0.00  0.00    +0.000 A 
ATOM     21  C   UNL     1      45.551   6.282  11.133  0.00  0.00    +0.000 A 
ATOM     22  C   UNL     1      46.835   6.516  11.658  0.00  0.00    +0.000 A 
BRANCH  21  23
ATOM     23  C   UNL     1      45.261   5.067  10.343  0.00  0.00    +0.000 A 
ATOM     24  C   UNL     1      44.486   4.020  10.857  0.00  0.00    +0.000 A 
ATOM     25  N   UNL     1      44.137   2.895  10.183  0.00  0.00    +0.000 NA
ATOM     26  C   UNL     1      44.571   2.801   8.910  0.00  0.00    +0.000 A 
ATOM     27  C   UNL     1      45.337   3.776   8.293  0.00  0.00    +0.000 A 
ATOM     28  C   UNL     1      45.691   4.909   9.016  0.00  0.00    +0.000 A 
BRANCH  27  29
ATOM     29  O   UNL     1      45.749   3.684   6.998  0.00  0.00    +0.000 OA
ATOM     30  H   UNL     1      45.963   4.574   6.670  0.00  0.00    +0.000 HD
ENDBRANCH  27  29
ENDBRANCH  21  23
ENDBRANCH   1  17
TORSDOF 5
ENDMDL
MODEL 5
REMARK VINA RESULT:    -7.085      3.608      5.151
REMARK INTER + INTRA:          -9.711
REMARK INTER:                  -8.707
REMARK INTRA:                  -1.004
REMARK UNBOUND:                -0.763
REMARK  Name = 
REMARK  5 active torsions:
REMARK  status: ('A' for Active; 'I' for Inactive)
REMARK    1  A    between atoms: C_2  and  C_4
REMARK    2  A    between atoms: N_8  and  C_9
REMARK    3  A    between atoms: C_9  and  C_10
REMARK    4  A    between atoms: C_14  and  C_15
REMARK    5  A    between atoms: C_19  and  O_20
REMARK                            x       y       z     vdW  Elec       q    Type
REMARK                         _______ _______ _______ _____ _____    ______ ____
ROOT
ATOM      1  C   UNL     1      48.850   8.307  12.608  0.00  0.00    +0.000 C 
ATOM      2  C   UNL     1      49.920   9.093  11.858  0.00  0.00    +0.000 C 
ATOM      3  C   UNL     1      49.916   7.602  11.793  0.00  0.00    +0.000 C 
ENDROOT
BRANCH   1   8
ATOM      4  C   UNL     1      44.284   5.942  11.639  0.00  0.00    +0.000 A 
ATOM      5  C   UNL     1      45.520   5.394  11.981  0.00  0.00    +0.000 A 
ATOM      6  C   UNL     1      46.620   6.240  12.136  0.00  0.00    +0.000 A 
ATOM      7  C   UNL     1      46.458   7.612  11.996  0.00  0.00    +0.000 A 
ATOM      8  N   UNL     1      47.493   8.531  12.108  0.00  0.00    +0.000 N 
ATOM      9  N   UNL     1      45.258   8.148  11.674  0.00  0.00    +0.000 NA
ATOM     10  C   UNL     1      44.209   7.309  11.473  0.00  0.00    +0.000 A 
ATOM     11  H   UNL     1      47.091   9.462  12.167  0.00  0.00    +0.000 HD
BRANCH   4  13
ATOM     12  N   UNL     1      41.879   5.657  11.752  0.00  0.00    +0.000 N 
ATOM     13  C   UNL     1      43.085   5.108  11.399  0.00  0.00    +0.000 C 
ATOM     14  O   UNL     1      43.162   3.999  10.894  0.00  0.00    +0.000 OA
ATOM     15  H   UNL     1      41.049   5.119  11.534  0.00  0.00    +0.000 HD
ATOM     16  H   UNL     1      41.765   6.642  11.934  0.00  0.00    +0.000 HD
ENDBRANCH   4  13
ENDBRANCH   1   8
BRANCH   1  17
ATOM     17  C   UNL     1      48.922   8.229  14.125  0.00  0.00    +0.000 A 
ATOM     18  C   UNL     1      48.772   9.369  14.926  0.00  0.00    +0.000 A 
ATOM     19  C   UNL     1      48.689   9.271  16.311  0.00  0.00    +0.000 A 
ATOM     20  C   UNL     1      48.740   8.020  16.928  0.00  0.00    +0.000 A 
ATOM     21  C   UNL     1      48.899   6.845  16.177  0.00  0.00    +0.000 A 
ATOM     22  C   UNL     1      49.021   6.987  14.783  0.00  0.00    +0.000 A 
BRANCH  21  23
ATOM     23  C   UNL     1      48.855   5.509  16.806  0.00  0.00    +0.000 A 
ATOM     24  C   UNL     1      49.984   4.940  17.409  0.00  0.00    +0.000 A 
ATOM     25  N   UNL     1      50.017   3.742  18.045  0.00  0.00    +0.000 NA
ATOM     26  C   UNL     1      48.853   3.063  18.103  0.00  0.00    +0.000 A 
ATOM     27  C   UNL     1      47.672   3.528  17.549  0.00  0.00    +0.000 A 
ATOM     28  C   UNL     1      47.677   4.752  16.890  0.00  0.00    +0.000 A 
BRANCH  27  29
ATOM     29  O   UNL     1      46.496   2.847  17.635  0.00  0.00    +0.000 OA
ATOM     30  H   UNL     1      46.663   1.904  17.465  0.00  0.00    +0.000 HD
ENDBRANCH  27  29
ENDBRANCH  21  23
ENDBRANCH   1  17
TORSDOF 5
ENDMDL
MODEL 6
REMARK VINA RESULT:    -6.971      2.917      8.477
REMARK INTER + INTRA:          -9.567
REMARK INTER:                  -8.675
REMARK INTRA:                  -0.892
REMARK UNBOUND:                -0.763
REMARK  Name = 
REMARK  5 active torsions:
REMARK  status: ('A' for Active; 'I' for Inactive)
REMARK    1  A    between atoms: C_2  and  C_4
REMARK    2  A    between atoms: N_8  and  C_9
REMARK    3  A    between atoms: C_9  and  C_10
REMARK    4  A    between atoms: C_14  and  C_15
REMARK    5  A    between atoms: C_19  and  O_20
REMARK                            x       y       z     vdW  Elec       q    Type
REMARK                         _______ _______ _______ _____ _____    ______ ____
ROOT
ATOM      1  C   UNL     1      49.036   7.834  12.525  0.00  0.00    +0.000 C 
ATOM      2  C   UNL     1      50.004   7.866  11.348  0.00  0.00    +0.000 C 
ATOM      3  C   UNL     1      49.751   9.111  12.130  0.00  0.00    +0.000 C 
ENDROOT
BRANCH   1   8
ATOM      4  C   UNL     1      48.987   7.368  17.737  0.00  0.00    +0.000 A 
ATOM      5  C   UNL     1      48.593   8.436  16.931  0.00  0.00    +0.000 A 
ATOM      6  C   UNL     1      48.757   8.341  15.548  0.00  0.00    +0.000 A 
ATOM      7  C   UNL     1      49.261   7.171  14.994  0.00  0.00    +0.000 A 
ATOM      8  N   UNL     1      49.483   6.990  13.635  0.00  0.00    +0.000 N 
ATOM      9  N   UNL     1      49.635   6.130  15.772  0.00  0.00    +0.000 NA
ATOM     10  C   UNL     1      49.520   6.257  17.119  0.00  0.00    +0.000 A 
ATOM     11  H   UNL     1      49.657   6.003  13.467  0.00  0.00    +0.000 HD
BRANCH   4  13
ATOM     12  N   UNL     1      47.735   6.952  19.771  0.00  0.00    +0.000 N 
ATOM     13  C   UNL     1      48.900   7.414  19.214  0.00  0.00    +0.000 C 
ATOM     14  O   UNL     1      49.824   7.821  19.902  0.00  0.00    +0.000 OA
ATOM     15  H   UNL     1      47.692   6.922  20.784  0.00  0.00    +0.000 HD
ATOM     16  H   UNL     1      47.073   6.394  19.257  0.00  0.00    +0.000 HD
ENDBRANCH   4  13
ENDBRANCH   1   8
BRANCH   1  17
ATOM     17  C   UNL     1      47.545   7.718  12.250  0.00  0.00    +0.000 A 
ATOM     18  C   UNL     1      46.689   8.821  12.372  0.00  0.00    +0.000 A 
ATOM     19  C   UNL     1      45.357   8.748  11.976  0.00  0.00    +0.000 A 
ATOM     20  C   UNL     1      44.854   7.565  11.433  0.00  0.00    +0.000 A 
ATOM     21  C   UNL     1      45.662   6.425  11.297  0.00  0.00    +0.000 A 
ATOM     22  C   UNL     1      46.992   6.525  11.746  0.00  0.00    +0.000 A 
BRANCH  21  23
ATOM     23  C   UNL     1      45.172   5.199  10.634  0.00  0.00    +0.000 A 
ATOM     24  C   UNL     1      45.494   4.899   9.305  0.00  0.00    +0.000 A 
ATOM     25  N   UNL     1      45.123   3.777   8.639  0.00  0.00    +0.000 NA
ATOM     26  C   UNL     1      44.394   2.881   9.336  0.00  0.00    +0.000 A 
ATOM     27  C   UNL     1      44.021   3.066  10.656  0.00  0.00    +0.000 A 
ATOM     28  C   UNL     1      44.404   4.234  11.304  0.00  0.00    +0.000 A 
BRANCH  27  29
ATOM     29  O   UNL     1      43.306   2.145  11.360  0.00  0.00    +0.000 OA
ATOM     30  H   UNL     1      42.369   2.406  11.364  0.00  0.00    +0.000 HD
ENDBRANCH  27  29
ENDBRANCH  21  23
ENDBRANCH   1  17
TORSDOF 5
ENDMDL
MODEL 7
REMARK VINA RESULT:    -6.664      3.674      8.453
REMARK INTER + INTRA:          -9.180
REMARK INTER:                  -8.162
REMARK INTRA:                  -1.019
REMARK UNBOUND:                -0.763
REMARK  Name = 
REMARK  5 active torsions:
REMARK  status: ('A' for Active; 'I' for Inactive)
REMARK    1  A    between atoms: C_2  and  C_4
REMARK    2  A    between atoms: N_8  and  C_9
REMARK    3  A    between atoms: C_9  and  C_10
REMARK    4  A    between atoms: C_14  and  C_15
REMARK    5  A    between atoms: C_19  and  O_20
REMARK                            x       y       z     vdW  Elec       q    Type
REMARK                         _______ _______ _______ _____ _____    ______ ____
ROOT
ATOM      1  C   UNL     1      49.560   7.206  17.071  0.00  0.00    +0.000 C 
ATOM      2  C   UNL     1      49.217   8.431  17.911  0.00  0.00    +0.000 C 
ATOM      3  C   UNL     1      48.357   7.214  17.993  0.00  0.00    +0.000 C 
ENDROOT
BRANCH   1   8
ATOM      4  C   UNL     1      51.944   2.585  17.660  0.00  0.00    +0.000 A 
ATOM      5  C   UNL     1      50.596   2.876  17.449  0.00  0.00    +0.000 A 
ATOM      6  C   UNL     1      50.190   4.210  17.378  0.00  0.00    +0.000 A 
ATOM      7  C   UNL     1      51.137   5.222  17.471  0.00  0.00    +0.000 A 
ATOM      8  N   UNL     1      50.830   6.576  17.436  0.00  0.00    +0.000 N 
ATOM      9  N   UNL     1      52.446   4.943  17.665  0.00  0.00    +0.000 NA
ATOM     10  C   UNL     1      52.819   3.643  17.786  0.00  0.00    +0.000 A 
ATOM     11  H   UNL     1      51.694   7.098  17.317  0.00  0.00    +0.000 HD
BRANCH   4  13
ATOM     12  N   UNL     1      51.514   0.248  18.140  0.00  0.00    +0.000 N 
ATOM     13  C   UNL     1      52.444   1.199  17.805  0.00  0.00    +0.000 C 
ATOM     14  O   UNL     1      53.616   0.914  17.614  0.00  0.00    +0.000 OA
ATOM     15  H   UNL     1      51.836  -0.713  18.179  0.00  0.00    +0.000 HD
ATOM     16  H   UNL     1      50.523   0.408  18.061  0.00  0.00    +0.000 HD
ENDBRANCH   4  13
ENDBRANCH   1   8
BRANCH   1  17
ATOM     17  C   UNL     1      49.328   7.255  15.569  0.00  0.00    +0.000 A 
ATOM     18  C   UNL     1      50.232   7.890  14.707  0.00  0.00    +0.000 A 
ATOM     19  C   UNL     1      50.094   7.803  13.325  0.00  0.00    +0.000 A 
ATOM     20  C   UNL     1      49.048   7.062  12.773  0.00  0.00    +0.000 A 
ATOM     21  C   UNL     1      48.107   6.413  13.587  0.00  0.00    +0.000 A 
ATOM     22  C   UNL     1      48.255   6.558  14.979  0.00  0.00    +0.000 A 
BRANCH  21  23
ATOM     23  C   UNL     1      47.054   5.546  13.019  0.00  0.00    +0.000 A 
ATOM     24  C   UNL     1      46.737   4.305  13.583  0.00  0.00    +0.000 A 
ATOM     25  N   UNL     1      45.758   3.470  13.151  0.00  0.00    +0.000 NA
ATOM     26  C   UNL     1      45.032   3.896  12.097  0.00  0.00    +0.000 A 
ATOM     27  C   UNL     1      45.249   5.107  11.463  0.00  0.00    +0.000 A 
ATOM     28  C   UNL     1      46.271   5.930  11.920  0.00  0.00    +0.000 A 
BRANCH  27  29
ATOM     29  O   UNL     1      44.493   5.540  10.415  0.00  0.00    +0.000 OA
ATOM     30  H   UNL     1      43.846   4.851  10.185  0.00  0.00    +0.000 HD
ENDBRANCH  27  29
ENDBRANCH  21  23
ENDBRANCH   1  17
TORSDOF 5
ENDMDL
