MODEL 1
REMARK VINA RESULT:    -8.752      0.000      0.000
REMARK INTER + INTRA:         -12.210
REMARK INTER:                 -11.821
REMARK INTRA:                  -0.388
REMARK UNBOUND:                -0.388
REMARK  Name = 
REMARK  6 active torsions:
REMARK  status: ('A' for Active; 'I' for Inactive)
REMARK    1  A    between atoms: C_2  and  C_25
REMARK    2  A    between atoms: N_3  and  C_4
REMARK    3  A    between atoms: C_4  and  C_5
REMARK    4  A    between atoms: C_8  and  C_9
REMARK    5  A    between atoms: C_9  and  N_10
REMARK    6  A    between atoms: C_11  and  C_13
REMARK                            x       y       z     vdW  Elec       q    Type
REMARK                         _______ _______ _______ _____ _____    ______ ____
ROOT
ATOM      1  C   UNL     1      43.442   4.638  11.872  0.00  0.00    +0.000 C 
ATOM      2  C   UNL     1      44.078   3.326  12.360  0.00  0.00    +0.000 C 
ATOM      3  C   UNL     1      45.605   3.397  12.407  0.00  0.00    +0.000 C 
ATOM      4  C   UNL     1      46.136   4.575  13.243  0.00  0.00    +0.000 C 
ATOM      5  C   UNL     1      45.491   5.887  12.764  0.00  0.00    +0.000 C 
ATOM      6  C   UNL     1      43.962   5.820  12.708  0.00  0.00    +0.000 C 
ENDROOT
BRANCH   1   7
ATOM      7  C   UNL     1      43.674   4.882  10.366  0.00  0.00    +0.000 C 
BRANCH   7  10
ATOM      8  O   UNL     1      45.729   5.139   8.478  0.00  0.00    +0.000 OA
ATOM      9  C   UNL     1      45.381   4.004   8.797  0.00  0.00    +0.000 C 
ATOM     10  N   UNL     1      44.386   3.793   9.728  0.00  0.00    +0.000 N 
ATOM     11  H   UNL     1      44.112   2.839   9.934  0.00  0.00    +0.000 HD
BRANCH   9  12
ATOM     12  C   UNL     1      45.988   2.818   8.230  0.00  0.00    +0.000 A 
ATOM     13  C   UNL     1      45.758   1.508   8.609  0.00  0.00    +0.000 A 
ATOM     14  N   UNL     1      46.469   0.542   7.921  0.00  0.00    +0.000 NA
ATOM     15  C   UNL     1      47.233   1.129   7.027  0.00  0.00    +0.000 A 
ATOM     16  S   UNL     1      47.138   2.841   6.957  0.00  0.00    +0.000 S 
ENDBRANCH   9  12
ENDBRANCH   7  10
ENDBRANCH   1   7
BRANCH   4  17
ATOM     17  C   UNL     1      45.943   4.390  14.762  0.00  0.00    +0.000 C 
BRANCH  17  18
ATOM     18  N   UNL     1      47.168   4.579  15.512  0.00  0.00    +0.000 N 
ATOM     19  C   UNL     1      47.373   4.070  16.770  0.00  0.00    +0.000 C 
ATOM     20  O   UNL     1      46.508   3.441  17.372  0.00  0.00    +0.000 OA
ATOM     21  H   UNL     1      47.854   5.214  15.117  0.00  0.00    +0.000 HD
BRANCH  19  22
ATOM     22  C   UNL     1      48.720   4.251  17.334  0.00  0.00    +0.000 A 
ATOM     23  C   UNL     1      49.043   5.448  17.962  0.00  0.00    +0.000 A 
ATOM     24  S   UNL     1      50.619   5.477  18.613  0.00  0.00    +0.000 S 
ATOM     25  C   UNL     1      50.946   3.909  18.042  0.00  0.00    +0.000 A 
ATOM     26  N   UNL     1      52.153   3.324  18.260  0.00  0.00    +0.000 NA
ATOM     27  C   UNL     1      52.274   2.142  17.754  0.00  0.00    +0.000 A 
ATOM     28  N   UNL     1      51.296   1.493  17.048  0.00  0.00    +0.000 N 
ATOM     29  C   UNL     1      50.048   2.028  16.839  0.00  0.00    +0.000 A 
ATOM     30  O   UNL     1      49.172   1.384  16.272  0.00  0.00    +0.000 OA
ATOM     31  C   UNL     1      49.861   3.363  17.374  0.00  0.00    +0.000 A 
ATOM     32  H   UNL     1      51.448   0.561  16.693  0.00  0.00    +0.000 HD
ENDBRANCH  19  22
ENDBRANCH  17  18
ENDBRANCH   4  17
TORSDOF 6
ENDMDL
MODEL 2
REMARK VINA RESULT:    -7.820      2.381      2.895
REMARK INTER + INTRA:         -10.951
REMARK INTER:                 -10.552
REMARK INTRA:                  -0.399
REMARK UNBOUND:                -0.388
REMARK  Name = 
REMARK  6 active torsions:
REMARK  status: ('A' for Active; 'I' for Inactive)
REMARK    1  A    between atoms: C_2  and  C_25
REMARK    2  A    between atoms: N_3  and  C_4
REMARK    3  A    between atoms: C_4  and  C_5
REMARK    4  A    between atoms: C_8  and  C_9
REMARK    5  A    between atoms: C_9  and  N_10
REMARK    6  A    between atoms: C_11  and  C_13
REMARK                            x       y       z     vdW  Elec       q    Type
REMARK                         _______ _______ _______ _____ _____    ______ ____
ROOT
ATOM      1  C   UNL     1      43.677   4.822  11.455  0.00  0.00    +0.000 C 
ATOM      2  C   UNL     1      44.181   4.706  12.903  0.00  0.00    +0.000 C 
ATOM      3  C   UNL     1      45.682   4.426  12.980  0.00  0.00    +0.000 C 
ATOM      4  C   UNL     1      46.535   5.453  12.214  0.00  0.00    +0.000 C 
ATOM      5  C   UNL     1      46.024   5.579  10.768  0.00  0.00    +0.000 C 
ATOM      6  C   UNL     1      44.520   5.852  10.684  0.00  0.00    +0.000 C 
ENDROOT
BRANCH   1   7
ATOM      7  C   UNL     1      43.662   3.463  10.725  0.00  0.00    +0.000 C 
BRANCH   7  10
ATOM      8  O   UNL     1      44.182   1.223   9.123  0.00  0.00    +0.000 OA
ATOM      9  C   UNL     1      44.931   2.192   9.014  0.00  0.00    +0.000 C 
ATOM     10  N   UNL     1      44.734   3.337   9.759  0.00  0.00    +0.000 N 
ATOM     11  H   UNL     1      45.397   4.097   9.657  0.00  0.00    +0.000 HD
BRANCH   9  12
ATOM     12  C   UNL     1      46.055   2.207   8.103  0.00  0.00    +0.000 A 
ATOM     13  C   UNL     1      46.836   1.128   7.734  0.00  0.00    +0.000 A 
ATOM     14  N   UNL     1      47.866   1.396   6.851  0.00  0.00    +0.000 NA
ATOM     15  C   UNL     1      47.856   2.678   6.559  0.00  0.00    +0.000 A 
ATOM     16  S   UNL     1      46.630   3.615   7.308  0.00  0.00    +0.000 S 
ENDBRANCH   9  12
ENDBRANCH   7  10
ENDBRANCH   1   7
BRANCH   4  17
ATOM     17  C   UNL     1      46.599   6.834  12.896  0.00  0.00    +0.000 C 
BRANCH  17  18
ATOM     18  N   UNL     1      47.143   6.774  14.239  0.00  0.00    +0.000 N 
ATOM     19  C   UNL     1      48.486   6.725  14.511  0.00  0.00    +0.000 C 
ATOM     20  O   UNL     1      49.335   6.692  13.625  0.00  0.00    +0.000 OA
ATOM     21  H   UNL     1      46.479   6.651  14.997  0.00  0.00    +0.000 HD
BRANCH  19  22
ATOM     22  C   UNL     1      48.865   6.794  15.932  0.00  0.00    +0.000 A 
ATOM     23  C   UNL     1      49.674   7.834  16.374  0.00  0.00    +0.000 A 
ATOM     24  S   UNL     1      49.972   7.804  18.053  0.00  0.00    +0.000 S 
ATOM     25  C   UNL     1      49.069   6.377  18.246  0.00  0.00    +0.000 A 
ATOM     26  N   UNL     1      48.929   5.799  19.469  0.00  0.00    +0.000 NA
ATOM     27  C   UNL     1      48.237   4.709  19.469  0.00  0.00    +0.000 A 
ATOM     28  N   UNL     1      47.673   4.143  18.356  0.00  0.00    +0.000 N 
ATOM     29  C   UNL     1      47.754   4.713  17.108  0.00  0.00    +0.000 A 
ATOM     30  O   UNL     1      47.169   4.219  16.151  0.00  0.00    +0.000 OA
ATOM     31  C   UNL     1      48.534   5.934  17.047  0.00  0.00    +0.000 A 
ATOM     32  H   UNL     1      47.128   3.298  18.427  0.00  0.00    +0.000 HD
ENDBRANCH  19  22
ENDBRANCH  17  18
ENDBRANCH   4  17
TORSDOF 6
ENDMDL
MODEL 3
REMARK VINA RESULT:    -7.429      4.852      5.371
REMARK INTER + INTRA:         -10.423
REMARK INTER:                  -9.689
REMARK INTRA:                  -0.734
REMARK UNBOUND:                -0.388
REMARK  Name = 
REMARK  6 active torsions:
REMARK  status: ('A' for Active; 'I' for Inactive)
REMARK    1  A    between atoms: C_2  and  C_25
REMARK    2  A    between atoms: N_3  and  C_4
REMARK    3  A    between atoms: C_4  and  C_5
REMARK    4  A    between atoms: C_8  and  C_9
REMARK    5  A    between atoms: C_9  and  N_10
REMARK    6  A    between atoms: C_11  and  C_13
REMARK                            x       y       z     vdW  Elec       q    Type
REMARK                         _______ _______ _______ _____ _____    ______ ____
ROOT
ATOM      1  C   UNL     1      44.415   3.843  12.259  0.00  0.00    +0.000 C 
ATOM      2  C   UNL     1      45.774   4.469  11.908  0.00  0.00    +0.000 C 
ATOM      3  C   UNL     1      45.646   5.640  10.933  0.00  0.00    +0.000 C 
ATOM      4  C   UNL     1      44.680   6.736  11.416  0.00  0.00    +0.000 C 
ATOM      5  C   UNL     1      43.322   6.108  11.779  0.00  0.00    +0.000 C 
ATOM      6  C   UNL     1      43.444   4.931  12.750  0.00  0.00    +0.000 C 
ENDROOT
BRANCH   1   7
ATOM      7  C   UNL     1      43.808   3.053  11.081  0.00  0.00    +0.000 C 
BRANCH   7  10
ATOM      8  O   UNL     1      44.200   3.928   8.448  0.00  0.00    +0.000 OA
ATOM      9  C   UNL     1      44.936   3.039   8.873  0.00  0.00    +0.000 C 
ATOM     10  N   UNL     1      44.814   2.562  10.162  0.00  0.00    +0.000 N 
ATOM     11  H   UNL     1      45.422   1.807  10.455  0.00  0.00    +0.000 HD
BRANCH   9  12
ATOM     12  C   UNL     1      45.976   2.439   8.064  0.00  0.00    +0.000 A 
ATOM     13  C   UNL     1      46.321   1.101   8.019  0.00  0.00    +0.000 A 
ATOM     14  N   UNL     1      47.361   0.770   7.171  0.00  0.00    +0.000 NA
ATOM     15  C   UNL     1      47.796   1.861   6.581  0.00  0.00    +0.000 A 
ATOM     16  S   UNL     1      46.991   3.318   6.997  0.00  0.00    +0.000 S 
ENDBRANCH   9  12
ENDBRANCH   7  10
ENDBRANCH   1   7
BRANCH   4  17
ATOM     17  C   UNL     1      45.230   7.571  12.589  0.00  0.00    +0.000 C 
BRANCH  17  18
ATOM     18  N   UNL     1      46.414   8.328  12.235  0.00  0.00    +0.000 N 
ATOM     19  C   UNL     1      47.210   8.965  13.152  0.00  0.00    +0.000 C 
ATOM     20  O   UNL     1      46.952   8.971  14.352  0.00  0.00    +0.000 OA
ATOM     21  H   UNL     1      46.584   8.474  11.244  0.00  0.00    +0.000 HD
BRANCH  19  22
ATOM     22  C   UNL     1      48.440   9.582  12.631  0.00  0.00    +0.000 A 
ATOM     23  C   UNL     1      48.577  10.964  12.660  0.00  0.00    +0.000 A 
ATOM     24  S   UNL     1      50.082  11.516  12.076  0.00  0.00    +0.000 S 
ATOM     25  C   UNL     1      50.589   9.933  11.720  0.00  0.00    +0.000 A 
ATOM     26  N   UNL     1      51.812   9.697  11.176  0.00  0.00    +0.000 NA
ATOM     27  C   UNL     1      52.061   8.452  10.936  0.00  0.00    +0.000 A 
ATOM     28  N   UNL     1      51.195   7.421  11.192  0.00  0.00    +0.000 N 
ATOM     29  C   UNL     1      49.967   7.609  11.778  0.00  0.00    +0.000 A 
ATOM     30  O   UNL     1      49.253   6.653  12.065  0.00  0.00    +0.000 OA
ATOM     31  C   UNL     1      49.629   8.991  12.056  0.00  0.00    +0.000 A 
ATOM     32  H   UNL     1      51.457   6.468  10.997  0.00  0.00    +0.000 HD
ENDBRANCH  19  22
ENDBRANCH  17  18
ENDBRANCH   4  17
TORSDOF 6
ENDMDL
MODEL 4
REMARK VINA RESULT:    -6.935      3.528      9.313
REMARK INTER + INTRA:          -9.756
REMARK INTER:                  -9.560
REMARK INTRA:                  -0.195
REMARK UNBOUND:                -0.388
REMARK  Name = 
REMARK  6 active torsions:
REMARK  status: ('A' for Active; 'I' for Inactive)
REMARK    1  A    between atoms: C_2  and  C_25
REMARK    2  A    between atoms: N_3  and  C_4
REMARK    3  A    between atoms: C_4  and  C_5
REMARK    4  A    between atoms: C_8  and  C_9
REMARK    5  A    between atoms: C_9  and  N_10
REMARK    6  A    between atoms: C_11  and  C_13
REMARK                            x       y       z     vdW  Elec       q    Type
REMARK                         _______ _______ _______ _____ _____    ______ ____
ROOT
ATOM      1  C   UNL     1      49.167   5.566  19.526  0.00  0.00    +0.000 C 
ATOM      2  C   UNL     1      48.805   6.182  18.164  0.00  0.00    +0.000 C 
ATOM      3  C   UNL     1      49.245   5.307  16.989  0.00  0.00    +0.000 C 
ATOM      4  C   UNL     1      48.708   3.866  17.067  0.00  0.00    +0.000 C 
ATOM      5  C   UNL     1      49.059   3.253  18.433  0.00  0.00    +0.000 C 
ATOM      6  C   UNL     1      48.628   4.128  19.613  0.00  0.00    +0.000 C 
ENDROOT
BRANCH   1   7
ATOM      7  C   UNL     1      50.683   5.605  19.807  0.00  0.00    +0.000 C 
BRANCH   7  10
ATOM      8  O   UNL     1      52.924   5.140  18.189  0.00  0.00    +0.000 OA
ATOM      9  C   UNL     1      52.422   4.176  18.764  0.00  0.00    +0.000 C 
ATOM     10  N   UNL     1      51.324   4.325  19.588  0.00  0.00    +0.000 N 
ATOM     11  H   UNL     1      50.926   3.496  20.014  0.00  0.00    +0.000 HD
BRANCH   9  12
ATOM     12  C   UNL     1      52.942   2.832  18.628  0.00  0.00    +0.000 A 
ATOM     13  C   UNL     1      54.067   2.313  19.242  0.00  0.00    +0.000 A 
ATOM     14  N   UNL     1      54.368   0.997  18.945  0.00  0.00    +0.000 NA
ATOM     15  C   UNL     1      53.469   0.530  18.109  0.00  0.00    +0.000 A 
ATOM     16  S   UNL     1      52.228   1.621  17.644  0.00  0.00    +0.000 S 
ENDBRANCH   9  12
ENDBRANCH   7  10
ENDBRANCH   1   7
BRANCH   4  17
ATOM     17  C   UNL     1      47.196   3.755  16.786  0.00  0.00    +0.000 C 
BRANCH  17  18
ATOM     18  N   UNL     1      46.749   4.657  15.743  0.00  0.00    +0.000 N 
ATOM     19  C   UNL     1      46.741   4.331  14.411  0.00  0.00    +0.000 C 
ATOM     20  O   UNL     1      47.150   3.251  13.997  0.00  0.00    +0.000 OA
ATOM     21  H   UNL     1      46.541   5.611  16.022  0.00  0.00    +0.000 HD
BRANCH  19  22
ATOM     22  C   UNL     1      46.138   5.320  13.503  0.00  0.00    +0.000 A 
ATOM     23  C   UNL     1      46.857   6.459  13.158  0.00  0.00    +0.000 A 
ATOM     24  S   UNL     1      46.046   7.473  12.053  0.00  0.00    +0.000 S 
ATOM     25  C   UNL     1      44.685   6.454  12.027  0.00  0.00    +0.000 A 
ATOM     26  N   UNL     1      43.600   6.756  11.267  0.00  0.00    +0.000 NA
ATOM     27  C   UNL     1      42.630   5.908  11.357  0.00  0.00    +0.000 A 
ATOM     28  N   UNL     1      42.648   4.785  12.142  0.00  0.00    +0.000 N 
ATOM     29  C   UNL     1      43.738   4.418  12.893  0.00  0.00    +0.000 A 
ATOM     30  O   UNL     1      43.745   3.364  13.520  0.00  0.00    +0.000 OA
ATOM     31  C   UNL     1      44.852   5.344  12.841  0.00  0.00    +0.000 A 
ATOM     32  H   UNL     1      41.863   4.153  12.154  0.00  0.00    +0.000 HD
ENDBRANCH  19  22
ENDBRANCH  17  18
ENDBRANCH   4  17
TORSDOF 6
ENDMDL
MODEL 5
REMARK VINA RESULT:    -6.904      2.680      3.361
REMARK INTER + INTRA:          -9.713
REMARK INTER:                 -10.201
REMARK INTRA:                   0.487
REMARK UNBOUND:                -0.388
REMARK  Name = 
REMARK  6 active torsions:
REMARK  status: ('A' for Active; 'I' for Inactive)
REMARK    1  A    between atoms: C_2  and  C_25
REMARK    2  A    between atoms: N_3  and  C_4
REMARK    3  A    between atoms: C_4  and  C_5
REMARK    4  A    between atoms: C_8  and  C_9
REMARK    5  A    between atoms: C_9  and  N_10
REMARK    6  A    between atoms: C_11  and  C_13
REMARK                            x       y       z     vdW  Elec       q    Type
REMARK                         _______ _______ _______ _____ _____    ______ ____
ROOT
ATOM      1  C   UNL     1      44.315   4.280  11.874  0.00  0.00    +0.000 C 
ATOM      2  C   UNL     1      45.796   4.681  11.784  0.00  0.00    +0.000 C 
ATOM      3  C   UNL     1      46.020   5.903  10.891  0.00  0.00    +0.000 C 
ATOM      4  C   UNL     1      45.175   7.122  11.301  0.00  0.00    +0.000 C 
ATOM      5  C   UNL     1      43.694   6.718  11.402  0.00  0.00    +0.000 C 
ATOM      6  C   UNL     1      43.464   5.492  12.290  0.00  0.00    +0.000 C 
ENDROOT
BRANCH   1   7
ATOM      7  C   UNL     1      43.791   3.662  10.560  0.00  0.00    +0.000 C 
BRANCH   7  10
ATOM      8  O   UNL     1      44.257   1.288   9.146  0.00  0.00    +0.000 OA
ATOM      9  C   UNL     1      45.014   2.235   8.942  0.00  0.00    +0.000 C 
ATOM     10  N   UNL     1      44.844   3.442   9.589  0.00  0.00    +0.000 N 
ATOM     11  H   UNL     1      45.512   4.182   9.412  0.00  0.00    +0.000 HD
BRANCH   9  12
ATOM     12  C   UNL     1      46.122   2.159   8.013  0.00  0.00    +0.000 A 
ATOM     13  C   UNL     1      46.844   1.029   7.677  0.00  0.00    +0.000 A 
ATOM     14  N   UNL     1      47.869   1.211   6.767  0.00  0.00    +0.000 NA
ATOM     15  C   UNL     1      47.914   2.479   6.422  0.00  0.00    +0.000 A 
ATOM     16  S   UNL     1      46.746   3.504   7.149  0.00  0.00    +0.000 S 
ENDBRANCH   9  12
ENDBRANCH   7  10
ENDBRANCH   1   7
BRANCH   4  17
ATOM     17  C   UNL     1      45.652   7.794  12.605  0.00  0.00    +0.000 C 
BRANCH  17  18
ATOM     18  N   UNL     1      46.131   6.841  13.586  0.00  0.00    +0.000 N 
ATOM     19  C   UNL     1      47.457   6.665  13.888  0.00  0.00    +0.000 C 
ATOM     20  O   UNL     1      48.348   7.284  13.315  0.00  0.00    +0.000 OA
ATOM     21  H   UNL     1      45.444   6.204  13.979  0.00  0.00    +0.000 HD
BRANCH  19  22
ATOM     22  C   UNL     1      47.756   5.745  14.997  0.00  0.00    +0.000 A 
ATOM     23  C   UNL     1      47.211   4.466  14.991  0.00  0.00    +0.000 A 
ATOM     24  S   UNL     1      47.700   3.506  16.312  0.00  0.00    +0.000 S 
ATOM     25  C   UNL     1      48.623   4.775  16.967  0.00  0.00    +0.000 A 
ATOM     26  N   UNL     1      49.310   4.612  18.129  0.00  0.00    +0.000 NA
ATOM     27  C   UNL     1      49.951   5.662  18.523  0.00  0.00    +0.000 A 
ATOM     28  N   UNL     1      49.965   6.861  17.861  0.00  0.00    +0.000 N 
ATOM     29  C   UNL     1      49.320   7.058  16.663  0.00  0.00    +0.000 A 
ATOM     30  O   UNL     1      49.422   8.121  16.060  0.00  0.00    +0.000 OA
ATOM     31  C   UNL     1      48.571   5.915  16.180  0.00  0.00    +0.000 A 
ATOM     32  H   UNL     1      50.501   7.639  18.214  0.00  0.00    +0.000 HD
ENDBRANCH  19  22
ENDBRANCH  17  18
ENDBRANCH   4  17
TORSDOF 6
ENDMDL
MODEL 6
REMARK VINA RESULT:    -6.840      5.203      8.112
REMARK INTER + INTRA:          -9.628
REMARK INTER:                  -8.744
REMARK INTRA:                  -0.884
REMARK UNBOUND:                -0.388
REMARK  Name = 
REMARK  6 active torsions:
REMARK  status: ('A' for Active; 'I' for Inactive)
REMARK    1  A    between atoms: C_2  and  C_25
REMARK    2  A    between atoms: N_3  and  C_4
REMARK    3  A    between atoms: C_4  and  C_5
REMARK    4  A    between atoms: C_8  and  C_9
REMARK    5  A    between atoms: C_9  and  N_10
REMARK    6  A    between atoms: C_11  and  C_13
REMARK                            x       y       z     vdW  Elec       q    Type
REMARK                         _______ _______ _______ _____ _____    ______ ____
ROOT
ATOM      1  C   UNL     1      49.833   9.077  11.629  0.00  0.00    +0.000 C 
ATOM      2  C   UNL     1      49.122   7.733  11.402  0.00  0.00    +0.000 C 
ATOM      3  C   UNL     1      48.949   6.936  12.696  0.00  0.00    +0.000 C 
ATOM      4  C   UNL     1      48.232   7.722  13.807  0.00  0.00    +0.000 C 
ATOM      5  C   UNL     1      48.936   9.073  14.027  0.00  0.00    +0.000 C 
ATOM      6  C   UNL     1      49.117   9.873  12.734  0.00  0.00    +0.000 C 
ENDROOT
BRANCH   1   7
ATOM      7  C   UNL     1      51.331   8.904  11.956  0.00  0.00    +0.000 C 
BRANCH   7  10
ATOM      8  O   UNL     1      52.482   9.331   9.436  0.00  0.00    +0.000 OA
ATOM      9  C   UNL     1      52.504   8.189   9.891  0.00  0.00    +0.000 C 
ATOM     10  N   UNL     1      51.969   7.900  11.130  0.00  0.00    +0.000 N 
ATOM     11  H   UNL     1      51.983   6.937  11.447  0.00  0.00    +0.000 HD
BRANCH   9  12
ATOM     12  C   UNL     1      53.092   7.078   9.173  0.00  0.00    +0.000 A 
ATOM     13  C   UNL     1      53.045   6.855   7.809  0.00  0.00    +0.000 A 
ATOM     14  N   UNL     1      53.677   5.712   7.358  0.00  0.00    +0.000 NA
ATOM     15  C   UNL     1      54.197   5.077   8.384  0.00  0.00    +0.000 A 
ATOM     16  S   UNL     1      53.969   5.807   9.920  0.00  0.00    +0.000 S 
ENDBRANCH   9  12
ENDBRANCH   7  10
ENDBRANCH   1   7
BRANCH   4  17
ATOM     17  C   UNL     1      46.725   7.923  13.547  0.00  0.00    +0.000 C 
BRANCH  17  18
ATOM     18  N   UNL     1      46.053   6.699  13.160  0.00  0.00    +0.000 N 
ATOM     19  C   UNL     1      45.241   6.595  12.060  0.00  0.00    +0.000 C 
ATOM     20  O   UNL     1      44.993   7.554  11.334  0.00  0.00    +0.000 OA
ATOM     21  H   UNL     1      46.109   5.921  13.810  0.00  0.00    +0.000 HD
BRANCH  19  22
ATOM     22  C   UNL     1      44.739   5.248  11.746  0.00  0.00    +0.000 A 
ATOM     23  C   UNL     1      44.012   4.549  12.701  0.00  0.00    +0.000 A 
ATOM     24  S   UNL     1      43.452   3.031  12.162  0.00  0.00    +0.000 S 
ATOM     25  C   UNL     1      44.198   3.230  10.647  0.00  0.00    +0.000 A 
ATOM     26  N   UNL     1      44.110   2.265   9.693  0.00  0.00    +0.000 NA
ATOM     27  C   UNL     1      44.739   2.535   8.599  0.00  0.00    +0.000 A 
ATOM     28  N   UNL     1      45.451   3.685   8.373  0.00  0.00    +0.000 N 
ATOM     29  C   UNL     1      45.532   4.703   9.291  0.00  0.00    +0.000 A 
ATOM     30  O   UNL     1      46.111   5.750   9.021  0.00  0.00    +0.000 OA
ATOM     31  C   UNL     1      44.854   4.446  10.547  0.00  0.00    +0.000 A 
ATOM     32  H   UNL     1      45.906   3.843   7.488  0.00  0.00    +0.000 HD
ENDBRANCH  19  22
ENDBRANCH  17  18
ENDBRANCH   4  17
TORSDOF 6
ENDMDL
MODEL 7
REMARK VINA RESULT:    -6.771      3.267      8.754
REMARK INTER + INTRA:          -9.535
REMARK INTER:                  -8.919
REMARK INTRA:                  -0.616
REMARK UNBOUND:                -0.388
REMARK  Name = 
REMARK  6 active torsions:
REMARK  status: ('A' for Active; 'I' for Inactive)
REMARK    1  A    between atoms: C_2  and  C_25
REMARK    2  A    between atoms: N_3  and  C_4
REMARK    3  A    between atoms: C_4  and  C_5
REMARK    4  A    between atoms: C_8  and  C_9
REMARK    5  A    between atoms: C_9  and  N_10
REMARK    6  A    between atoms: C_11  and  C_13
REMARK                            x       y       z     vdW  Elec       q    Type
REMARK                         _______ _______ _______ _____ _____    ______ ____
ROOT
ATOM      1  C   UNL     1      49.557   8.165  12.146  0.00  0.00    +0.000 C 
ATOM      2  C   UNL     1      48.645   6.964  12.446  0.00  0.00    +0.000 C 
ATOM      3  C   UNL     1      47.579   7.284  13.495  0.00  0.00    +0.000 C 
ATOM      4  C   UNL     1      46.721   8.511  13.139  0.00  0.00    +0.000 C 
ATOM      5  C   UNL     1      47.633   9.711  12.827  0.00  0.00    +0.000 C 
ATOM      6  C   UNL     1      48.706   9.394  11.782  0.00  0.00    +0.000 C 
ENDROOT
BRANCH   1   7
ATOM      7  C   UNL     1      50.516   8.482  13.312  0.00  0.00    +0.000 C 
BRANCH   7  10
ATOM      8  O   UNL     1      49.905   8.664  16.041  0.00  0.00    +0.000 OA
ATOM      9  C   UNL     1      50.289   7.578  15.610  0.00  0.00    +0.000 C 
ATOM     10  N   UNL     1      50.597   7.405  14.276  0.00  0.00    +0.000 N 
ATOM     11  H   UNL     1      50.941   6.500  13.975  0.00  0.00    +0.000 HD
BRANCH   9  12
ATOM     12  C   UNL     1      50.437   6.414  16.457  0.00  0.00    +0.000 A 
ATOM     13  C   UNL     1      49.423   5.611  16.946  0.00  0.00    +0.000 A 
ATOM     14  N   UNL     1      49.816   4.556  17.748  0.00  0.00    +0.000 NA
ATOM     15  C   UNL     1      51.126   4.569  17.861  0.00  0.00    +0.000 A 
ATOM     16  S   UNL     1      51.945   5.820  17.020  0.00  0.00    +0.000 S 
ENDBRANCH   9  12
ENDBRANCH   7  10
ENDBRANCH   1   7
BRANCH   4  17
ATOM     17  C   UNL     1      45.731   8.258  11.984  0.00  0.00    +0.000 C 
BRANCH  17  18
ATOM     18  N   UNL     1      45.452   6.851  11.780  0.00  0.00    +0.000 N 
ATOM     19  C   UNL     1      44.217   6.365  11.433  0.00  0.00    +0.000 C 
ATOM     20  O   UNL     1      43.238   7.094  11.303  0.00  0.00    +0.000 OA
ATOM     21  H   UNL     1      46.192   6.198  12.019  0.00  0.00    +0.000 HD
BRANCH  19  22
ATOM     22  C   UNL     1      44.141   4.924  11.145  0.00  0.00    +0.000 A 
ATOM     23  C   UNL     1      43.401   4.098  11.981  0.00  0.00    +0.000 A 
ATOM     24  S   UNL     1      43.364   2.469  11.478  0.00  0.00    +0.000 S 
ATOM     25  C   UNL     1      44.372   2.796  10.149  0.00  0.00    +0.000 A 
ATOM     26  N   UNL     1      44.743   1.807   9.293  0.00  0.00    +0.000 NA
ATOM     27  C   UNL     1      45.527   2.190   8.340  0.00  0.00    +0.000 A 
ATOM     28  N   UNL     1      45.974   3.474   8.168  0.00  0.00    +0.000 N 
ATOM     29  C   UNL     1      45.592   4.512   8.982  0.00  0.00    +0.000 A 
ATOM     30  O   UNL     1      45.949   5.661   8.748  0.00  0.00    +0.000 OA
ATOM     31  C   UNL     1      44.722   4.135  10.080  0.00  0.00    +0.000 A 
ATOM     32  H   UNL     1      46.572   3.711   7.391  0.00  0.00    +0.000 HD
ENDBRANCH  19  22
ENDBRANCH  17  18
ENDBRANCH   4  17
TORSDOF 6
ENDMDL
MODEL 8
REMARK VINA RESULT:    -6.674      3.277      8.638
REMARK INTER + INTRA:          -9.403
REMARK INTER:                  -8.192
REMARK INTRA:                  -1.212
REMARK UNBOUND:                -0.388
REMARK  Name = 
REMARK  6 active torsions:
REMARK  status: ('A' for Active; 'I' for Inactive)
REMARK    1  A    between atoms: C_2  and  C_25
REMARK    2  A    between atoms: N_3  and  C_4
REMARK    3  A    between atoms: C_4  and  C_5
REMARK    4  A    between atoms: C_8  and  C_9
REMARK    5  A    between atoms: C_9  and  N_10
REMARK    6  A    between atoms: C_11  and  C_13
REMARK                            x       y       z     vdW  Elec       q    Type
REMARK                         _______ _______ _______ _____ _____    ______ ____
ROOT
ATOM      1  C   UNL     1      51.387   7.585  15.898  0.00  0.00    +0.000 C 
ATOM      2  C   UNL     1      50.136   6.900  15.323  0.00  0.00    +0.000 C 
ATOM      3  C   UNL     1      48.868   7.240  16.108  0.00  0.00    +0.000 C 
ATOM      4  C   UNL     1      48.618   8.753  16.239  0.00  0.00    +0.000 C 
ATOM      5  C   UNL     1      49.873   9.441  16.803  0.00  0.00    +0.000 C 
ATOM      6  C   UNL     1      51.147   9.099  16.025  0.00  0.00    +0.000 C 
ENDROOT
BRANCH   1   7
ATOM      7  C   UNL     1      51.822   6.979  17.248  0.00  0.00    +0.000 C 
BRANCH   7  10
ATOM      8  O   UNL     1      50.226   5.080  18.552  0.00  0.00    +0.000 OA
ATOM      9  C   UNL     1      51.164   4.671  17.870  0.00  0.00    +0.000 C 
ATOM     10  N   UNL     1      51.988   5.541  17.187  0.00  0.00    +0.000 N 
ATOM     11  H   UNL     1      52.767   5.158  16.664  0.00  0.00    +0.000 HD
BRANCH   9  12
ATOM     12  C   UNL     1      51.465   3.262  17.728  0.00  0.00    +0.000 A 
ATOM     13  C   UNL     1      50.604   2.271  17.293  0.00  0.00    +0.000 A 
ATOM     14  N   UNL     1      51.124   0.990  17.251  0.00  0.00    +0.000 NA
ATOM     15  C   UNL     1      52.374   1.022  17.656  0.00  0.00    +0.000 A 
ATOM     16  S   UNL     1      52.989   2.562  18.093  0.00  0.00    +0.000 S 
ENDBRANCH   9  12
ENDBRANCH   7  10
ENDBRANCH   1   7
BRANCH   4  17
ATOM     17  C   UNL     1      48.169   9.420  14.923  0.00  0.00    +0.000 C 
BRANCH  17  18
ATOM     18  N   UNL     1      47.128   8.677  14.242  0.00  0.00    +0.000 N 
ATOM     19  C   UNL     1      47.322   8.015  13.056  0.00  0.00    +0.000 C 
ATOM     20  O   UNL     1      48.395   8.035  12.461  0.00  0.00    +0.000 OA
ATOM     21  H   UNL     1      46.189   8.755  14.619  0.00  0.00    +0.000 HD
BRANCH  19  22
ATOM     22  C   UNL     1      46.191   7.209  12.568  0.00  0.00    +0.000 A 
ATOM     23  C   UNL     1      45.147   7.833  11.896  0.00  0.00    +0.000 A 
ATOM     24  S   UNL     1      43.946   6.755  11.345  0.00  0.00    +0.000 S 
ATOM     25  C   UNL     1      44.752   5.420  12.021  0.00  0.00    +0.000 A 
ATOM     26  N   UNL     1      44.240   4.165  11.912  0.00  0.00    +0.000 NA
ATOM     27  C   UNL     1      44.942   3.248  12.489  0.00  0.00    +0.000 A 
ATOM     28  N   UNL     1      46.112   3.473  13.167  0.00  0.00    +0.000 N 
ATOM     29  C   UNL     1      46.687   4.716  13.267  0.00  0.00    +0.000 A 
ATOM     30  O   UNL     1      47.775   4.865  13.813  0.00  0.00    +0.000 OA
ATOM     31  C   UNL     1      45.932   5.788  12.648  0.00  0.00    +0.000 A 
ATOM     32  H   UNL     1      46.622   2.709  13.581  0.00  0.00    +0.000 HD
ENDBRANCH  19  22
ENDBRANCH  17  18
ENDBRANCH   4  17
TORSDOF 6
ENDMDL
MODEL 9
REMARK VINA RESULT:    -6.658      3.689      9.856
REMARK INTER + INTRA:          -9.382
REMARK INTER:                  -8.603
REMARK INTRA:                  -0.779
REMARK UNBOUND:                -0.388
REMARK  Name = 
REMARK  6 active torsions:
REMARK  status: ('A' for Active; 'I' for Inactive)
REMARK    1  A    between atoms: C_2  and  C_25
REMARK    2  A    between atoms: N_3  and  C_4
REMARK    3  A    between atoms: C_4  and  C_5
REMARK    4  A    between atoms: C_8  and  C_9
REMARK    5  A    between atoms: C_9  and  N_10
REMARK    6  A    between atoms: C_11  and  C_13
REMARK                            x       y       z     vdW  Elec       q    Type
REMARK                         _______ _______ _______ _____ _____    ______ ____
ROOT
ATOM      1  C   UNL     1      50.723   4.738  17.585  0.00  0.00    +0.000 C 
ATOM      2  C   UNL     1      50.217   3.302  17.804  0.00  0.00    +0.000 C 
ATOM      3  C   UNL     1      48.858   3.260  18.505  0.00  0.00    +0.000 C 
ATOM      4  C   UNL     1      47.776   4.089  17.790  0.00  0.00    +0.000 C 
ATOM      5  C   UNL     1      48.286   5.523  17.560  0.00  0.00    +0.000 C 
ATOM      6  C   UNL     1      49.649   5.571  16.865  0.00  0.00    +0.000 C 
ENDROOT
BRANCH   1   7
ATOM      7  C   UNL     1      51.158   5.416  18.900  0.00  0.00    +0.000 C 
BRANCH   7  10
ATOM      8  O   UNL     1      49.801   7.209  20.574  0.00  0.00    +0.000 OA
ATOM      9  C   UNL     1      50.478   7.676  19.659  0.00  0.00    +0.000 C 
ATOM     10  N   UNL     1      51.185   6.861  18.800  0.00  0.00    +0.000 N 
ATOM     11  H   UNL     1      51.702   7.292  18.043  0.00  0.00    +0.000 HD
BRANCH   9  12
ATOM     12  C   UNL     1      50.586   9.101  19.424  0.00  0.00    +0.000 A 
ATOM     13  C   UNL     1      51.394   9.727  18.492  0.00  0.00    +0.000 A 
ATOM     14  N   UNL     1      51.330  11.108  18.463  0.00  0.00    +0.000 NA
ATOM     15  C   UNL     1      50.475  11.516  19.374  0.00  0.00    +0.000 A 
ATOM     16  S   UNL     1      49.707  10.289  20.295  0.00  0.00    +0.000 S 
ENDBRANCH   9  12
ENDBRANCH   7  10
ENDBRANCH   1   7
BRANCH   4  17
ATOM     17  C   UNL     1      47.288   3.461  16.470  0.00  0.00    +0.000 C 
BRANCH  17  18
ATOM     18  N   UNL     1      46.761   4.441  15.541  0.00  0.00    +0.000 N 
ATOM     19  C   UNL     1      46.825   4.305  14.177  0.00  0.00    +0.000 C 
ATOM     20  O   UNL     1      47.373   3.348  13.638  0.00  0.00    +0.000 OA
ATOM     21  H   UNL     1      46.431   5.316  15.937  0.00  0.00    +0.000 HD
BRANCH  19  22
ATOM     22  C   UNL     1      46.129   5.333  13.387  0.00  0.00    +0.000 A 
ATOM     23  C   UNL     1      46.758   6.548  13.143  0.00  0.00    +0.000 A 
ATOM     24  S   UNL     1      45.846   7.607  12.164  0.00  0.00    +0.000 S 
ATOM     25  C   UNL     1      44.559   6.500  12.067  0.00  0.00    +0.000 A 
ATOM     26  N   UNL     1      43.433   6.798  11.365  0.00  0.00    +0.000 NA
ATOM     27  C   UNL     1      42.527   5.878  11.392  0.00  0.00    +0.000 A 
ATOM     28  N   UNL     1      42.645   4.687  12.059  0.00  0.00    +0.000 N 
ATOM     29  C   UNL     1      43.779   4.327  12.745  0.00  0.00    +0.000 A 
ATOM     30  O   UNL     1      43.878   3.219  13.261  0.00  0.00    +0.000 OA
ATOM     31  C   UNL     1      44.826   5.330  12.760  0.00  0.00    +0.000 A 
ATOM     32  H   UNL     1      41.906   4.002  12.025  0.00  0.00    +0.000 HD
ENDBRANCH  19  22
ENDBRANCH  17  18
ENDBRANCH   4  17
TORSDOF 6
ENDMDL
