MODEL 1
REMARK VINA RESULT:    -8.258      0.000      0.000
REMARK INTER + INTRA:         -13.028
REMARK INTER:                 -11.637
REMARK INTRA:                  -1.391
REMARK UNBOUND:                -1.391
REMARK  Name = 
REMARK  8 active torsions:
REMARK  status: ('A' for Active; 'I' for Inactive)
REMARK    1  A    between atoms: C_1  and  C_2
REMARK    2  A    between atoms: C_2  and  C_3
REMARK    3  A    between atoms: C_2  and  C_25
REMARK    4  A    between atoms: C_3  and  N_4
REMARK    5  A    between atoms: N_4  and  C_5
REMARK    6  A    between atoms: C_8  and  C_9
REMARK    7  A    between atoms: C_9  and  N_10
REMARK    8  A    between atoms: C_11  and  C_13
REMARK                            x       y       z     vdW  Elec       q    Type
REMARK                         _______ _______ _______ _____ _____    ______ ____
ROOT
ATOM      1  C   UNL     1      45.087   5.953  11.315  0.00  0.00    +0.000 C 
ATOM      2  C   UNL     1      44.474   7.253  11.852  0.00  0.00    +0.000 C 
ATOM      3  C   UNL     1      45.382   7.925  12.878  0.00  0.00    +0.000 C 
ATOM      4  C   UNL     1      46.788   8.202  12.323  0.00  0.00    +0.000 C 
ATOM      5  C   UNL     1      47.397   6.901  11.786  0.00  0.00    +0.000 C 
ATOM      6  C   UNL     1      46.494   6.227  10.759  0.00  0.00    +0.000 C 
ENDROOT
BRANCH   1   7
ATOM      7  N   UNL     1      44.165   5.400  10.305  0.00  0.00    +0.000 NA
ATOM      8  H   UNL     1      43.573   4.705  10.760  0.00  0.00    +0.000 HD
BRANCH   7   9
ATOM      9  C   UNL     1      44.886   4.751   9.199  0.00  0.00    +0.000 C 
BRANCH   9  11
ATOM     10  C   UNL     1      44.398   2.498  10.325  0.00  0.00    +0.000 C 
ATOM     11  C   UNL     1      44.524   3.263   9.006  0.00  0.00    +0.000 C 
BRANCH  11  12
ATOM     12  C   UNL     1      45.592   2.627   8.130  0.00  0.00    +0.000 A 
ATOM     13  C   UNL     1      46.221   3.366   7.131  0.00  0.00    +0.000 A 
ATOM     14  C   UNL     1      47.234   2.765   6.388  0.00  0.00    +0.000 A 
ATOM     15  C   UNL     1      47.593   1.450   6.660  0.00  0.00    +0.000 A 
ATOM     16  C   UNL     1      46.918   0.785   7.667  0.00  0.00    +0.000 A 
ATOM     17  N   UNL     1      45.931   1.341   8.401  0.00  0.00    +0.000 NA
ENDBRANCH  11  12
ENDBRANCH   9  11
ENDBRANCH   7   9
ENDBRANCH   1   7
BRANCH   4  18
ATOM     18  C   UNL     1      47.724   8.807  13.380  0.00  0.00    +0.000 C 
BRANCH  18  19
ATOM     19  N   UNL     1      47.829   7.996  14.573  0.00  0.00    +0.000 N 
ATOM     20  C   UNL     1      49.040   7.488  14.979  0.00  0.00    +0.000 C 
ATOM     21  O   UNL     1      50.090   7.765  14.406  0.00  0.00    +0.000 OA
ATOM     22  H   UNL     1      46.988   7.538  14.909  0.00  0.00    +0.000 HD
BRANCH  20  23
ATOM     23  C   UNL     1      49.022   6.646  16.180  0.00  0.00    +0.000 A 
ATOM     24  C   UNL     1      49.746   7.036  17.299  0.00  0.00    +0.000 A 
ATOM     25  S   UNL     1      49.569   5.985  18.629  0.00  0.00    +0.000 S 
ATOM     26  C   UNL     1      48.561   4.942  17.741  0.00  0.00    +0.000 A 
ATOM     27  N   UNL     1      48.058   3.809  18.303  0.00  0.00    +0.000 NA
ATOM     28  C   UNL     1      47.333   3.095  17.509  0.00  0.00    +0.000 A 
ATOM     29  N   UNL     1      47.065   3.412  16.204  0.00  0.00    +0.000 N 
ATOM     30  C   UNL     1      47.538   4.552  15.600  0.00  0.00    +0.000 A 
ATOM     31  O   UNL     1      47.261   4.819  14.436  0.00  0.00    +0.000 OA
ATOM     32  C   UNL     1      48.353   5.396  16.450  0.00  0.00    +0.000 A 
ATOM     33  H   UNL     1      46.490   2.811  15.633  0.00  0.00    +0.000 HD
ENDBRANCH  20  23
ENDBRANCH  18  19
ENDBRANCH   4  18
TORSDOF 7
ENDMDL
MODEL 2
REMARK VINA RESULT:    -7.807      2.967      3.621
REMARK INTER + INTRA:         -12.393
REMARK INTER:                 -11.020
REMARK INTRA:                  -1.373
REMARK UNBOUND:                -1.391
REMARK  Name = 
REMARK  8 active torsions:
REMARK  status: ('A' for Active; 'I' for Inactive)
REMARK    1  A    between atoms: C_1  and  C_2
REMARK    2  A    between atoms: C_2  and  C_3
REMARK    3  A    between atoms: C_2  and  C_25
REMARK    4  A    between atoms: C_3  and  N_4
REMARK    5  A    between atoms: N_4  and  C_5
REMARK    6  A    between atoms: C_8  and  C_9
REMARK    7  A    between atoms: C_9  and  N_10
REMARK    8  A    between atoms: C_11  and  C_13
REMARK                            x       y       z     vdW  Elec       q    Type
REMARK                         _______ _______ _______ _____ _____    ______ ____
ROOT
ATOM      1  C   UNL     1      46.175   5.796  12.492  0.00  0.00    +0.000 C 
ATOM      2  C   UNL     1      47.366   6.761  12.442  0.00  0.00    +0.000 C 
ATOM      3  C   UNL     1      47.853   7.133  13.840  0.00  0.00    +0.000 C 
ATOM      4  C   UNL     1      48.217   5.899  14.680  0.00  0.00    +0.000 C 
ATOM      5  C   UNL     1      47.025   4.936  14.728  0.00  0.00    +0.000 C 
ATOM      6  C   UNL     1      46.536   4.560  13.333  0.00  0.00    +0.000 C 
ENDROOT
BRANCH   1   7
ATOM      7  N   UNL     1      45.803   5.461  11.105  0.00  0.00    +0.000 NA
ATOM      8  H   UNL     1      46.219   6.158  10.486  0.00  0.00    +0.000 HD
BRANCH   7   9
ATOM      9  C   UNL     1      44.345   5.468  10.909  0.00  0.00    +0.000 C 
BRANCH   9  11
ATOM     10  C   UNL     1      43.524   3.110  11.496  0.00  0.00    +0.000 C 
ATOM     11  C   UNL     1      43.779   4.131  10.386  0.00  0.00    +0.000 C 
BRANCH  11  12
ATOM     12  C   UNL     1      44.761   3.568   9.371  0.00  0.00    +0.000 A 
ATOM     13  C   UNL     1      45.084   2.213   9.373  0.00  0.00    +0.000 A 
ATOM     14  C   UNL     1      45.944   1.725   8.392  0.00  0.00    +0.000 A 
ATOM     15  C   UNL     1      46.457   2.597   7.439  0.00  0.00    +0.000 A 
ATOM     16  C   UNL     1      46.090   3.928   7.508  0.00  0.00    +0.000 A 
ATOM     17  N   UNL     1      45.260   4.429   8.448  0.00  0.00    +0.000 NA
ENDBRANCH  11  12
ENDBRANCH   9  11
ENDBRANCH   7   9
ENDBRANCH   1   7
BRANCH   4  18
ATOM     18  C   UNL     1      48.632   6.270  16.112  0.00  0.00    +0.000 C 
BRANCH  18  19
ATOM     19  N   UNL     1      49.757   5.497  16.592  0.00  0.00    +0.000 N 
ATOM     20  C   UNL     1      49.952   5.293  17.938  0.00  0.00    +0.000 C 
ATOM     21  O   UNL     1      49.147   5.677  18.781  0.00  0.00    +0.000 OA
ATOM     22  H   UNL     1      50.557   5.394  15.978  0.00  0.00    +0.000 HD
BRANCH  20  23
ATOM     23  C   UNL     1      51.147   4.527  18.312  0.00  0.00    +0.000 A 
ATOM     24  C   UNL     1      52.134   5.133  19.079  0.00  0.00    +0.000 A 
ATOM     25  S   UNL     1      53.422   4.092  19.482  0.00  0.00    +0.000 S 
ATOM     26  C   UNL     1      52.733   2.810  18.601  0.00  0.00    +0.000 A 
ATOM     27  N   UNL     1      53.356   1.602  18.523  0.00  0.00    +0.000 NA
ATOM     28  C   UNL     1      52.738   0.729  17.799  0.00  0.00    +0.000 A 
ATOM     29  N   UNL     1      51.556   0.955  17.147  0.00  0.00    +0.000 N 
ATOM     30  C   UNL     1      50.886   2.153  17.210  0.00  0.00    +0.000 A 
ATOM     31  O   UNL     1      49.817   2.317  16.632  0.00  0.00    +0.000 OA
ATOM     32  C   UNL     1      51.531   3.168  18.017  0.00  0.00    +0.000 A 
ATOM     33  H   UNL     1      51.123   0.230  16.595  0.00  0.00    +0.000 HD
ENDBRANCH  20  23
ENDBRANCH  18  19
ENDBRANCH   4  18
TORSDOF 7
ENDMDL
MODEL 3
REMARK VINA RESULT:    -7.636      1.964      2.573
REMARK INTER + INTRA:         -12.152
REMARK INTER:                 -10.911
REMARK INTRA:                  -1.241
REMARK UNBOUND:                -1.391
REMARK  Name = 
REMARK  8 active torsions:
REMARK  status: ('A' for Active; 'I' for Inactive)
REMARK    1  A    between atoms: C_1  and  C_2
REMARK    2  A    between atoms: C_2  and  C_3
REMARK    3  A    between atoms: C_2  and  C_25
REMARK    4  A    between atoms: C_3  and  N_4
REMARK    5  A    between atoms: N_4  and  C_5
REMARK    6  A    between atoms: C_8  and  C_9
REMARK    7  A    between atoms: C_9  and  N_10
REMARK    8  A    between atoms: C_11  and  C_13
REMARK                            x       y       z     vdW  Elec       q    Type
REMARK                         _______ _______ _______ _____ _____    ______ ____
ROOT
ATOM      1  C   UNL     1      44.511   5.582  11.561  0.00  0.00    +0.000 C 
ATOM      2  C   UNL     1      45.677   6.140  10.735  0.00  0.00    +0.000 C 
ATOM      3  C   UNL     1      46.670   6.909  11.602  0.00  0.00    +0.000 C 
ATOM      4  C   UNL     1      47.212   6.060  12.762  0.00  0.00    +0.000 C 
ATOM      5  C   UNL     1      46.045   5.503  13.586  0.00  0.00    +0.000 C 
ATOM      6  C   UNL     1      45.051   4.732  12.724  0.00  0.00    +0.000 C 
ENDROOT
BRANCH   1   7
ATOM      7  N   UNL     1      43.632   4.823  10.653  0.00  0.00    +0.000 NA
ATOM      8  H   UNL     1      43.320   3.982  11.140  0.00  0.00    +0.000 HD
BRANCH   7   9
ATOM      9  C   UNL     1      44.328   4.422   9.420  0.00  0.00    +0.000 C 
BRANCH   9  11
ATOM     10  C   UNL     1      44.266   2.057  10.414  0.00  0.00    +0.000 C 
ATOM     11  C   UNL     1      44.276   2.905   9.140  0.00  0.00    +0.000 C 
BRANCH  11  12
ATOM     12  C   UNL     1      45.475   2.543   8.278  0.00  0.00    +0.000 A 
ATOM     13  C   UNL     1      46.086   3.503   7.474  0.00  0.00    +0.000 A 
ATOM     14  C   UNL     1      47.216   3.147   6.743  0.00  0.00    +0.000 A 
ATOM     15  C   UNL     1      47.708   1.850   6.834  0.00  0.00    +0.000 A 
ATOM     16  C   UNL     1      47.043   0.957   7.653  0.00  0.00    +0.000 A 
ATOM     17  N   UNL     1      45.944   1.273   8.371  0.00  0.00    +0.000 NA
ENDBRANCH  11  12
ENDBRANCH   9  11
ENDBRANCH   7   9
ENDBRANCH   1   7
BRANCH   4  18
ATOM     18  C   UNL     1      48.151   6.858  13.679  0.00  0.00    +0.000 C 
BRANCH  18  19
ATOM     19  N   UNL     1      47.984   6.533  15.080  0.00  0.00    +0.000 N 
ATOM     20  C   UNL     1      49.072   6.360  15.901  0.00  0.00    +0.000 C 
ATOM     21  O   UNL     1      50.221   6.554  15.513  0.00  0.00    +0.000 OA
ATOM     22  H   UNL     1      47.104   6.117  15.367  0.00  0.00    +0.000 HD
BRANCH  20  23
ATOM     23  C   UNL     1      48.785   5.994  17.293  0.00  0.00    +0.000 A 
ATOM     24  C   UNL     1      48.980   4.684  17.710  0.00  0.00    +0.000 A 
ATOM     25  S   UNL     1      48.663   4.438  19.366  0.00  0.00    +0.000 S 
ATOM     26  C   UNL     1      48.202   6.062  19.574  0.00  0.00    +0.000 A 
ATOM     27  N   UNL     1      47.791   6.523  20.788  0.00  0.00    +0.000 NA
ATOM     28  C   UNL     1      47.442   7.766  20.798  0.00  0.00    +0.000 A 
ATOM     29  N   UNL     1      47.467   8.589  19.704  0.00  0.00    +0.000 N 
ATOM     30  C   UNL     1      47.887   8.172  18.465  0.00  0.00    +0.000 A 
ATOM     31  O   UNL     1      47.920   8.941  17.510  0.00  0.00    +0.000 OA
ATOM     32  C   UNL     1      48.299   6.785  18.398  0.00  0.00    +0.000 A 
ATOM     33  H   UNL     1      47.180   9.554  19.777  0.00  0.00    +0.000 HD
ENDBRANCH  20  23
ENDBRANCH  18  19
ENDBRANCH   4  18
TORSDOF 7
ENDMDL
MODEL 4
REMARK VINA RESULT:    -7.247      2.866      7.876
REMARK INTER + INTRA:         -11.603
REMARK INTER:                  -9.871
REMARK INTRA:                  -1.732
REMARK UNBOUND:                -1.391
REMARK  Name = 
REMARK  8 active torsions:
REMARK  status: ('A' for Active; 'I' for Inactive)
REMARK    1  A    between atoms: C_1  and  C_2
REMARK    2  A    between atoms: C_2  and  C_3
REMARK    3  A    between atoms: C_2  and  C_25
REMARK    4  A    between atoms: C_3  and  N_4
REMARK    5  A    between atoms: N_4  and  C_5
REMARK    6  A    between atoms: C_8  and  C_9
REMARK    7  A    between atoms: C_9  and  N_10
REMARK    8  A    between atoms: C_11  and  C_13
REMARK                            x       y       z     vdW  Elec       q    Type
REMARK                         _______ _______ _______ _____ _____    ______ ____
ROOT
ATOM      1  C   UNL     1      49.025   7.612  15.977  0.00  0.00    +0.000 C 
ATOM      2  C   UNL     1      49.917   7.123  14.830  0.00  0.00    +0.000 C 
ATOM      3  C   UNL     1      49.150   7.038  13.513  0.00  0.00    +0.000 C 
ATOM      4  C   UNL     1      48.496   8.374  13.131  0.00  0.00    +0.000 C 
ATOM      5  C   UNL     1      47.605   8.861  14.279  0.00  0.00    +0.000 C 
ATOM      6  C   UNL     1      48.367   8.949  15.598  0.00  0.00    +0.000 C 
ENDROOT
BRANCH   1   7
ATOM      7  N   UNL     1      49.856   7.703  17.193  0.00  0.00    +0.000 NA
ATOM      8  H   UNL     1      50.776   7.316  16.979  0.00  0.00    +0.000 HD
BRANCH   7   9
ATOM      9  C   UNL     1      49.276   6.948  18.314  0.00  0.00    +0.000 C 
BRANCH   9  11
ATOM     10  C   UNL     1      47.075   5.777  18.920  0.00  0.00    +0.000 C 
ATOM     11  C   UNL     1      48.194   5.932  17.888  0.00  0.00    +0.000 C 
BRANCH  11  12
ATOM     12  C   UNL     1      48.873   4.593  17.647  0.00  0.00    +0.000 A 
ATOM     13  C   UNL     1      48.163   3.525  17.104  0.00  0.00    +0.000 A 
ATOM     14  C   UNL     1      48.835   2.333  16.846  0.00  0.00    +0.000 A 
ATOM     15  C   UNL     1      50.191   2.238  17.132  0.00  0.00    +0.000 A 
ATOM     16  C   UNL     1      50.823   3.343  17.672  0.00  0.00    +0.000 A 
ATOM     17  N   UNL     1      50.197   4.509  17.935  0.00  0.00    +0.000 NA
ENDBRANCH  11  12
ENDBRANCH   9  11
ENDBRANCH   7   9
ENDBRANCH   1   7
BRANCH   4  18
ATOM     18  C   UNL     1      47.660   8.268  11.846  0.00  0.00    +0.000 C 
BRANCH  18  19
ATOM     19  N   UNL     1      46.969   7.003  11.724  0.00  0.00    +0.000 N 
ATOM     20  C   UNL     1      45.598   6.936  11.800  0.00  0.00    +0.000 C 
ATOM     21  O   UNL     1      44.898   7.941  11.886  0.00  0.00    +0.000 OA
ATOM     22  H   UNL     1      47.494   6.157  11.915  0.00  0.00    +0.000 HD
BRANCH  20  23
ATOM     23  C   UNL     1      45.006   5.597  11.703  0.00  0.00    +0.000 A 
ATOM     24  C   UNL     1      44.358   5.055  12.806  0.00  0.00    +0.000 A 
ATOM     25  S   UNL     1      43.672   3.523  12.511  0.00  0.00    +0.000 S 
ATOM     26  C   UNL     1      44.262   3.505  10.916  0.00  0.00    +0.000 A 
ATOM     27  N   UNL     1      44.032   2.442  10.097  0.00  0.00    +0.000 NA
ATOM     28  C   UNL     1      44.561   2.547   8.924  0.00  0.00    +0.000 A 
ATOM     29  N   UNL     1      45.298   3.618   8.496  0.00  0.00    +0.000 N 
ATOM     30  C   UNL     1      45.542   4.718   9.282  0.00  0.00    +0.000 A 
ATOM     31  O   UNL     1      46.186   5.673   8.861  0.00  0.00    +0.000 OA
ATOM     32  C   UNL     1      44.963   4.658  10.609  0.00  0.00    +0.000 A 
ATOM     33  H   UNL     1      45.686   3.640   7.565  0.00  0.00    +0.000 HD
ENDBRANCH  20  23
ENDBRANCH  18  19
ENDBRANCH   4  18
TORSDOF 7
ENDMDL
MODEL 5
REMARK VINA RESULT:    -7.068      1.347      1.746
REMARK INTER + INTRA:         -11.352
REMARK INTER:                 -10.135
REMARK INTRA:                  -1.217
REMARK UNBOUND:                -1.391
REMARK  Name = 
REMARK  8 active torsions:
REMARK  status: ('A' for Active; 'I' for Inactive)
REMARK    1  A    between atoms: C_1  and  C_2
REMARK    2  A    between atoms: C_2  and  C_3
REMARK    3  A    between atoms: C_2  and  C_25
REMARK    4  A    between atoms: C_3  and  N_4
REMARK    5  A    between atoms: N_4  and  C_5
REMARK    6  A    between atoms: C_8  and  C_9
REMARK    7  A    between atoms: C_9  and  N_10
REMARK    8  A    between atoms: C_11  and  C_13
REMARK                            x       y       z     vdW  Elec       q    Type
REMARK                         _______ _______ _______ _____ _____    ______ ____
ROOT
ATOM      1  C   UNL     1      45.366   6.208  11.000  0.00  0.00    +0.000 C 
ATOM      2  C   UNL     1      46.090   5.511  12.158  0.00  0.00    +0.000 C 
ATOM      3  C   UNL     1      47.187   6.390  12.752  0.00  0.00    +0.000 C 
ATOM      4  C   UNL     1      46.655   7.754  13.216  0.00  0.00    +0.000 C 
ATOM      5  C   UNL     1      45.931   8.449  12.057  0.00  0.00    +0.000 C 
ATOM      6  C   UNL     1      44.832   7.574  11.462  0.00  0.00    +0.000 C 
ENDROOT
BRANCH   1   7
ATOM      7  N   UNL     1      44.302   5.306  10.521  0.00  0.00    +0.000 NA
ATOM      8  H   UNL     1      44.190   4.554  11.202  0.00  0.00    +0.000 HD
BRANCH   7   9
ATOM      9  C   UNL     1      44.630   4.713   9.215  0.00  0.00    +0.000 C 
BRANCH   9  11
ATOM     10  C   UNL     1      44.596   2.526  10.556  0.00  0.00    +0.000 C 
ATOM     11  C   UNL     1      44.490   3.176   9.175  0.00  0.00    +0.000 C 
BRANCH  11  12
ATOM     12  C   UNL     1      45.568   2.629   8.253  0.00  0.00    +0.000 A 
ATOM     13  C   UNL     1      46.166   3.447   7.297  0.00  0.00    +0.000 A 
ATOM     14  C   UNL     1      47.188   2.924   6.510  0.00  0.00    +0.000 A 
ATOM     15  C   UNL     1      47.588   1.606   6.697  0.00  0.00    +0.000 A 
ATOM     16  C   UNL     1      46.943   0.860   7.666  0.00  0.00    +0.000 A 
ATOM     17  N   UNL     1      45.947   1.339   8.441  0.00  0.00    +0.000 NA
ENDBRANCH  11  12
ENDBRANCH   9  11
ENDBRANCH   7   9
ENDBRANCH   1   7
BRANCH   4  18
ATOM     18  C   UNL     1      47.773   8.668  13.742  0.00  0.00    +0.000 C 
BRANCH  18  19
ATOM     19  N   UNL     1      48.635   8.012  14.701  0.00  0.00    +0.000 N 
ATOM     20  C   UNL     1      48.671   8.419  16.014  0.00  0.00    +0.000 C 
ATOM     21  O   UNL     1      47.921   9.287  16.450  0.00  0.00    +0.000 OA
ATOM     22  H   UNL     1      49.431   7.495  14.345  0.00  0.00    +0.000 HD
BRANCH  20  23
ATOM     23  C   UNL     1      49.611   7.708  16.889  0.00  0.00    +0.000 A 
ATOM     24  C   UNL     1      50.593   8.424  17.560  0.00  0.00    +0.000 A 
ATOM     25  S   UNL     1      51.561   7.463  18.583  0.00  0.00    +0.000 S 
ATOM     26  C   UNL     1      50.735   6.048  18.125  0.00  0.00    +0.000 A 
ATOM     27  N   UNL     1      51.087   4.837  18.638  0.00  0.00    +0.000 NA
ATOM     28  C   UNL     1      50.398   3.844  18.182  0.00  0.00    +0.000 A 
ATOM     29  N   UNL     1      49.391   3.954  17.261  0.00  0.00    +0.000 N 
ATOM     30  C   UNL     1      48.993   5.156  16.729  0.00  0.00    +0.000 A 
ATOM     31  O   UNL     1      48.072   5.223  15.923  0.00  0.00    +0.000 OA
ATOM     32  C   UNL     1      49.728   6.307  17.212  0.00  0.00    +0.000 A 
ATOM     33  H   UNL     1      48.889   3.137  16.944  0.00  0.00    +0.000 HD
ENDBRANCH  20  23
ENDBRANCH  18  19
ENDBRANCH   4  18
TORSDOF 7
ENDMDL
MODEL 6
REMARK VINA RESULT:    -6.748      3.496      7.944
REMARK INTER + INTRA:         -10.900
REMARK INTER:                  -8.949
REMARK INTRA:                  -1.951
REMARK UNBOUND:                -1.391
REMARK  Name = 
REMARK  8 active torsions:
REMARK  status: ('A' for Active; 'I' for Inactive)
REMARK    1  A    between atoms: C_1  and  C_2
REMARK    2  A    between atoms: C_2  and  C_3
REMARK    3  A    between atoms: C_2  and  C_25
REMARK    4  A    between atoms: C_3  and  N_4
REMARK    5  A    between atoms: N_4  and  C_5
REMARK    6  A    between atoms: C_8  and  C_9
REMARK    7  A    between atoms: C_9  and  N_10
REMARK    8  A    between atoms: C_11  and  C_13
REMARK                            x       y       z     vdW  Elec       q    Type
REMARK                         _______ _______ _______ _____ _____    ______ ____
ROOT
ATOM      1  C   UNL     1      50.694   7.667  17.523  0.00  0.00    +0.000 C 
ATOM      2  C   UNL     1      49.251   8.084  17.831  0.00  0.00    +0.000 C 
ATOM      3  C   UNL     1      48.578   8.734  16.624  0.00  0.00    +0.000 C 
ATOM      4  C   UNL     1      48.605   7.828  15.384  0.00  0.00    +0.000 C 
ATOM      5  C   UNL     1      50.048   7.412  15.078  0.00  0.00    +0.000 C 
ATOM      6  C   UNL     1      50.724   6.761  16.281  0.00  0.00    +0.000 C 
ENDROOT
BRANCH   1   7
ATOM      7  N   UNL     1      51.245   7.014  18.725  0.00  0.00    +0.000 NA
ATOM      8  H   UNL     1      51.995   6.387  18.432  0.00  0.00    +0.000 HD
BRANCH   7   9
ATOM      9  C   UNL     1      50.227   6.229  19.441  0.00  0.00    +0.000 C 
BRANCH   9  11
ATOM     10  C   UNL     1      51.934   4.349  19.072  0.00  0.00    +0.000 C 
ATOM     11  C   UNL     1      50.489   4.707  19.426  0.00  0.00    +0.000 C 
BRANCH  11  12
ATOM     12  C   UNL     1      49.532   4.074  18.428  0.00  0.00    +0.000 A 
ATOM     13  C   UNL     1      48.284   4.642  18.185  0.00  0.00    +0.000 A 
ATOM     14  C   UNL     1      47.459   4.065  17.223  0.00  0.00    +0.000 A 
ATOM     15  C   UNL     1      47.899   2.943  16.530  0.00  0.00    +0.000 A 
ATOM     16  C   UNL     1      49.150   2.440  16.832  0.00  0.00    +0.000 A 
ATOM     17  N   UNL     1      49.970   2.976  17.761  0.00  0.00    +0.000 NA
ENDBRANCH  11  12
ENDBRANCH   9  11
ENDBRANCH   7   9
ENDBRANCH   1   7
BRANCH   4  18
ATOM     18  C   UNL     1      47.998   8.512  14.149  0.00  0.00    +0.000 C 
BRANCH  18  19
ATOM     19  N   UNL     1      46.786   7.872  13.687  0.00  0.00    +0.000 N 
ATOM     20  C   UNL     1      46.812   6.981  12.640  0.00  0.00    +0.000 C 
ATOM     21  O   UNL     1      47.861   6.624  12.111  0.00  0.00    +0.000 OA
ATOM     22  H   UNL     1      45.902   8.318  13.905  0.00  0.00    +0.000 HD
BRANCH  20  23
ATOM     23  C   UNL     1      45.518   6.423  12.229  0.00  0.00    +0.000 A 
ATOM     24  C   UNL     1      44.527   7.271  11.754  0.00  0.00    +0.000 A 
ATOM     25  S   UNL     1      43.111   6.461  11.260  0.00  0.00    +0.000 S 
ATOM     26  C   UNL     1      43.752   4.952  11.713  0.00  0.00    +0.000 A 
ATOM     27  N   UNL     1      43.025   3.810  11.563  0.00  0.00    +0.000 NA
ATOM     28  C   UNL     1      43.620   2.741  11.974  0.00  0.00    +0.000 A 
ATOM     29  N   UNL     1      44.875   2.710  12.521  0.00  0.00    +0.000 N 
ATOM     30  C   UNL     1      45.650   3.833  12.677  0.00  0.00    +0.000 A 
ATOM     31  O   UNL     1      46.779   3.769  13.149  0.00  0.00    +0.000 OA
ATOM     32  C   UNL     1      45.033   5.063  12.224  0.00  0.00    +0.000 A 
ATOM     33  H   UNL     1      45.286   1.839  12.824  0.00  0.00    +0.000 HD
ENDBRANCH  20  23
ENDBRANCH  18  19
ENDBRANCH   4  18
TORSDOF 7
ENDMDL
MODEL 7
REMARK VINA RESULT:    -6.228      3.339      4.497
REMARK INTER + INTRA:         -10.168
REMARK INTER:                  -9.024
REMARK INTRA:                  -1.144
REMARK UNBOUND:                -1.391
REMARK  Name = 
REMARK  8 active torsions:
REMARK  status: ('A' for Active; 'I' for Inactive)
REMARK    1  A    between atoms: C_1  and  C_2
REMARK    2  A    between atoms: C_2  and  C_3
REMARK    3  A    between atoms: C_2  and  C_25
REMARK    4  A    between atoms: C_3  and  N_4
REMARK    5  A    between atoms: N_4  and  C_5
REMARK    6  A    between atoms: C_8  and  C_9
REMARK    7  A    between atoms: C_9  and  N_10
REMARK    8  A    between atoms: C_11  and  C_13
REMARK                            x       y       z     vdW  Elec       q    Type
REMARK                         _______ _______ _______ _____ _____    ______ ____
ROOT
ATOM      1  C   UNL     1      45.463   5.985  11.135  0.00  0.00    +0.000 C 
ATOM      2  C   UNL     1      46.241   5.463  12.349  0.00  0.00    +0.000 C 
ATOM      3  C   UNL     1      47.227   6.501  12.879  0.00  0.00    +0.000 C 
ATOM      4  C   UNL     1      46.543   7.830  13.230  0.00  0.00    +0.000 C 
ATOM      5  C   UNL     1      45.766   8.349  12.016  0.00  0.00    +0.000 C 
ATOM      6  C   UNL     1      44.777   7.316  11.484  0.00  0.00    +0.000 C 
ENDROOT
BRANCH   1   7
ATOM      7  N   UNL     1      44.510   4.937  10.721  0.00  0.00    +0.000 NA
ATOM      8  H   UNL     1      44.680   4.109  11.292  0.00  0.00    +0.000 HD
BRANCH   7   9
ATOM      9  C   UNL     1      44.672   4.574   9.305  0.00  0.00    +0.000 C 
BRANCH   9  11
ATOM     10  C   UNL     1      44.294   2.230  10.278  0.00  0.00    +0.000 C 
ATOM     11  C   UNL     1      44.422   3.079   9.011  0.00  0.00    +0.000 C 
BRANCH  11  12
ATOM     12  C   UNL     1      45.567   2.569   8.151  0.00  0.00    +0.000 A 
ATOM     13  C   UNL     1      46.217   3.419   7.259  0.00  0.00    +0.000 A 
ATOM     14  C   UNL     1      47.297   2.929   6.530  0.00  0.00    +0.000 A 
ATOM     15  C   UNL     1      47.701   1.612   6.709  0.00  0.00    +0.000 A 
ATOM     16  C   UNL     1      47.002   0.833   7.612  0.00  0.00    +0.000 A 
ATOM     17  N   UNL     1      45.950   1.279   8.331  0.00  0.00    +0.000 NA
ENDBRANCH  11  12
ENDBRANCH   9  11
ENDBRANCH   7   9
ENDBRANCH   1   7
BRANCH   4  18
ATOM     18  C   UNL     1      47.547   8.899  13.690  0.00  0.00    +0.000 C 
BRANCH  18  19
ATOM     19  N   UNL     1      48.911   8.590  13.318  0.00  0.00    +0.000 N 
ATOM     20  C   UNL     1      49.657   9.469  12.569  0.00  0.00    +0.000 C 
ATOM     21  O   UNL     1      49.238  10.580  12.257  0.00  0.00    +0.000 OA
ATOM     22  H   UNL     1      49.193   7.616  13.323  0.00  0.00    +0.000 HD
BRANCH  20  23
ATOM     23  C   UNL     1      51.013   9.035  12.217  0.00  0.00    +0.000 A 
ATOM     24  C   UNL     1      51.400   9.013  10.884  0.00  0.00    +0.000 A 
ATOM     25  S   UNL     1      53.023   8.548  10.649  0.00  0.00    +0.000 S 
ATOM     26  C   UNL     1      53.251   8.307  12.317  0.00  0.00    +0.000 A 
ATOM     27  N   UNL     1      54.449   7.880  12.804  0.00  0.00    +0.000 NA
ATOM     28  C   UNL     1      54.476   7.710  14.084  0.00  0.00    +0.000 A 
ATOM     29  N   UNL     1      53.413   7.928  14.919  0.00  0.00    +0.000 N 
ATOM     30  C   UNL     1      52.192   8.372  14.475  0.00  0.00    +0.000 A 
ATOM     31  O   UNL     1      51.267   8.580  15.252  0.00  0.00    +0.000 OA
ATOM     32  C   UNL     1      52.108   8.588  13.044  0.00  0.00    +0.000 A 
ATOM     33  H   UNL     1      53.498   7.776  15.914  0.00  0.00    +0.000 HD
ENDBRANCH  20  23
ENDBRANCH  18  19
ENDBRANCH   4  18
TORSDOF 7
ENDMDL
MODEL 8
REMARK VINA RESULT:    -6.207      4.611      7.618
REMARK INTER + INTRA:         -10.138
REMARK INTER:                  -8.720
REMARK INTRA:                  -1.418
REMARK UNBOUND:                -1.391
REMARK  Name = 
REMARK  8 active torsions:
REMARK  status: ('A' for Active; 'I' for Inactive)
REMARK    1  A    between atoms: C_1  and  C_2
REMARK    2  A    between atoms: C_2  and  C_3
REMARK    3  A    between atoms: C_2  and  C_25
REMARK    4  A    between atoms: C_3  and  N_4
REMARK    5  A    between atoms: N_4  and  C_5
REMARK    6  A    between atoms: C_8  and  C_9
REMARK    7  A    between atoms: C_9  and  N_10
REMARK    8  A    between atoms: C_11  and  C_13
REMARK                            x       y       z     vdW  Elec       q    Type
REMARK                         _______ _______ _______ _____ _____    ______ ____
ROOT
ATOM      1  C   UNL     1      50.597   8.908  12.517  0.00  0.00    +0.000 C 
ATOM      2  C   UNL     1      49.930   7.904  11.569  0.00  0.00    +0.000 C 
ATOM      3  C   UNL     1      48.576   7.439  12.097  0.00  0.00    +0.000 C 
ATOM      4  C   UNL     1      47.621   8.611  12.369  0.00  0.00    +0.000 C 
ATOM      5  C   UNL     1      48.290   9.614  13.316  0.00  0.00    +0.000 C 
ATOM      6  C   UNL     1      49.643  10.083  12.792  0.00  0.00    +0.000 C 
ENDROOT
BRANCH   1   7
ATOM      7  N   UNL     1      51.872   9.331  11.908  0.00  0.00    +0.000 NA
ATOM      8  H   UNL     1      52.236  10.118  12.446  0.00  0.00    +0.000 HD
BRANCH   7   9
ATOM      9  C   UNL     1      51.699   9.757  10.511  0.00  0.00    +0.000 C 
BRANCH   9  11
ATOM     10  C   UNL     1      52.809  10.146   8.230  0.00  0.00    +0.000 C 
ATOM     11  C   UNL     1      52.968   9.591   9.647  0.00  0.00    +0.000 C 
BRANCH  11  12
ATOM     12  C   UNL     1      53.313   8.111   9.595  0.00  0.00    +0.000 A 
ATOM     13  C   UNL     1      52.926   7.331   8.507  0.00  0.00    +0.000 A 
ATOM     14  C   UNL     1      53.308   5.993   8.470  0.00  0.00    +0.000 A 
ATOM     15  C   UNL     1      54.065   5.469   9.512  0.00  0.00    +0.000 A 
ATOM     16  C   UNL     1      54.407   6.309  10.555  0.00  0.00    +0.000 A 
ATOM     17  N   UNL     1      54.048   7.609  10.619  0.00  0.00    +0.000 NA
ENDBRANCH  11  12
ENDBRANCH   9  11
ENDBRANCH   7   9
ENDBRANCH   1   7
BRANCH   4  18
ATOM     18  C   UNL     1      46.287   8.148  12.973  0.00  0.00    +0.000 C 
BRANCH  18  19
ATOM     19  N   UNL     1      45.911   6.814  12.559  0.00  0.00    +0.000 N 
ATOM     20  C   UNL     1      44.810   6.604  11.763  0.00  0.00    +0.000 C 
ATOM     21  O   UNL     1      44.152   7.531  11.299  0.00  0.00    +0.000 OA
ATOM     22  H   UNL     1      46.249   6.034  13.113  0.00  0.00    +0.000 HD
BRANCH  20  23
ATOM     23  C   UNL     1      44.501   5.207  11.438  0.00  0.00    +0.000 A 
ATOM     24  C   UNL     1      43.755   4.446  12.329  0.00  0.00    +0.000 A 
ATOM     25  S   UNL     1      43.428   2.868  11.775  0.00  0.00    +0.000 S 
ATOM     26  C   UNL     1      44.316   3.126  10.348  0.00  0.00    +0.000 A 
ATOM     27  N   UNL     1      44.449   2.140   9.419  0.00  0.00    +0.000 NA
ATOM     28  C   UNL     1      45.173   2.460   8.399  0.00  0.00    +0.000 A 
ATOM     29  N   UNL     1      45.776   3.677   8.225  0.00  0.00    +0.000 N 
ATOM     30  C   UNL     1      45.656   4.706   9.127  0.00  0.00    +0.000 A 
ATOM     31  O   UNL     1      46.189   5.793   8.931  0.00  0.00    +0.000 OA
ATOM     32  C   UNL     1      44.846   4.403  10.290  0.00  0.00    +0.000 A 
ATOM     33  H   UNL     1      46.331   3.867   7.404  0.00  0.00    +0.000 HD
ENDBRANCH  20  23
ENDBRANCH  18  19
ENDBRANCH   4  18
TORSDOF 7
ENDMDL
MODEL 9
REMARK VINA RESULT:    -6.127      5.219      7.156
REMARK INTER + INTRA:         -10.025
REMARK INTER:                  -8.839
REMARK INTRA:                  -1.186
REMARK UNBOUND:                -1.391
REMARK  Name = 
REMARK  8 active torsions:
REMARK  status: ('A' for Active; 'I' for Inactive)
REMARK    1  A    between atoms: C_1  and  C_2
REMARK    2  A    between atoms: C_2  and  C_3
REMARK    3  A    between atoms: C_2  and  C_25
REMARK    4  A    between atoms: C_3  and  N_4
REMARK    5  A    between atoms: N_4  and  C_5
REMARK    6  A    between atoms: C_8  and  C_9
REMARK    7  A    between atoms: C_9  and  N_10
REMARK    8  A    between atoms: C_11  and  C_13
REMARK                            x       y       z     vdW  Elec       q    Type
REMARK                         _______ _______ _______ _____ _____    ______ ____
ROOT
ATOM      1  C   UNL     1      47.292   7.790  12.620  0.00  0.00    +0.000 C 
ATOM      2  C   UNL     1      48.418   6.766  12.438  0.00  0.00    +0.000 C 
ATOM      3  C   UNL     1      49.659   7.395  11.809  0.00  0.00    +0.000 C 
ATOM      4  C   UNL     1      50.174   8.599  12.612  0.00  0.00    +0.000 C 
ATOM      5  C   UNL     1      49.046   9.620  12.793  0.00  0.00    +0.000 C 
ATOM      6  C   UNL     1      47.804   8.997  13.423  0.00  0.00    +0.000 C 
ENDROOT
BRANCH   1   7
ATOM      7  N   UNL     1      46.157   7.106  13.269  0.00  0.00    +0.000 NA
ATOM      8  H   UNL     1      46.517   6.284  13.757  0.00  0.00    +0.000 HD
BRANCH   7   9
ATOM      9  C   UNL     1      45.147   6.669  12.294  0.00  0.00    +0.000 C 
BRANCH   9  11
ATOM     10  C   UNL     1      45.718   4.396  13.337  0.00  0.00    +0.000 C 
ATOM     11  C   UNL     1      44.811   5.164  12.374  0.00  0.00    +0.000 C 
BRANCH  11  12
ATOM     12  C   UNL     1      44.919   4.581  10.974  0.00  0.00    +0.000 A 
ATOM     13  C   UNL     1      45.557   5.290   9.959  0.00  0.00    +0.000 A 
ATOM     14  C   UNL     1      45.684   4.698   8.705  0.00  0.00    +0.000 A 
ATOM     15  C   UNL     1      45.177   3.421   8.497  0.00  0.00    +0.000 A 
ATOM     16  C   UNL     1      44.556   2.786   9.556  0.00  0.00    +0.000 A 
ATOM     17  N   UNL     1      44.415   3.336  10.781  0.00  0.00    +0.000 NA
ENDBRANCH  11  12
ENDBRANCH   9  11
ENDBRANCH   7   9
ENDBRANCH   1   7
BRANCH   4  18
ATOM     18  C   UNL     1      51.375   9.279  11.937  0.00  0.00    +0.000 C 
BRANCH  18  19
ATOM     19  N   UNL     1      51.625   8.787  10.599  0.00  0.00    +0.000 N 
ATOM     20  C   UNL     1      52.903   8.714  10.099  0.00  0.00    +0.000 C 
ATOM     21  O   UNL     1      53.889   8.975  10.784  0.00  0.00    +0.000 OA
ATOM     22  H   UNL     1      50.859   8.815   9.935  0.00  0.00    +0.000 HD
BRANCH  20  23
ATOM     23  C   UNL     1      53.035   8.238   8.717  0.00  0.00    +0.000 A 
ATOM     24  C   UNL     1      52.851   9.129   7.667  0.00  0.00    +0.000 A 
ATOM     25  S   UNL     1      53.101   8.435   6.131  0.00  0.00    +0.000 S 
ATOM     26  C   UNL     1      53.411   6.907   6.810  0.00  0.00    +0.000 A 
ATOM     27  N   UNL     1      53.690   5.834   6.020  0.00  0.00    +0.000 NA
ATOM     28  C   UNL     1      53.875   4.730   6.664  0.00  0.00    +0.000 A 
ATOM     29  N   UNL     1      53.807   4.604   8.026  0.00  0.00    +0.000 N 
ATOM     30  C   UNL     1      53.545   5.661   8.862  0.00  0.00    +0.000 A 
ATOM     31  O   UNL     1      53.513   5.519  10.080  0.00  0.00    +0.000 OA
ATOM     32  C   UNL     1      53.336   6.928   8.192  0.00  0.00    +0.000 A 
ATOM     33  H   UNL     1      53.962   3.711   8.470  0.00  0.00    +0.000 HD
ENDBRANCH  20  23
ENDBRANCH  18  19
ENDBRANCH   4  18
TORSDOF 7
ENDMDL
