MODEL 1
REMARK VINA RESULT:    -7.833      0.000      0.000
REMARK INTER + INTRA:         -12.613
REMARK INTER:                 -11.497
REMARK INTRA:                  -1.116
REMARK UNBOUND:                -1.116
REMARK  Name = 
REMARK  9 active torsions:
REMARK  status: ('A' for Active; 'I' for Inactive)
REMARK    1  A    between atoms: C_1  and  O_2
REMARK    2  A    between atoms: O_2  and  C_3
REMARK    3  A    between atoms: C_10  and  C_11
REMARK    4  A    between atoms: N_13  and  C_14
REMARK    5  A    between atoms: C_14  and  C_15
REMARK    6  A    between atoms: C_18  and  C_19
REMARK    7  A    between atoms: C_19  and  N_20
REMARK    8  A    between atoms: N_20  and  C_21
REMARK    9  A    between atoms: C_21  and  C_22
REMARK                            x       y       z     vdW  Elec       q    Type
REMARK                         _______ _______ _______ _____ _____    ______ ____
ROOT
ATOM      1  C   UNL     1      47.944   7.000  13.239  0.00  0.00    +0.000 C 
ENDROOT
BRANCH   1   2
ATOM      2  C   UNL     1      46.791   6.183  12.703  0.00  0.00    +0.000 A 
ATOM      3  C   UNL     1      46.215   5.168  13.478  0.00  0.00    +0.000 A 
ATOM      4  C   UNL     1      45.152   4.401  12.980  0.00  0.00    +0.000 A 
ATOM      5  C   UNL     1      44.645   4.625  11.691  0.00  0.00    +0.000 A 
ATOM      6  C   UNL     1      45.237   5.627  10.910  0.00  0.00    +0.000 A 
ATOM      7  C   UNL     1      46.299   6.395  11.407  0.00  0.00    +0.000 A 
BRANCH   5   8
ATOM      8  C   UNL     1      43.499   3.793  11.146  0.00  0.00    +0.000 C 
BRANCH   8   9
ATOM      9  N   UNL     1      43.725   3.425   9.750  0.00  0.00    +0.000 NA
ATOM     10  H   UNL     1      44.236   4.183   9.291  0.00  0.00    +0.000 HD
BRANCH   9  11
ATOM     11  C   UNL     1      44.532   2.206   9.625  0.00  0.00    +0.000 C 
BRANCH  11  12
ATOM     12  C   UNL     1      45.556   2.342   8.519  0.00  0.00    +0.000 A 
ATOM     13  C   UNL     1      45.727   3.558   7.860  0.00  0.00    +0.000 A 
ATOM     14  N   UNL     1      46.658   3.752   6.895  0.00  0.00    +0.000 NA
ATOM     15  C   UNL     1      47.436   2.681   6.624  0.00  0.00    +0.000 A 
ATOM     16  C   UNL     1      47.283   1.470   7.278  0.00  0.00    +0.000 A 
ATOM     17  N   UNL     1      46.345   1.271   8.235  0.00  0.00    +0.000 NA
ENDBRANCH  11  12
ENDBRANCH   9  11
ENDBRANCH   8   9
ENDBRANCH   5   8
ENDBRANCH   1   2
BRANCH   1  20
ATOM     18  C   UNL     1      49.065   6.996  15.441  0.00  0.00    +0.000 C 
ATOM     19  O   UNL     1      50.175   6.924  14.925  0.00  0.00    +0.000 OA
ATOM     20  N   UNL     1      47.928   7.043  14.681  0.00  0.00    +0.000 N 
ATOM     21  H   UNL     1      47.025   7.096  15.128  0.00  0.00    +0.000 HD
BRANCH  18  29
ATOM     22  C   UNL     1      48.857   4.549  17.847  0.00  0.00    +0.000 A 
ATOM     23  N   UNL     1      48.782   3.807  18.970  0.00  0.00    +0.000 NA
ATOM     24  C   UNL     1      48.658   4.447  20.136  0.00  0.00    +0.000 A 
ATOM     25  N   UNL     1      48.590   5.762  20.326  0.00  0.00    +0.000 NA
ATOM     26  C   UNL     1      48.676   6.463  19.181  0.00  0.00    +0.000 A 
ATOM     27  S   UNL     1      48.605   8.158  19.228  0.00  0.00    +0.000 S 
ATOM     28  C   UNL     1      48.778   8.263  17.540  0.00  0.00    +0.000 A 
ATOM     29  C   UNL     1      48.897   7.030  16.907  0.00  0.00    +0.000 A 
ATOM     30  C   UNL     1      48.823   5.954  17.896  0.00  0.00    +0.000 A 
BRANCH  22  32
ATOM     31  C   UNL     1      47.859   3.139  16.271  0.00  0.00    +0.000 C 
ATOM     32  O   UNL     1      49.012   3.885  16.650  0.00  0.00    +0.000 OA
ENDBRANCH  22  32
ENDBRANCH  18  29
ENDBRANCH   1  20
TORSDOF 8
ENDMDL
MODEL 2
REMARK VINA RESULT:    -7.363      1.729      2.866
REMARK INTER + INTRA:         -11.922
REMARK INTER:                 -10.793
REMARK INTRA:                  -1.129
REMARK UNBOUND:                -1.116
REMARK  Name = 
REMARK  9 active torsions:
REMARK  status: ('A' for Active; 'I' for Inactive)
REMARK    1  A    between atoms: C_1  and  O_2
REMARK    2  A    between atoms: O_2  and  C_3
REMARK    3  A    between atoms: C_10  and  C_11
REMARK    4  A    between atoms: N_13  and  C_14
REMARK    5  A    between atoms: C_14  and  C_15
REMARK    6  A    between atoms: C_18  and  C_19
REMARK    7  A    between atoms: C_19  and  N_20
REMARK    8  A    between atoms: N_20  and  C_21
REMARK    9  A    between atoms: C_21  and  C_22
REMARK                            x       y       z     vdW  Elec       q    Type
REMARK                         _______ _______ _______ _____ _____    ______ ____
ROOT
ATOM      1  C   UNL     1      48.511   6.999  14.105  0.00  0.00    +0.000 C 
ENDROOT
BRANCH   1   2
ATOM      2  C   UNL     1      47.454   6.199  13.377  0.00  0.00    +0.000 A 
ATOM      3  C   UNL     1      46.906   6.669  12.176  0.00  0.00    +0.000 A 
ATOM      4  C   UNL     1      45.919   5.935  11.504  0.00  0.00    +0.000 A 
ATOM      5  C   UNL     1      45.449   4.718  12.020  0.00  0.00    +0.000 A 
ATOM      6  C   UNL     1      45.984   4.262  13.232  0.00  0.00    +0.000 A 
ATOM      7  C   UNL     1      46.971   4.994  13.905  0.00  0.00    +0.000 A 
BRANCH   5   8
ATOM      8  C   UNL     1      44.376   3.925  11.297  0.00  0.00    +0.000 C 
BRANCH   8   9
ATOM      9  N   UNL     1      44.882   2.627  10.854  0.00  0.00    +0.000 NA
ATOM     10  H   UNL     1      44.558   1.910  11.506  0.00  0.00    +0.000 HD
BRANCH   9  11
ATOM     11  C   UNL     1      44.385   2.269   9.520  0.00  0.00    +0.000 C 
BRANCH  11  12
ATOM     12  C   UNL     1      45.477   2.395   8.480  0.00  0.00    +0.000 A 
ATOM     13  C   UNL     1      45.719   3.617   7.854  0.00  0.00    +0.000 A 
ATOM     14  N   UNL     1      46.712   3.801   6.950  0.00  0.00    +0.000 NA
ATOM     15  C   UNL     1      47.476   2.714   6.707  0.00  0.00    +0.000 A 
ATOM     16  C   UNL     1      47.253   1.497   7.329  0.00  0.00    +0.000 A 
ATOM     17  N   UNL     1      46.253   1.308   8.225  0.00  0.00    +0.000 NA
ENDBRANCH  11  12
ENDBRANCH   9  11
ENDBRANCH   8   9
ENDBRANCH   5   8
ENDBRANCH   1   2
BRANCH   1  20
ATOM     18  C   UNL     1      49.075   6.489  16.456  0.00  0.00    +0.000 C 
ATOM     19  O   UNL     1      50.109   5.916  16.130  0.00  0.00    +0.000 OA
ATOM     20  N   UNL     1      48.246   7.048  15.522  0.00  0.00    +0.000 N 
ATOM     21  H   UNL     1      47.397   7.510  15.813  0.00  0.00    +0.000 HD
BRANCH  18  29
ATOM     22  C   UNL     1      47.791   9.059  18.345  0.00  0.00    +0.000 A 
ATOM     23  N   UNL     1      47.262   9.868  19.284  0.00  0.00    +0.000 NA
ATOM     24  C   UNL     1      47.066   9.365  20.505  0.00  0.00    +0.000 A 
ATOM     25  N   UNL     1      47.346   8.131  20.919  0.00  0.00    +0.000 NA
ATOM     26  C   UNL     1      47.865   7.358  19.950  0.00  0.00    +0.000 A 
ATOM     27  S   UNL     1      48.288   5.750  20.294  0.00  0.00    +0.000 S 
ATOM     28  C   UNL     1      48.805   5.490  18.696  0.00  0.00    +0.000 A 
ATOM     29  C   UNL     1      48.668   6.600  17.870  0.00  0.00    +0.000 A 
ATOM     30  C   UNL     1      48.115   7.720  18.631  0.00  0.00    +0.000 A 
BRANCH  22  32
ATOM     31  C   UNL     1      49.006  10.545  17.009  0.00  0.00    +0.000 C 
ATOM     32  O   UNL     1      47.965   9.575  17.079  0.00  0.00    +0.000 OA
ENDBRANCH  22  32
ENDBRANCH  18  29
ENDBRANCH   1  20
TORSDOF 8
ENDMDL
MODEL 3
REMARK VINA RESULT:    -7.104      1.792      2.110
REMARK INTER + INTRA:         -11.542
REMARK INTER:                 -10.475
REMARK INTRA:                  -1.068
REMARK UNBOUND:                -1.116
REMARK  Name = 
REMARK  9 active torsions:
REMARK  status: ('A' for Active; 'I' for Inactive)
REMARK    1  A    between atoms: C_1  and  O_2
REMARK    2  A    between atoms: O_2  and  C_3
REMARK    3  A    between atoms: C_10  and  C_11
REMARK    4  A    between atoms: N_13  and  C_14
REMARK    5  A    between atoms: C_14  and  C_15
REMARK    6  A    between atoms: C_18  and  C_19
REMARK    7  A    between atoms: C_19  and  N_20
REMARK    8  A    between atoms: N_20  and  C_21
REMARK    9  A    between atoms: C_21  and  C_22
REMARK                            x       y       z     vdW  Elec       q    Type
REMARK                         _______ _______ _______ _____ _____    ______ ____
ROOT
ATOM      1  C   UNL     1      47.095   7.945  13.600  0.00  0.00    +0.000 C 
ENDROOT
BRANCH   1   2
ATOM      2  C   UNL     1      46.320   6.869  12.876  0.00  0.00    +0.000 A 
ATOM      3  C   UNL     1      46.536   5.515  13.166  0.00  0.00    +0.000 A 
ATOM      4  C   UNL     1      45.826   4.514  12.490  0.00  0.00    +0.000 A 
ATOM      5  C   UNL     1      44.887   4.841  11.500  0.00  0.00    +0.000 A 
ATOM      6  C   UNL     1      44.688   6.194  11.196  0.00  0.00    +0.000 A 
ATOM      7  C   UNL     1      45.397   7.196  11.873  0.00  0.00    +0.000 A 
BRANCH   5   8
ATOM      8  C   UNL     1      44.121   3.759  10.761  0.00  0.00    +0.000 C 
BRANCH   8   9
ATOM      9  N   UNL     1      44.982   2.622  10.439  0.00  0.00    +0.000 NA
ATOM     10  H   UNL     1      44.851   1.901  11.152  0.00  0.00    +0.000 HD
BRANCH   9  11
ATOM     11  C   UNL     1      44.645   2.028   9.140  0.00  0.00    +0.000 C 
BRANCH  11  12
ATOM     12  C   UNL     1      45.797   2.159   8.166  0.00  0.00    +0.000 A 
ATOM     13  C   UNL     1      46.647   1.081   7.929  0.00  0.00    +0.000 A 
ATOM     14  N   UNL     1      47.665   1.125   7.036  0.00  0.00    +0.000 NA
ATOM     15  C   UNL     1      47.791   2.290   6.365  0.00  0.00    +0.000 A 
ATOM     16  C   UNL     1      46.947   3.366   6.583  0.00  0.00    +0.000 A 
ATOM     17  N   UNL     1      45.935   3.328   7.485  0.00  0.00    +0.000 NA
ENDBRANCH  11  12
ENDBRANCH   9  11
ENDBRANCH   8   9
ENDBRANCH   5   8
ENDBRANCH   1   2
BRANCH   1  20
ATOM     18  C   UNL     1      48.868   8.031  15.319  0.00  0.00    +0.000 C 
ATOM     19  O   UNL     1      48.476   9.118  15.732  0.00  0.00    +0.000 OA
ATOM     20  N   UNL     1      48.240   7.395  14.284  0.00  0.00    +0.000 N 
ATOM     21  H   UNL     1      48.584   6.504  13.957  0.00  0.00    +0.000 HD
BRANCH  18  29
ATOM     22  C   UNL     1      49.273   5.077  17.030  0.00  0.00    +0.000 A 
ATOM     23  N   UNL     1      49.707   3.980  17.682  0.00  0.00    +0.000 NA
ATOM     24  C   UNL     1      51.012   3.886  17.950  0.00  0.00    +0.000 A 
ATOM     25  N   UNL     1      51.959   4.772  17.651  0.00  0.00    +0.000 NA
ATOM     26  C   UNL     1      51.483   5.847  16.996  0.00  0.00    +0.000 A 
ATOM     27  S   UNL     1      52.547   7.086  16.534  0.00  0.00    +0.000 S 
ATOM     28  C   UNL     1      51.283   7.974  15.823  0.00  0.00    +0.000 A 
ATOM     29  C   UNL     1      50.040   7.359  15.913  0.00  0.00    +0.000 A 
ATOM     30  C   UNL     1      50.164   6.088  16.628  0.00  0.00    +0.000 A 
BRANCH  22  32
ATOM     31  C   UNL     1      47.366   3.901  16.360  0.00  0.00    +0.000 C 
ATOM     32  O   UNL     1      47.931   5.155  16.732  0.00  0.00    +0.000 OA
ENDBRANCH  22  32
ENDBRANCH  18  29
ENDBRANCH   1  20
TORSDOF 8
ENDMDL
MODEL 4
REMARK VINA RESULT:    -7.069      1.616      3.126
REMARK INTER + INTRA:         -11.492
REMARK INTER:                 -10.277
REMARK INTRA:                  -1.214
REMARK UNBOUND:                -1.116
REMARK  Name = 
REMARK  9 active torsions:
REMARK  status: ('A' for Active; 'I' for Inactive)
REMARK    1  A    between atoms: C_1  and  O_2
REMARK    2  A    between atoms: O_2  and  C_3
REMARK    3  A    between atoms: C_10  and  C_11
REMARK    4  A    between atoms: N_13  and  C_14
REMARK    5  A    between atoms: C_14  and  C_15
REMARK    6  A    between atoms: C_18  and  C_19
REMARK    7  A    between atoms: C_19  and  N_20
REMARK    8  A    between atoms: N_20  and  C_21
REMARK    9  A    between atoms: C_21  and  C_22
REMARK                            x       y       z     vdW  Elec       q    Type
REMARK                         _______ _______ _______ _____ _____    ______ ____
ROOT
ATOM      1  C   UNL     1      47.306   3.964  15.202  0.00  0.00    +0.000 C 
ENDROOT
BRANCH   1   2
ATOM      2  C   UNL     1      46.565   4.344  13.942  0.00  0.00    +0.000 A 
ATOM      3  C   UNL     1      45.991   3.359  13.127  0.00  0.00    +0.000 A 
ATOM      4  C   UNL     1      45.311   3.707  11.951  0.00  0.00    +0.000 A 
ATOM      5  C   UNL     1      45.196   5.048  11.556  0.00  0.00    +0.000 A 
ATOM      6  C   UNL     1      45.789   6.030  12.361  0.00  0.00    +0.000 A 
ATOM      7  C   UNL     1      46.468   5.683  13.537  0.00  0.00    +0.000 A 
BRANCH   5   8
ATOM      8  C   UNL     1      44.466   5.427  10.281  0.00  0.00    +0.000 C 
BRANCH   8   9
ATOM      9  N   UNL     1      45.283   5.156   9.099  0.00  0.00    +0.000 NA
ATOM     10  H   UNL     1      46.214   4.863   9.406  0.00  0.00    +0.000 HD
BRANCH   9  11
ATOM     11  C   UNL     1      44.725   4.072   8.282  0.00  0.00    +0.000 C 
BRANCH  11  12
ATOM     12  C   UNL     1      45.797   3.079   7.889  0.00  0.00    +0.000 A 
ATOM     13  C   UNL     1      45.743   1.764   8.345  0.00  0.00    +0.000 A 
ATOM     14  N   UNL     1      46.648   0.820   7.990  0.00  0.00    +0.000 NA
ATOM     15  C   UNL     1      47.607   1.237   7.136  0.00  0.00    +0.000 A 
ATOM     16  C   UNL     1      47.668   2.538   6.667  0.00  0.00    +0.000 A 
ATOM     17  N   UNL     1      46.770   3.486   7.030  0.00  0.00    +0.000 NA
ENDBRANCH  11  12
ENDBRANCH   9  11
ENDBRANCH   8   9
ENDBRANCH   5   8
ENDBRANCH   1   2
BRANCH   1  20
ATOM     18  C   UNL     1      48.629   5.211  16.875  0.00  0.00    +0.000 C 
ATOM     19  O   UNL     1      49.451   4.305  16.966  0.00  0.00    +0.000 OA
ATOM     20  N   UNL     1      47.557   5.118  16.030  0.00  0.00    +0.000 N 
ATOM     21  H   UNL     1      46.890   5.874  15.976  0.00  0.00    +0.000 HD
BRANCH  18  29
ATOM     22  C   UNL     1      48.731   8.551  16.061  0.00  0.00    +0.000 A 
ATOM     23  N   UNL     1      48.762   9.897  16.021  0.00  0.00    +0.000 NA
ATOM     24  C   UNL     1      48.857  10.556  17.179  0.00  0.00    +0.000 A 
ATOM     25  N   UNL     1      48.933  10.028  18.398  0.00  0.00    +0.000 NA
ATOM     26  C   UNL     1      48.892   8.684  18.392  0.00  0.00    +0.000 A 
ATOM     27  S   UNL     1      48.982   7.834  19.858  0.00  0.00    +0.000 S 
ATOM     28  C   UNL     1      48.864   6.339  19.058  0.00  0.00    +0.000 A 
ATOM     29  C   UNL     1      48.750   6.445  17.676  0.00  0.00    +0.000 A 
ATOM     30  C   UNL     1      48.780   7.853  17.282  0.00  0.00    +0.000 A 
BRANCH  22  32
ATOM     31  C   UNL     1      49.851   7.685  14.199  0.00  0.00    +0.000 C 
ATOM     32  O   UNL     1      48.606   7.877  14.866  0.00  0.00    +0.000 OA
ENDBRANCH  22  32
ENDBRANCH  18  29
ENDBRANCH   1  20
TORSDOF 8
ENDMDL
MODEL 5
REMARK VINA RESULT:    -7.067      1.438      2.172
REMARK INTER + INTRA:         -11.488
REMARK INTER:                 -10.273
REMARK INTRA:                  -1.215
REMARK UNBOUND:                -1.116
REMARK  Name = 
REMARK  9 active torsions:
REMARK  status: ('A' for Active; 'I' for Inactive)
REMARK    1  A    between atoms: C_1  and  O_2
REMARK    2  A    between atoms: O_2  and  C_3
REMARK    3  A    between atoms: C_10  and  C_11
REMARK    4  A    between atoms: N_13  and  C_14
REMARK    5  A    between atoms: C_14  and  C_15
REMARK    6  A    between atoms: C_18  and  C_19
REMARK    7  A    between atoms: C_19  and  N_20
REMARK    8  A    between atoms: N_20  and  C_21
REMARK    9  A    between atoms: C_21  and  C_22
REMARK                            x       y       z     vdW  Elec       q    Type
REMARK                         _______ _______ _______ _____ _____    ______ ____
ROOT
ATOM      1  C   UNL     1      47.715   4.290  14.970  0.00  0.00    +0.000 C 
ENDROOT
BRANCH   1   2
ATOM      2  C   UNL     1      46.688   4.415  13.868  0.00  0.00    +0.000 A 
ATOM      3  C   UNL     1      46.180   3.274  13.233  0.00  0.00    +0.000 A 
ATOM      4  C   UNL     1      45.235   3.386  12.204  0.00  0.00    +0.000 A 
ATOM      5  C   UNL     1      44.780   4.643  11.779  0.00  0.00    +0.000 A 
ATOM      6  C   UNL     1      45.306   5.784  12.400  0.00  0.00    +0.000 A 
ATOM      7  C   UNL     1      46.250   5.673  13.430  0.00  0.00    +0.000 A 
BRANCH   5   8
ATOM      8  C   UNL     1      43.762   4.769  10.661  0.00  0.00    +0.000 C 
BRANCH   8   9
ATOM      9  N   UNL     1      43.857   3.650   9.725  0.00  0.00    +0.000 NA
ATOM     10  H   UNL     1      42.913   3.322   9.510  0.00  0.00    +0.000 HD
BRANCH   9  11
ATOM     11  C   UNL     1      44.489   4.043   8.460  0.00  0.00    +0.000 C 
BRANCH  11  12
ATOM     12  C   UNL     1      45.573   3.063   8.065  0.00  0.00    +0.000 A 
ATOM     13  C   UNL     1      45.508   1.734   8.479  0.00  0.00    +0.000 A 
ATOM     14  N   UNL     1      46.424   0.802   8.119  0.00  0.00    +0.000 NA
ATOM     15  C   UNL     1      47.405   1.246   7.303  0.00  0.00    +0.000 A 
ATOM     16  C   UNL     1      47.475   2.561   6.876  0.00  0.00    +0.000 A 
ATOM     17  N   UNL     1      46.567   3.497   7.245  0.00  0.00    +0.000 NA
ENDBRANCH  11  12
ENDBRANCH   9  11
ENDBRANCH   8   9
ENDBRANCH   5   8
ENDBRANCH   1   2
BRANCH   1  20
ATOM     18  C   UNL     1      48.620   6.333  16.025  0.00  0.00    +0.000 C 
ATOM     19  O   UNL     1      49.641   6.284  15.347  0.00  0.00    +0.000 OA
ATOM     20  N   UNL     1      47.631   5.396  15.891  0.00  0.00    +0.000 N 
ATOM     21  H   UNL     1      46.802   5.453  16.464  0.00  0.00    +0.000 HD
BRANCH  18  29
ATOM     22  C   UNL     1      47.742   6.312  19.349  0.00  0.00    +0.000 A 
ATOM     23  N   UNL     1      47.448   6.581  20.636  0.00  0.00    +0.000 NA
ATOM     24  C   UNL     1      47.433   7.860  21.021  0.00  0.00    +0.000 A 
ATOM     25  N   UNL     1      47.673   8.928  20.265  0.00  0.00    +0.000 NA
ATOM     26  C   UNL     1      47.968   8.614  18.991  0.00  0.00    +0.000 A 
ATOM     27  S   UNL     1      48.300   9.850  17.876  0.00  0.00    +0.000 S 
ATOM     28  C   UNL     1      48.559   8.725  16.628  0.00  0.00    +0.000 A 
ATOM     29  C   UNL     1      48.407   7.400  17.021  0.00  0.00    +0.000 A 
ATOM     30  C   UNL     1      48.041   7.340  18.437  0.00  0.00    +0.000 A 
BRANCH  22  32
ATOM     31  C   UNL     1      49.037   4.369  19.227  0.00  0.00    +0.000 C 
ATOM     32  O   UNL     1      47.782   4.990  18.964  0.00  0.00    +0.000 OA
ENDBRANCH  22  32
ENDBRANCH  18  29
ENDBRANCH   1  20
TORSDOF 8
ENDMDL
MODEL 6
REMARK VINA RESULT:    -6.952      4.751      9.491
REMARK INTER + INTRA:         -11.320
REMARK INTER:                 -10.495
REMARK INTRA:                  -0.825
REMARK UNBOUND:                -1.116
REMARK  Name = 
REMARK  9 active torsions:
REMARK  status: ('A' for Active; 'I' for Inactive)
REMARK    1  A    between atoms: C_1  and  O_2
REMARK    2  A    between atoms: O_2  and  C_3
REMARK    3  A    between atoms: C_10  and  C_11
REMARK    4  A    between atoms: N_13  and  C_14
REMARK    5  A    between atoms: C_14  and  C_15
REMARK    6  A    between atoms: C_18  and  C_19
REMARK    7  A    between atoms: C_19  and  N_20
REMARK    8  A    between atoms: N_20  and  C_21
REMARK    9  A    between atoms: C_21  and  C_22
REMARK                            x       y       z     vdW  Elec       q    Type
REMARK                         _______ _______ _______ _____ _____    ______ ____
ROOT
ATOM      1  C   UNL     1      47.210   3.333  16.957  0.00  0.00    +0.000 C 
ENDROOT
BRANCH   1   2
ATOM      2  C   UNL     1      48.692   3.242  17.237  0.00  0.00    +0.000 A 
ATOM      3  C   UNL     1      49.393   4.348  17.735  0.00  0.00    +0.000 A 
ATOM      4  C   UNL     1      50.770   4.270  17.987  0.00  0.00    +0.000 A 
ATOM      5  C   UNL     1      51.481   3.087  17.739  0.00  0.00    +0.000 A 
ATOM      6  C   UNL     1      50.782   1.989  17.220  0.00  0.00    +0.000 A 
ATOM      7  C   UNL     1      49.406   2.065  16.969  0.00  0.00    +0.000 A 
BRANCH   5   8
ATOM      8  C   UNL     1      52.973   3.002  18.004  0.00  0.00    +0.000 C 
BRANCH   8   9
ATOM      9  N   UNL     1      53.296   1.865  18.864  0.00  0.00    +0.000 NA
ATOM     10  H   UNL     1      52.623   1.117  18.683  0.00  0.00    +0.000 HD
BRANCH   9  11
ATOM     11  C   UNL     1      54.636   1.331  18.590  0.00  0.00    +0.000 C 
BRANCH  11  12
ATOM     12  C   UNL     1      54.599  -0.172  18.419  0.00  0.00    +0.000 A 
ATOM     13  C   UNL     1      54.945  -0.753  17.201  0.00  0.00    +0.000 A 
ATOM     14  N   UNL     1      54.974  -2.094  17.003  0.00  0.00    +0.000 NA
ATOM     15  C   UNL     1      54.663  -2.841  18.084  0.00  0.00    +0.000 A 
ATOM     16  C   UNL     1      54.327  -2.277  19.303  0.00  0.00    +0.000 A 
ATOM     17  N   UNL     1      54.286  -0.937  19.500  0.00  0.00    +0.000 NA
ENDBRANCH  11  12
ENDBRANCH   9  11
ENDBRANCH   8   9
ENDBRANCH   5   8
ENDBRANCH   1   2
BRANCH   1  20
ATOM     18  C   UNL     1      46.998   4.159  14.638  0.00  0.00    +0.000 C 
ATOM     19  O   UNL     1      47.310   3.067  14.173  0.00  0.00    +0.000 OA
ATOM     20  N   UNL     1      46.923   4.363  15.988  0.00  0.00    +0.000 N 
ATOM     21  H   UNL     1      46.670   5.272  16.348  0.00  0.00    +0.000 HD
BRANCH  18  29
ATOM     22  C   UNL     1      44.328   4.946  12.618  0.00  0.00    +0.000 A 
ATOM     23  N   UNL     1      43.416   5.501  11.796  0.00  0.00    +0.000 NA
ATOM     24  C   UNL     1      43.695   6.694  11.267  0.00  0.00    +0.000 A 
ATOM     25  N   UNL     1      44.797   7.417  11.451  0.00  0.00    +0.000 NA
ATOM     26  C   UNL     1      45.676   6.829  12.282  0.00  0.00    +0.000 A 
ATOM     27  S   UNL     1      47.145   7.604  12.635  0.00  0.00    +0.000 S 
ATOM     28  C   UNL     1      47.626   6.337  13.661  0.00  0.00    +0.000 A 
ATOM     29  C   UNL     1      46.695   5.309  13.764  0.00  0.00    +0.000 A 
ATOM     30  C   UNL     1      45.533   5.605  12.926  0.00  0.00    +0.000 A 
BRANCH  22  32
ATOM     31  C   UNL     1      43.519   2.784  12.242  0.00  0.00    +0.000 C 
ATOM     32  O   UNL     1      44.024   3.727  13.184  0.00  0.00    +0.000 OA
ENDBRANCH  22  32
ENDBRANCH  18  29
ENDBRANCH   1  20
TORSDOF 8
ENDMDL
MODEL 7
REMARK VINA RESULT:    -6.591      1.736      2.448
REMARK INTER + INTRA:         -10.790
REMARK INTER:                  -9.971
REMARK INTRA:                  -0.818
REMARK UNBOUND:                -1.116
REMARK  Name = 
REMARK  9 active torsions:
REMARK  status: ('A' for Active; 'I' for Inactive)
REMARK    1  A    between atoms: C_1  and  O_2
REMARK    2  A    between atoms: O_2  and  C_3
REMARK    3  A    between atoms: C_10  and  C_11
REMARK    4  A    between atoms: N_13  and  C_14
REMARK    5  A    between atoms: C_14  and  C_15
REMARK    6  A    between atoms: C_18  and  C_19
REMARK    7  A    between atoms: C_19  and  N_20
REMARK    8  A    between atoms: N_20  and  C_21
REMARK    9  A    between atoms: C_21  and  C_22
REMARK                            x       y       z     vdW  Elec       q    Type
REMARK                         _______ _______ _______ _____ _____    ______ ____
ROOT
ATOM      1  C   UNL     1      47.865   7.444  13.946  0.00  0.00    +0.000 C 
ENDROOT
BRANCH   1   2
ATOM      2  C   UNL     1      46.927   6.551  13.167  0.00  0.00    +0.000 A 
ATOM      3  C   UNL     1      46.301   5.461  13.787  0.00  0.00    +0.000 A 
ATOM      4  C   UNL     1      45.438   4.624  13.066  0.00  0.00    +0.000 A 
ATOM      5  C   UNL     1      45.186   4.852  11.705  0.00  0.00    +0.000 A 
ATOM      6  C   UNL     1      45.829   5.930  11.082  0.00  0.00    +0.000 A 
ATOM      7  C   UNL     1      46.691   6.768  11.802  0.00  0.00    +0.000 A 
BRANCH   5   8
ATOM      8  C   UNL     1      44.257   3.945  10.920  0.00  0.00    +0.000 C 
BRANCH   8   9
ATOM      9  N   UNL     1      44.903   2.675  10.593  0.00  0.00    +0.000 NA
ATOM     10  H   UNL     1      44.615   1.975  11.281  0.00  0.00    +0.000 HD
BRANCH   9  11
ATOM     11  C   UNL     1      44.509   2.181   9.268  0.00  0.00    +0.000 C 
BRANCH  11  12
ATOM     12  C   UNL     1      45.673   2.227   8.302  0.00  0.00    +0.000 A 
ATOM     13  C   UNL     1      46.027   3.422   7.678  0.00  0.00    +0.000 A 
ATOM     14  N   UNL     1      47.086   3.533   6.840  0.00  0.00    +0.000 NA
ATOM     15  C   UNL     1      47.800   2.400   6.663  0.00  0.00    +0.000 A 
ATOM     16  C   UNL     1      47.465   1.209   7.284  0.00  0.00    +0.000 A 
ATOM     17  N   UNL     1      46.399   1.093   8.113  0.00  0.00    +0.000 NA
ENDBRANCH  11  12
ENDBRANCH   9  11
ENDBRANCH   8   9
ENDBRANCH   5   8
ENDBRANCH   1   2
BRANCH   1  20
ATOM     18  C   UNL     1      49.425   6.648  15.689  0.00  0.00    +0.000 C 
ATOM     19  O   UNL     1      50.402   6.900  14.992  0.00  0.00    +0.000 OA
ATOM     20  N   UNL     1      48.153   6.893  15.247  0.00  0.00    +0.000 N 
ATOM     21  H   UNL     1      47.363   6.671  15.836  0.00  0.00    +0.000 HD
BRANCH  18  29
ATOM     22  C   UNL     1      51.551   7.281  18.316  0.00  0.00    +0.000 A 
ATOM     23  N   UNL     1      52.220   7.344  19.484  0.00  0.00    +0.000 NA
ATOM     24  C   UNL     1      51.856   6.509  20.461  0.00  0.00    +0.000 A 
ATOM     25  N   UNL     1      50.893   5.593  20.416  0.00  0.00    +0.000 NA
ATOM     26  C   UNL     1      50.247   5.568  19.236  0.00  0.00    +0.000 A 
ATOM     27  S   UNL     1      48.986   4.458  18.992  0.00  0.00    +0.000 S 
ATOM     28  C   UNL     1      48.722   5.028  17.413  0.00  0.00    +0.000 A 
ATOM     29  C   UNL     1      49.569   6.064  17.036  0.00  0.00    +0.000 A 
ATOM     30  C   UNL     1      50.490   6.375  18.130  0.00  0.00    +0.000 A 
BRANCH  22  32
ATOM     31  C   UNL     1      51.330   9.454  17.481  0.00  0.00    +0.000 C 
ATOM     32  O   UNL     1      51.912   8.163  17.322  0.00  0.00    +0.000 OA
ENDBRANCH  22  32
ENDBRANCH  18  29
ENDBRANCH   1  20
TORSDOF 8
ENDMDL
MODEL 8
REMARK VINA RESULT:    -6.482      4.657      9.342
REMARK INTER + INTRA:         -10.630
REMARK INTER:                  -9.454
REMARK INTRA:                  -1.176
REMARK UNBOUND:                -1.116
REMARK  Name = 
REMARK  9 active torsions:
REMARK  status: ('A' for Active; 'I' for Inactive)
REMARK    1  A    between atoms: C_1  and  O_2
REMARK    2  A    between atoms: O_2  and  C_3
REMARK    3  A    between atoms: C_10  and  C_11
REMARK    4  A    between atoms: N_13  and  C_14
REMARK    5  A    between atoms: C_14  and  C_15
REMARK    6  A    between atoms: C_18  and  C_19
REMARK    7  A    between atoms: C_19  and  N_20
REMARK    8  A    between atoms: N_20  and  C_21
REMARK    9  A    between atoms: C_21  and  C_22
REMARK                            x       y       z     vdW  Elec       q    Type
REMARK                         _______ _______ _______ _____ _____    ______ ____
ROOT
ATOM      1  C   UNL     1      47.323   3.357  16.996  0.00  0.00    +0.000 C 
ENDROOT
BRANCH   1   2
ATOM      2  C   UNL     1      48.805   3.244  17.269  0.00  0.00    +0.000 A 
ATOM      3  C   UNL     1      49.515   4.323  17.813  0.00  0.00    +0.000 A 
ATOM      4  C   UNL     1      50.892   4.226  18.059  0.00  0.00    +0.000 A 
ATOM      5  C   UNL     1      51.595   3.050  17.759  0.00  0.00    +0.000 A 
ATOM      6  C   UNL     1      50.888   1.980  17.195  0.00  0.00    +0.000 A 
ATOM      7  C   UNL     1      49.511   2.075  16.950  0.00  0.00    +0.000 A 
BRANCH   5   8
ATOM      8  C   UNL     1      53.086   2.944  18.018  0.00  0.00    +0.000 C 
BRANCH   8   9
ATOM      9  N   UNL     1      53.379   1.934  19.034  0.00  0.00    +0.000 NA
ATOM     10  H   UNL     1      52.707   1.170  18.939  0.00  0.00    +0.000 HD
BRANCH   9  11
ATOM     11  C   UNL     1      54.722   1.365  18.872  0.00  0.00    +0.000 C 
BRANCH  11  12
ATOM     12  C   UNL     1      54.656  -0.131  18.653  0.00  0.00    +0.000 A 
ATOM     13  C   UNL     1      54.937  -0.674  17.400  0.00  0.00    +0.000 A 
ATOM     14  N   UNL     1      54.939  -2.007  17.156  0.00  0.00    +0.000 NA
ATOM     15  C   UNL     1      54.669  -2.787  18.224  0.00  0.00    +0.000 A 
ATOM     16  C   UNL     1      54.398  -2.262  19.476  0.00  0.00    +0.000 A 
ATOM     17  N   UNL     1      54.384  -0.929  19.720  0.00  0.00    +0.000 NA
ENDBRANCH  11  12
ENDBRANCH   9  11
ENDBRANCH   8   9
ENDBRANCH   5   8
ENDBRANCH   1   2
BRANCH   1  20
ATOM     18  C   UNL     1      47.087   4.078  14.645  0.00  0.00    +0.000 C 
ATOM     19  O   UNL     1      47.347   2.954  14.227  0.00  0.00    +0.000 OA
ATOM     20  N   UNL     1      47.052   4.349  15.986  0.00  0.00    +0.000 N 
ATOM     21  H   UNL     1      46.842   5.283  16.306  0.00  0.00    +0.000 HD
BRANCH  18  29
ATOM     22  C   UNL     1      48.650   7.080  14.035  0.00  0.00    +0.000 A 
ATOM     23  N   UNL     1      49.074   8.278  13.586  0.00  0.00    +0.000 NA
ATOM     24  C   UNL     1      48.371   8.868  12.616  0.00  0.00    +0.000 A 
ATOM     25  N   UNL     1      47.269   8.408  12.030  0.00  0.00    +0.000 NA
ATOM     26  C   UNL     1      46.885   7.209  12.504  0.00  0.00    +0.000 A 
ATOM     27  S   UNL     1      45.494   6.465  11.876  0.00  0.00    +0.000 S 
ATOM     28  C   UNL     1      45.692   5.119  12.895  0.00  0.00    +0.000 A 
ATOM     29  C   UNL     1      46.806   5.196  13.723  0.00  0.00    +0.000 A 
ATOM     30  C   UNL     1      47.511   6.457  13.492  0.00  0.00    +0.000 A 
BRANCH  22  32
ATOM     31  C   UNL     1      50.532   7.222  15.415  0.00  0.00    +0.000 C 
ATOM     32  O   UNL     1      49.394   6.463  15.016  0.00  0.00    +0.000 OA
ENDBRANCH  22  32
ENDBRANCH  18  29
ENDBRANCH   1  20
TORSDOF 8
ENDMDL
MODEL 9
REMARK VINA RESULT:    -6.200      2.811      3.941
REMARK INTER + INTRA:         -10.216
REMARK INTER:                  -9.212
REMARK INTRA:                  -1.004
REMARK UNBOUND:                -1.116
REMARK  Name = 
REMARK  9 active torsions:
REMARK  status: ('A' for Active; 'I' for Inactive)
REMARK    1  A    between atoms: C_1  and  O_2
REMARK    2  A    between atoms: O_2  and  C_3
REMARK    3  A    between atoms: C_10  and  C_11
REMARK    4  A    between atoms: N_13  and  C_14
REMARK    5  A    between atoms: C_14  and  C_15
REMARK    6  A    between atoms: C_18  and  C_19
REMARK    7  A    between atoms: C_19  and  N_20
REMARK    8  A    between atoms: N_20  and  C_21
REMARK    9  A    between atoms: C_21  and  C_22
REMARK                            x       y       z     vdW  Elec       q    Type
REMARK                         _______ _______ _______ _____ _____    ______ ____
ROOT
ATOM      1  C   UNL     1      47.874   8.645  14.413  0.00  0.00    +0.000 C 
ENDROOT
BRANCH   1   2
ATOM      2  C   UNL     1      47.014   7.846  13.461  0.00  0.00    +0.000 A 
ATOM      3  C   UNL     1      45.920   8.440  12.818  0.00  0.00    +0.000 A 
ATOM      4  C   UNL     1      45.114   7.700  11.942  0.00  0.00    +0.000 A 
ATOM      5  C   UNL     1      45.378   6.344  11.694  0.00  0.00    +0.000 A 
ATOM      6  C   UNL     1      46.459   5.747  12.355  0.00  0.00    +0.000 A 
ATOM      7  C   UNL     1      47.266   6.487  13.230  0.00  0.00    +0.000 A 
BRANCH   5   8
ATOM      8  C   UNL     1      44.504   5.538  10.751  0.00  0.00    +0.000 C 
BRANCH   8   9
ATOM      9  N   UNL     1      45.233   5.160   9.542  0.00  0.00    +0.000 NA
ATOM     10  H   UNL     1      46.151   4.799   9.813  0.00  0.00    +0.000 HD
BRANCH   9  11
ATOM     11  C   UNL     1      44.546   4.101   8.793  0.00  0.00    +0.000 C 
BRANCH  11  12
ATOM     12  C   UNL     1      45.538   3.185   8.109  0.00  0.00    +0.000 A 
ATOM     13  C   UNL     1      45.734   1.885   8.571  0.00  0.00    +0.000 A 
ATOM     14  N   UNL     1      46.574   1.007   7.973  0.00  0.00    +0.000 NA
ATOM     15  C   UNL     1      47.201   1.471   6.870  0.00  0.00    +0.000 A 
ATOM     16  C   UNL     1      47.008   2.757   6.394  0.00  0.00    +0.000 A 
ATOM     17  N   UNL     1      46.177   3.641   6.999  0.00  0.00    +0.000 NA
ENDBRANCH  11  12
ENDBRANCH   9  11
ENDBRANCH   8   9
ENDBRANCH   5   8
ENDBRANCH   1   2
BRANCH   1  20
ATOM     18  C   UNL     1      49.326   7.706  16.177  0.00  0.00    +0.000 C 
ATOM     19  O   UNL     1      48.635   8.191  17.067  0.00  0.00    +0.000 OA
ATOM     20  N   UNL     1      49.013   7.881  14.857  0.00  0.00    +0.000 N 
ATOM     21  H   UNL     1      49.600   7.477  14.142  0.00  0.00    +0.000 HD
BRANCH  18  29
ATOM     22  C   UNL     1      52.571   7.818  15.045  0.00  0.00    +0.000 A 
ATOM     23  N   UNL     1      53.888   7.668  14.801  0.00  0.00    +0.000 NA
ATOM     24  C   UNL     1      54.542   6.711  15.464  0.00  0.00    +0.000 A 
ATOM     25  N   UNL     1      54.036   5.862  16.355  0.00  0.00    +0.000 NA
ATOM     26  C   UNL     1      52.722   6.052  16.572  0.00  0.00    +0.000 A 
ATOM     27  S   UNL     1      51.902   5.057  17.677  0.00  0.00    +0.000 S 
ATOM     28  C   UNL     1      50.437   5.876  17.405  0.00  0.00    +0.000 A 
ATOM     29  C   UNL     1      50.533   6.914  16.485  0.00  0.00    +0.000 A 
ATOM     30  C   UNL     1      51.903   7.007  15.981  0.00  0.00    +0.000 A 
BRANCH  22  32
ATOM     31  C   UNL     1      52.461   9.107  13.097  0.00  0.00    +0.000 C 
ATOM     32  O   UNL     1      51.906   8.824  14.379  0.00  0.00    +0.000 OA
ENDBRANCH  22  32
ENDBRANCH  18  29
ENDBRANCH   1  20
TORSDOF 8
ENDMDL
