MODEL 1
REMARK VINA RESULT:    -8.749      0.000      0.000
REMARK INTER + INTRA:         -14.338
REMARK INTER:                 -12.841
REMARK INTRA:                  -1.496
REMARK UNBOUND:                -1.496
REMARK  Name = 
REMARK  9 active torsions:
REMARK  status: ('A' for Active; 'I' for Inactive)
REMARK    1  A    between atoms: C_1  and  C_2
REMARK    2  A    between atoms: C_2  and  C_3
REMARK    3  A    between atoms: C_2  and  C_27
REMARK    4  A    between atoms: C_3  and  N_4
REMARK    5  A    between atoms: N_4  and  C_5
REMARK    6  A    between atoms: C_5  and  C_6
REMARK    7  A    between atoms: C_8  and  C_9
REMARK    8  A    between atoms: C_9  and  N_10
REMARK    9  A    between atoms: C_11  and  C_13
REMARK                            x       y       z     vdW  Elec       q    Type
REMARK                         _______ _______ _______ _____ _____    ______ ____
ROOT
ATOM      1  C   UNL     1      44.622   5.418  12.307  0.00  0.00    +0.000 A 
ATOM      2  C   UNL     1      45.244   4.406  13.066  0.00  0.00    +0.000 A 
ATOM      3  C   UNL     1      46.445   4.657  13.740  0.00  0.00    +0.000 A 
ATOM      4  C   UNL     1      47.009   5.918  13.593  0.00  0.00    +0.000 A 
ATOM      5  N   UNL     1      46.437   6.919  12.898  0.00  0.00    +0.000 NA
ATOM      6  C   UNL     1      45.254   6.662  12.297  0.00  0.00    +0.000 A 
ATOM      7 CL   UNL     1      44.612   8.077  11.556  0.00  0.00    +0.000 Cl
ENDROOT
BRANCH   1   8
ATOM      8  C   UNL     1      43.305   5.126  11.634  0.00  0.00    +0.000 C 
BRANCH   8   9
ATOM      9  N   UNL     1      43.333   5.065  10.175  0.00  0.00    +0.000 NA
ATOM     10  H   UNL     1      42.385   5.012   9.806  0.00  0.00    +0.000 HD
BRANCH   9  11
ATOM     11  C   UNL     1      44.154   3.989   9.601  0.00  0.00    +0.000 C 
BRANCH  11  13
ATOM     12  C   UNL     1      46.158   5.458   9.064  0.00  0.00    +0.000 C 
ATOM     13  C   UNL     1      45.156   4.435   8.520  0.00  0.00    +0.000 C 
BRANCH  13  14
ATOM     14  C   UNL     1      45.881   3.234   7.942  0.00  0.00    +0.000 A 
ATOM     15  C   UNL     1      46.754   3.395   6.867  0.00  0.00    +0.000 A 
ATOM     16  C   UNL     1      47.448   2.286   6.390  0.00  0.00    +0.000 A 
ATOM     17  C   UNL     1      47.245   1.049   6.986  0.00  0.00    +0.000 A 
ATOM     18  C   UNL     1      46.346   0.969   8.035  0.00  0.00    +0.000 A 
ATOM     19  N   UNL     1      45.665   2.029   8.523  0.00  0.00    +0.000 NA
ENDBRANCH  13  14
ENDBRANCH  11  13
ENDBRANCH   9  11
ENDBRANCH   8   9
ENDBRANCH   1   8
BRANCH   3  20
ATOM     20  C   UNL     1      47.129   3.626  14.587  0.00  0.00    +0.000 C 
BRANCH  20  21
ATOM     21  N   UNL     1      47.755   4.218  15.740  0.00  0.00    +0.000 N 
ATOM     22  C   UNL     1      47.280   3.957  17.003  0.00  0.00    +0.000 C 
ATOM     23  O   UNL     1      46.366   3.163  17.198  0.00  0.00    +0.000 OA
ATOM     24  H   UNL     1      48.319   5.048  15.592  0.00  0.00    +0.000 HD
BRANCH  22  25
ATOM     25  C   UNL     1      47.964   4.632  18.115  0.00  0.00    +0.000 A 
ATOM     26  C   UNL     1      47.265   5.545  18.892  0.00  0.00    +0.000 A 
ATOM     27  S   UNL     1      48.183   6.198  20.172  0.00  0.00    +0.000 S 
ATOM     28  C   UNL     1      49.564   5.323  19.701  0.00  0.00    +0.000 A 
ATOM     29  N   UNL     1      50.736   5.447  20.381  0.00  0.00    +0.000 NA
ATOM     30  C   UNL     1      51.713   4.758  19.890  0.00  0.00    +0.000 A 
ATOM     31  N   UNL     1      51.620   3.947  18.789  0.00  0.00    +0.000 N 
ATOM     32  C   UNL     1      50.447   3.764  18.093  0.00  0.00    +0.000 A 
ATOM     33  O   UNL     1      50.381   2.991  17.143  0.00  0.00    +0.000 OA
ATOM     34  C   UNL     1      49.323   4.532  18.592  0.00  0.00    +0.000 A 
ATOM     35  H   UNL     1      52.421   3.428  18.460  0.00  0.00    +0.000 HD
ENDBRANCH  22  25
ENDBRANCH  20  21
ENDBRANCH   3  20
TORSDOF 8
ENDMDL
MODEL 2
REMARK VINA RESULT:    -8.239      1.815      2.091
REMARK INTER + INTRA:         -13.589
REMARK INTER:                 -12.302
REMARK INTRA:                  -1.287
REMARK UNBOUND:                -1.496
REMARK  Name = 
REMARK  9 active torsions:
REMARK  status: ('A' for Active; 'I' for Inactive)
REMARK    1  A    between atoms: C_1  and  C_2
REMARK    2  A    between atoms: C_2  and  C_3
REMARK    3  A    between atoms: C_2  and  C_27
REMARK    4  A    between atoms: C_3  and  N_4
REMARK    5  A    between atoms: N_4  and  C_5
REMARK    6  A    between atoms: C_5  and  C_6
REMARK    7  A    between atoms: C_8  and  C_9
REMARK    8  A    between atoms: C_9  and  N_10
REMARK    9  A    between atoms: C_11  and  C_13
REMARK                            x       y       z     vdW  Elec       q    Type
REMARK                         _______ _______ _______ _____ _____    ______ ____
ROOT
ATOM      1  C   UNL     1      44.538   4.782  12.527  0.00  0.00    +0.000 A 
ATOM      2  C   UNL     1      45.816   4.704  13.119  0.00  0.00    +0.000 A 
ATOM      3  C   UNL     1      46.599   5.853  13.275  0.00  0.00    +0.000 A 
ATOM      4  C   UNL     1      46.085   7.049  12.791  0.00  0.00    +0.000 A 
ATOM      5  N   UNL     1      44.861   7.171  12.240  0.00  0.00    +0.000 NA
ATOM      6  C   UNL     1      44.109   6.053  12.145  0.00  0.00    +0.000 A 
ATOM      7 CL   UNL     1      42.540   6.409  11.531  0.00  0.00    +0.000 Cl
ENDROOT
BRANCH   1   8
ATOM      8  C   UNL     1      43.704   3.531  12.417  0.00  0.00    +0.000 C 
BRANCH   8   9
ATOM      9  N   UNL     1      43.388   3.091  11.060  0.00  0.00    +0.000 NA
ATOM     10  H   UNL     1      42.685   2.355  11.084  0.00  0.00    +0.000 HD
BRANCH   9  11
ATOM     11  C   UNL     1      44.536   2.662  10.249  0.00  0.00    +0.000 C 
BRANCH  11  13
ATOM     12  C   UNL     1      45.207   4.874   9.191  0.00  0.00    +0.000 C 
ATOM     13  C   UNL     1      44.736   3.439   8.934  0.00  0.00    +0.000 C 
BRANCH  13  14
ATOM     14  C   UNL     1      45.715   2.711   8.033  0.00  0.00    +0.000 A 
ATOM     15  C   UNL     1      46.250   3.354   6.917  0.00  0.00    +0.000 A 
ATOM     16  C   UNL     1      47.187   2.682   6.137  0.00  0.00    +0.000 A 
ATOM     17  C   UNL     1      47.555   1.388   6.479  0.00  0.00    +0.000 A 
ATOM     18  C   UNL     1      46.962   0.812   7.589  0.00  0.00    +0.000 A 
ATOM     19  N   UNL     1      46.057   1.443   8.368  0.00  0.00    +0.000 NA
ENDBRANCH  13  14
ENDBRANCH  11  13
ENDBRANCH   9  11
ENDBRANCH   8   9
ENDBRANCH   1   8
BRANCH   3  20
ATOM     20  C   UNL     1      47.949   5.831  13.929  0.00  0.00    +0.000 C 
BRANCH  20  21
ATOM     21  N   UNL     1      47.853   6.018  15.353  0.00  0.00    +0.000 N 
ATOM     22  C   UNL     1      48.820   6.719  16.031  0.00  0.00    +0.000 C 
ATOM     23  O   UNL     1      49.748   7.269  15.448  0.00  0.00    +0.000 OA
ATOM     24  H   UNL     1      47.261   5.375  15.870  0.00  0.00    +0.000 HD
BRANCH  22  25
ATOM     25  C   UNL     1      48.652   6.829  17.487  0.00  0.00    +0.000 A 
ATOM     26  C   UNL     1      48.511   8.084  18.064  0.00  0.00    +0.000 A 
ATOM     27  S   UNL     1      48.272   8.038  19.751  0.00  0.00    +0.000 S 
ATOM     28  C   UNL     1      48.400   6.342  19.779  0.00  0.00    +0.000 A 
ATOM     29  N   UNL     1      48.309   5.652  20.948  0.00  0.00    +0.000 NA
ATOM     30  C   UNL     1      48.466   4.376  20.828  0.00  0.00    +0.000 A 
ATOM     31  N   UNL     1      48.695   3.725  19.643  0.00  0.00    +0.000 N 
ATOM     32  C   UNL     1      48.759   4.378  18.434  0.00  0.00    +0.000 A 
ATOM     33  O   UNL     1      48.911   3.763  17.383  0.00  0.00    +0.000 OA
ATOM     34  C   UNL     1      48.608   5.817  18.516  0.00  0.00    +0.000 A 
ATOM     35  H   UNL     1      48.801   2.722  19.617  0.00  0.00    +0.000 HD
ENDBRANCH  22  25
ENDBRANCH  20  21
ENDBRANCH   3  20
TORSDOF 8
ENDMDL
MODEL 3
REMARK VINA RESULT:    -7.719      2.257      2.951
REMARK INTER + INTRA:         -12.825
REMARK INTER:                 -11.772
REMARK INTRA:                  -1.053
REMARK UNBOUND:                -1.496
REMARK  Name = 
REMARK  9 active torsions:
REMARK  status: ('A' for Active; 'I' for Inactive)
REMARK    1  A    between atoms: C_1  and  C_2
REMARK    2  A    between atoms: C_2  and  C_3
REMARK    3  A    between atoms: C_2  and  C_27
REMARK    4  A    between atoms: C_3  and  N_4
REMARK    5  A    between atoms: N_4  and  C_5
REMARK    6  A    between atoms: C_5  and  C_6
REMARK    7  A    between atoms: C_8  and  C_9
REMARK    8  A    between atoms: C_9  and  N_10
REMARK    9  A    between atoms: C_11  and  C_13
REMARK                            x       y       z     vdW  Elec       q    Type
REMARK                         _______ _______ _______ _____ _____    ______ ____
ROOT
ATOM      1  C   UNL     1      46.253   4.738  13.742  0.00  0.00    +0.000 A 
ATOM      2  C   UNL     1      46.367   4.007  14.943  0.00  0.00    +0.000 A 
ATOM      3  C   UNL     1      47.367   4.316  15.872  0.00  0.00    +0.000 A 
ATOM      4  C   UNL     1      48.255   5.331  15.543  0.00  0.00    +0.000 A 
ATOM      5  N   UNL     1      48.169   6.068  14.418  0.00  0.00    +0.000 NA
ATOM      6  C   UNL     1      47.164   5.779  13.562  0.00  0.00    +0.000 A 
ATOM      7 CL   UNL     1      47.132   6.887  12.244  0.00  0.00    +0.000 Cl
ENDROOT
BRANCH   1   8
ATOM      8  C   UNL     1      45.135   4.409  12.786  0.00  0.00    +0.000 C 
BRANCH   8   9
ATOM      9  N   UNL     1      45.499   3.585  11.636  0.00  0.00    +0.000 NA
ATOM     10  H   UNL     1      46.385   3.899  11.245  0.00  0.00    +0.000 HD
BRANCH   9  11
ATOM     11  C   UNL     1      44.486   3.495  10.574  0.00  0.00    +0.000 C 
BRANCH  11  13
ATOM     12  C   UNL     1      45.685   5.433   9.446  0.00  0.00    +0.000 C 
ATOM     13  C   UNL     1      44.881   4.146   9.235  0.00  0.00    +0.000 C 
BRANCH  13  14
ATOM     14  C   UNL     1      45.661   3.165   8.380  0.00  0.00    +0.000 A 
ATOM     15  C   UNL     1      46.379   3.618   7.273  0.00  0.00    +0.000 A 
ATOM     16  C   UNL     1      47.130   2.706   6.537  0.00  0.00    +0.000 A 
ATOM     17  C   UNL     1      47.135   1.369   6.912  0.00  0.00    +0.000 A 
ATOM     18  C   UNL     1      46.380   0.996   8.010  0.00  0.00    +0.000 A 
ATOM     19  N   UNL     1      45.649   1.860   8.747  0.00  0.00    +0.000 NA
ENDBRANCH  13  14
ENDBRANCH  11  13
ENDBRANCH   9  11
ENDBRANCH   8   9
ENDBRANCH   1   8
BRANCH   3  20
ATOM     20  C   UNL     1      47.509   3.593  17.178  0.00  0.00    +0.000 C 
BRANCH  20  21
ATOM     21  N   UNL     1      48.891   3.405  17.533  0.00  0.00    +0.000 N 
ATOM     22  C   UNL     1      49.639   2.423  16.931  0.00  0.00    +0.000 C 
ATOM     23  O   UNL     1      49.186   1.729  16.027  0.00  0.00    +0.000 OA
ATOM     24  H   UNL     1      49.199   3.775  18.427  0.00  0.00    +0.000 HD
BRANCH  22  25
ATOM     25  C   UNL     1      51.032   2.286  17.383  0.00  0.00    +0.000 A 
ATOM     26  C   UNL     1      51.582   1.019  17.522  0.00  0.00    +0.000 A 
ATOM     27  S   UNL     1      53.218   1.034  18.001  0.00  0.00    +0.000 S 
ATOM     28  C   UNL     1      53.235   2.733  18.089  0.00  0.00    +0.000 A 
ATOM     29  N   UNL     1      54.355   3.403  18.472  0.00  0.00    +0.000 NA
ATOM     30  C   UNL     1      54.215   4.685  18.535  0.00  0.00    +0.000 A 
ATOM     31  N   UNL     1      53.058   5.360  18.238  0.00  0.00    +0.000 N 
ATOM     32  C   UNL     1      51.913   4.726  17.812  0.00  0.00    +0.000 A 
ATOM     33  O   UNL     1      50.910   5.360  17.502  0.00  0.00    +0.000 OA
ATOM     34  C   UNL     1      52.013   3.282  17.743  0.00  0.00    +0.000 A 
ATOM     35  H   UNL     1      53.017   6.366  18.299  0.00  0.00    +0.000 HD
ENDBRANCH  22  25
ENDBRANCH  20  21
ENDBRANCH   3  20
TORSDOF 8
ENDMDL
MODEL 4
REMARK VINA RESULT:    -7.660      2.395      3.468
REMARK INTER + INTRA:         -12.739
REMARK INTER:                 -11.391
REMARK INTRA:                  -1.348
REMARK UNBOUND:                -1.496
REMARK  Name = 
REMARK  9 active torsions:
REMARK  status: ('A' for Active; 'I' for Inactive)
REMARK    1  A    between atoms: C_1  and  C_2
REMARK    2  A    between atoms: C_2  and  C_3
REMARK    3  A    between atoms: C_2  and  C_27
REMARK    4  A    between atoms: C_3  and  N_4
REMARK    5  A    between atoms: N_4  and  C_5
REMARK    6  A    between atoms: C_5  and  C_6
REMARK    7  A    between atoms: C_8  and  C_9
REMARK    8  A    between atoms: C_9  and  N_10
REMARK    9  A    between atoms: C_11  and  C_13
REMARK                            x       y       z     vdW  Elec       q    Type
REMARK                         _______ _______ _______ _____ _____    ______ ____
ROOT
ATOM      1  C   UNL     1      46.807   4.668  13.613  0.00  0.00    +0.000 A 
ATOM      2  C   UNL     1      47.186   4.497  14.960  0.00  0.00    +0.000 A 
ATOM      3  C   UNL     1      47.946   5.473  15.616  0.00  0.00    +0.000 A 
ATOM      4  C   UNL     1      48.338   6.582  14.876  0.00  0.00    +0.000 A 
ATOM      5  N   UNL     1      47.978   6.795  13.595  0.00  0.00    +0.000 NA
ATOM      6  C   UNL     1      47.205   5.858  13.003  0.00  0.00    +0.000 A 
ATOM      7 CL   UNL     1      46.745   6.343  11.417  0.00  0.00    +0.000 Cl
ENDROOT
BRANCH   1   8
ATOM      8  C   UNL     1      45.949   3.618  12.954  0.00  0.00    +0.000 C 
BRANCH   8   9
ATOM      9  N   UNL     1      44.505   3.812  13.062  0.00  0.00    +0.000 NA
ATOM     10  H   UNL     1      44.191   3.599  14.006  0.00  0.00    +0.000 HD
BRANCH   9  11
ATOM     11  C   UNL     1      43.691   3.075  12.084  0.00  0.00    +0.000 C 
BRANCH  11  13
ATOM     12  C   UNL     1      43.375   5.342  10.977  0.00  0.00    +0.000 C 
ATOM     13  C   UNL     1      43.409   3.824  10.769  0.00  0.00    +0.000 C 
BRANCH  13  14
ATOM     14  C   UNL     1      44.439   3.454   9.718  0.00  0.00    +0.000 A 
ATOM     15  C   UNL     1      44.772   2.117   9.506  0.00  0.00    +0.000 A 
ATOM     16  C   UNL     1      45.680   1.800   8.499  0.00  0.00    +0.000 A 
ATOM     17  C   UNL     1      46.240   2.820   7.743  0.00  0.00    +0.000 A 
ATOM     18  C   UNL     1      45.874   4.123   8.030  0.00  0.00    +0.000 A 
ATOM     19  N   UNL     1      44.990   4.459   8.995  0.00  0.00    +0.000 NA
ENDBRANCH  13  14
ENDBRANCH  11  13
ENDBRANCH   9  11
ENDBRANCH   8   9
ENDBRANCH   1   8
BRANCH   3  20
ATOM     20  C   UNL     1      48.346   5.357  17.056  0.00  0.00    +0.000 C 
BRANCH  20  21
ATOM     21  N   UNL     1      49.652   4.771  17.198  0.00  0.00    +0.000 N 
ATOM     22  C   UNL     1      50.192   4.563  18.445  0.00  0.00    +0.000 C 
ATOM     23  O   UNL     1      49.559   4.795  19.469  0.00  0.00    +0.000 OA
ATOM     24  H   UNL     1      50.274   4.814  16.398  0.00  0.00    +0.000 HD
BRANCH  22  25
ATOM     25  C   UNL     1      51.545   3.989  18.488  0.00  0.00    +0.000 A 
ATOM     26  C   UNL     1      52.579   4.725  19.051  0.00  0.00    +0.000 A 
ATOM     27  S   UNL     1      54.071   3.900  19.073  0.00  0.00    +0.000 S 
ATOM     28  C   UNL     1      53.399   2.550  18.284  0.00  0.00    +0.000 A 
ATOM     29  N   UNL     1      54.164   1.469  17.972  0.00  0.00    +0.000 NA
ATOM     30  C   UNL     1      53.536   0.535  17.339  0.00  0.00    +0.000 A 
ATOM     31  N   UNL     1      52.209   0.580  16.998  0.00  0.00    +0.000 N 
ATOM     32  C   UNL     1      51.389   1.636  17.324  0.00  0.00    +0.000 A 
ATOM     33  O   UNL     1      50.193   1.624  17.054  0.00  0.00    +0.000 OA
ATOM     34  C   UNL     1      52.052   2.721  18.021  0.00  0.00    +0.000 A 
ATOM     35  H   UNL     1      51.775  -0.189  16.509  0.00  0.00    +0.000 HD
ENDBRANCH  22  25
ENDBRANCH  20  21
ENDBRANCH   3  20
TORSDOF 8
ENDMDL
MODEL 5
REMARK VINA RESULT:    -7.522      1.832      2.366
REMARK INTER + INTRA:         -12.536
REMARK INTER:                 -11.864
REMARK INTRA:                  -0.672
REMARK UNBOUND:                -1.496
REMARK  Name = 
REMARK  9 active torsions:
REMARK  status: ('A' for Active; 'I' for Inactive)
REMARK    1  A    between atoms: C_1  and  C_2
REMARK    2  A    between atoms: C_2  and  C_3
REMARK    3  A    between atoms: C_2  and  C_27
REMARK    4  A    between atoms: C_3  and  N_4
REMARK    5  A    between atoms: N_4  and  C_5
REMARK    6  A    between atoms: C_5  and  C_6
REMARK    7  A    between atoms: C_8  and  C_9
REMARK    8  A    between atoms: C_9  and  N_10
REMARK    9  A    between atoms: C_11  and  C_13
REMARK                            x       y       z     vdW  Elec       q    Type
REMARK                         _______ _______ _______ _____ _____    ______ ____
ROOT
ATOM      1  C   UNL     1      46.126   5.971  12.541  0.00  0.00    +0.000 A 
ATOM      2  C   UNL     1      46.063   4.987  13.549  0.00  0.00    +0.000 A 
ATOM      3  C   UNL     1      46.997   4.976  14.593  0.00  0.00    +0.000 A 
ATOM      4  C   UNL     1      47.998   5.939  14.566  0.00  0.00    +0.000 A 
ATOM      5  N   UNL     1      48.081   6.909  13.635  0.00  0.00    +0.000 NA
ATOM      6  C   UNL     1      47.138   6.923  12.666  0.00  0.00    +0.000 A 
ATOM      7 CL   UNL     1      47.326   8.289  11.636  0.00  0.00    +0.000 Cl
ENDROOT
BRANCH   1   8
ATOM      8  C   UNL     1      45.076   5.980  11.459  0.00  0.00    +0.000 C 
BRANCH   8   9
ATOM      9  N   UNL     1      45.542   5.654  10.114  0.00  0.00    +0.000 NA
ATOM     10  H   UNL     1      45.600   6.497   9.547  0.00  0.00    +0.000 HD
BRANCH   9  11
ATOM     11  C   UNL     1      44.766   4.625   9.405  0.00  0.00    +0.000 C 
BRANCH  11  13
ATOM     12  C   UNL     1      44.107   2.249  10.026  0.00  0.00    +0.000 C 
ATOM     13  C   UNL     1      45.253   3.179   9.612  0.00  0.00    +0.000 C 
BRANCH  13  14
ATOM     14  C   UNL     1      45.929   2.664   8.355  0.00  0.00    +0.000 A 
ATOM     15  C   UNL     1      46.128   3.515   7.269  0.00  0.00    +0.000 A 
ATOM     16  C   UNL     1      46.798   3.033   6.148  0.00  0.00    +0.000 A 
ATOM     17  C   UNL     1      47.238   1.716   6.133  0.00  0.00    +0.000 A 
ATOM     18  C   UNL     1      46.982   0.929   7.242  0.00  0.00    +0.000 A 
ATOM     19  N   UNL     1      46.342   1.373   8.346  0.00  0.00    +0.000 NA
ENDBRANCH  13  14
ENDBRANCH  11  13
ENDBRANCH   9  11
ENDBRANCH   8   9
ENDBRANCH   1   8
BRANCH   3  20
ATOM     20  C   UNL     1      46.953   3.974  15.707  0.00  0.00    +0.000 C 
BRANCH  20  21
ATOM     21  N   UNL     1      48.257   3.757  16.277  0.00  0.00    +0.000 N 
ATOM     22  C   UNL     1      48.631   4.402  17.430  0.00  0.00    +0.000 C 
ATOM     23  O   UNL     1      47.854   5.118  18.051  0.00  0.00    +0.000 OA
ATOM     24  H   UNL     1      48.979   3.391  15.665  0.00  0.00    +0.000 HD
BRANCH  22  25
ATOM     25  C   UNL     1      49.993   4.140  17.917  0.00  0.00    +0.000 A 
ATOM     26  C   UNL     1      50.633   5.093  18.698  0.00  0.00    +0.000 A 
ATOM     27  S   UNL     1      52.182   4.617  19.227  0.00  0.00    +0.000 S 
ATOM     28  C   UNL     1      52.075   3.141  18.388  0.00  0.00    +0.000 A 
ATOM     29  N   UNL     1      53.103   2.250  18.404  0.00  0.00    +0.000 NA
ATOM     30  C   UNL     1      52.904   1.191  17.692  0.00  0.00    +0.000 A 
ATOM     31  N   UNL     1      51.764   0.938  16.972  0.00  0.00    +0.000 N 
ATOM     32  C   UNL     1      50.686   1.793  16.955  0.00  0.00    +0.000 A 
ATOM     33  O   UNL     1      49.659   1.514  16.346  0.00  0.00    +0.000 OA
ATOM     34  C   UNL     1      50.868   3.007  17.726  0.00  0.00    +0.000 A 
ATOM     35  H   UNL     1      51.668   0.085  16.441  0.00  0.00    +0.000 HD
ENDBRANCH  22  25
ENDBRANCH  20  21
ENDBRANCH   3  20
TORSDOF 8
ENDMDL
MODEL 6
REMARK VINA RESULT:    -7.429      4.184      9.063
REMARK INTER + INTRA:         -12.399
REMARK INTER:                  -9.663
REMARK INTRA:                  -2.736
REMARK UNBOUND:                -1.496
REMARK  Name = 
REMARK  9 active torsions:
REMARK  status: ('A' for Active; 'I' for Inactive)
REMARK    1  A    between atoms: C_1  and  C_2
REMARK    2  A    between atoms: C_2  and  C_3
REMARK    3  A    between atoms: C_2  and  C_27
REMARK    4  A    between atoms: C_3  and  N_4
REMARK    5  A    between atoms: N_4  and  C_5
REMARK    6  A    between atoms: C_5  and  C_6
REMARK    7  A    between atoms: C_8  and  C_9
REMARK    8  A    between atoms: C_9  and  N_10
REMARK    9  A    between atoms: C_11  and  C_13
REMARK                            x       y       z     vdW  Elec       q    Type
REMARK                         _______ _______ _______ _____ _____    ______ ____
ROOT
ATOM      1  C   UNL     1      48.382   5.618  19.500  0.00  0.00    +0.000 A 
ATOM      2  C   UNL     1      47.624   5.035  18.463  0.00  0.00    +0.000 A 
ATOM      3  C   UNL     1      48.198   4.088  17.607  0.00  0.00    +0.000 A 
ATOM      4  C   UNL     1      49.540   3.785  17.795  0.00  0.00    +0.000 A 
ATOM      5  N   UNL     1      50.293   4.300  18.786  0.00  0.00    +0.000 NA
ATOM      6  C   UNL     1      49.700   5.176  19.627  0.00  0.00    +0.000 A 
ATOM      7 CL   UNL     1      50.767   5.642  20.894  0.00  0.00    +0.000 Cl
ENDROOT
BRANCH   1   8
ATOM      8  C   UNL     1      47.718   6.598  20.433  0.00  0.00    +0.000 C 
BRANCH   8   9
ATOM      9  N   UNL     1      47.990   8.010  20.174  0.00  0.00    +0.000 NA
ATOM     10  H   UNL     1      47.873   8.553  21.027  0.00  0.00    +0.000 HD
BRANCH   9  11
ATOM     11  C   UNL     1      47.212   8.616  19.083  0.00  0.00    +0.000 C 
BRANCH  11  13
ATOM     12  C   UNL     1      48.740  10.593  18.614  0.00  0.00    +0.000 C 
ATOM     13  C   UNL     1      48.042   9.363  18.023  0.00  0.00    +0.000 C 
BRANCH  13  14
ATOM     14  C   UNL     1      49.056   8.429  17.389  0.00  0.00    +0.000 A 
ATOM     15  C   UNL     1      48.712   7.686  16.260  0.00  0.00    +0.000 A 
ATOM     16  C   UNL     1      49.677   6.876  15.667  0.00  0.00    +0.000 A 
ATOM     17  C   UNL     1      50.949   6.818  16.219  0.00  0.00    +0.000 A 
ATOM     18  C   UNL     1      51.204   7.569  17.352  0.00  0.00    +0.000 A 
ATOM     19  N   UNL     1      50.291   8.369  17.945  0.00  0.00    +0.000 NA
ENDBRANCH  13  14
ENDBRANCH  11  13
ENDBRANCH   9  11
ENDBRANCH   8   9
ENDBRANCH   1   8
BRANCH   3  20
ATOM     20  C   UNL     1      47.426   3.414  16.512  0.00  0.00    +0.000 C 
BRANCH  20  21
ATOM     21  N   UNL     1      46.784   4.370  15.648  0.00  0.00    +0.000 N 
ATOM     22  C   UNL     1      46.782   4.189  14.287  0.00  0.00    +0.000 C 
ATOM     23  O   UNL     1      47.253   3.183  13.768  0.00  0.00    +0.000 OA
ATOM     24  H   UNL     1      46.626   5.302  16.018  0.00  0.00    +0.000 HD
BRANCH  22  25
ATOM     25  C   UNL     1      46.130   5.235  13.485  0.00  0.00    +0.000 A 
ATOM     26  C   UNL     1      46.784   6.442  13.277  0.00  0.00    +0.000 A 
ATOM     27  S   UNL     1      45.919   7.525  12.284  0.00  0.00    +0.000 S 
ATOM     28  C   UNL     1      44.617   6.441  12.140  0.00  0.00    +0.000 A 
ATOM     29  N   UNL     1      43.508   6.770  11.424  0.00  0.00    +0.000 NA
ATOM     30  C   UNL     1      42.580   5.871  11.433  0.00  0.00    +0.000 A 
ATOM     31  N   UNL     1      42.665   4.668  12.085  0.00  0.00    +0.000 N 
ATOM     32  C   UNL     1      43.780   4.279  12.791  0.00  0.00    +0.000 A 
ATOM     33  O   UNL     1      43.849   3.174  13.320  0.00  0.00    +0.000 OA
ATOM     34  C   UNL     1      44.844   5.262  12.828  0.00  0.00    +0.000 A 
ATOM     35  H   UNL     1      41.906   4.005  12.046  0.00  0.00    +0.000 HD
ENDBRANCH  22  25
ENDBRANCH  20  21
ENDBRANCH   3  20
TORSDOF 8
ENDMDL
MODEL 7
REMARK VINA RESULT:    -7.271      3.684      8.985
REMARK INTER + INTRA:         -12.168
REMARK INTER:                 -10.719
REMARK INTRA:                  -1.449
REMARK UNBOUND:                -1.496
REMARK  Name = 
REMARK  9 active torsions:
REMARK  status: ('A' for Active; 'I' for Inactive)
REMARK    1  A    between atoms: C_1  and  C_2
REMARK    2  A    between atoms: C_2  and  C_3
REMARK    3  A    between atoms: C_2  and  C_27
REMARK    4  A    between atoms: C_3  and  N_4
REMARK    5  A    between atoms: N_4  and  C_5
REMARK    6  A    between atoms: C_5  and  C_6
REMARK    7  A    between atoms: C_8  and  C_9
REMARK    8  A    between atoms: C_9  and  N_10
REMARK    9  A    between atoms: C_11  and  C_13
REMARK                            x       y       z     vdW  Elec       q    Type
REMARK                         _______ _______ _______ _____ _____    ______ ____
ROOT
ATOM      1  C   UNL     1      49.265   7.346  15.272  0.00  0.00    +0.000 A 
ATOM      2  C   UNL     1      48.176   7.453  14.382  0.00  0.00    +0.000 A 
ATOM      3  C   UNL     1      48.374   7.872  13.062  0.00  0.00    +0.000 A 
ATOM      4  C   UNL     1      49.667   8.214  12.686  0.00  0.00    +0.000 A 
ATOM      5  N   UNL     1      50.737   8.104  13.496  0.00  0.00    +0.000 NA
ATOM      6  C   UNL     1      50.523   7.651  14.751  0.00  0.00    +0.000 A 
ATOM      7 CL   UNL     1      52.005   7.463  15.606  0.00  0.00    +0.000 Cl
ENDROOT
BRANCH   1   8
ATOM      8  C   UNL     1      49.021   6.845  16.673  0.00  0.00    +0.000 C 
BRANCH   8   9
ATOM      9  N   UNL     1      47.944   5.870  16.824  0.00  0.00    +0.000 NA
ATOM     10  H   UNL     1      47.055   6.346  16.966  0.00  0.00    +0.000 HD
BRANCH   9  11
ATOM     11  C   UNL     1      48.145   4.860  17.874  0.00  0.00    +0.000 C 
BRANCH  11  13
ATOM     12  C   UNL     1      47.881   3.257  15.918  0.00  0.00    +0.000 C 
ATOM     13  C   UNL     1      48.351   3.420  17.367  0.00  0.00    +0.000 C 
BRANCH  13  14
ATOM     14  C   UNL     1      49.806   3.014  17.504  0.00  0.00    +0.000 A 
ATOM     15  C   UNL     1      50.740   3.919  18.008  0.00  0.00    +0.000 A 
ATOM     16  C   UNL     1      52.059   3.504  18.174  0.00  0.00    +0.000 A 
ATOM     17  C   UNL     1      52.414   2.209  17.821  0.00  0.00    +0.000 A 
ATOM     18  C   UNL     1      51.433   1.380  17.308  0.00  0.00    +0.000 A 
ATOM     19  N   UNL     1      50.145   1.752  17.144  0.00  0.00    +0.000 NA
ENDBRANCH  13  14
ENDBRANCH  11  13
ENDBRANCH   9  11
ENDBRANCH   8   9
ENDBRANCH   1   8
BRANCH   3  20
ATOM     20  C   UNL     1      47.256   7.970  12.067  0.00  0.00    +0.000 C 
BRANCH  20  21
ATOM     21  N   UNL     1      46.654   6.686  11.817  0.00  0.00    +0.000 N 
ATOM     22  C   UNL     1      45.293   6.571  11.674  0.00  0.00    +0.000 C 
ATOM     23  O   UNL     1      44.557   7.552  11.676  0.00  0.00    +0.000 OA
ATOM     24  H   UNL     1      47.191   5.862  12.064  0.00  0.00    +0.000 HD
BRANCH  22  25
ATOM     25  C   UNL     1      44.768   5.215  11.454  0.00  0.00    +0.000 A 
ATOM     26  C   UNL     1      44.038   4.595  12.459  0.00  0.00    +0.000 A 
ATOM     27  S   UNL     1      43.455   3.052  12.028  0.00  0.00    +0.000 S 
ATOM     28  C   UNL     1      44.201   3.135  10.502  0.00  0.00    +0.000 A 
ATOM     29  N   UNL     1      44.112   2.102   9.621  0.00  0.00    +0.000 NA
ATOM     30  C   UNL     1      44.760   2.282   8.519  0.00  0.00    +0.000 A 
ATOM     31  N   UNL     1      45.480   3.408   8.212  0.00  0.00    +0.000 N 
ATOM     32  C   UNL     1      45.569   4.491   9.056  0.00  0.00    +0.000 A 
ATOM     33  O   UNL     1      46.176   5.506   8.731  0.00  0.00    +0.000 OA
ATOM     34  C   UNL     1      44.873   4.331  10.318  0.00  0.00    +0.000 A 
ATOM     35  H   UNL     1      45.958   3.490   7.327  0.00  0.00    +0.000 HD
ENDBRANCH  22  25
ENDBRANCH  20  21
ENDBRANCH   3  20
TORSDOF 8
ENDMDL
MODEL 8
REMARK VINA RESULT:    -7.061      2.510      3.871
REMARK INTER + INTRA:         -11.859
REMARK INTER:                 -10.685
REMARK INTRA:                  -1.175
REMARK UNBOUND:                -1.496
REMARK  Name = 
REMARK  9 active torsions:
REMARK  status: ('A' for Active; 'I' for Inactive)
REMARK    1  A    between atoms: C_1  and  C_2
REMARK    2  A    between atoms: C_2  and  C_3
REMARK    3  A    between atoms: C_2  and  C_27
REMARK    4  A    between atoms: C_3  and  N_4
REMARK    5  A    between atoms: N_4  and  C_5
REMARK    6  A    between atoms: C_5  and  C_6
REMARK    7  A    between atoms: C_8  and  C_9
REMARK    8  A    between atoms: C_9  and  N_10
REMARK    9  A    between atoms: C_11  and  C_13
REMARK                            x       y       z     vdW  Elec       q    Type
REMARK                         _______ _______ _______ _____ _____    ______ ____
ROOT
ATOM      1  C   UNL     1      46.334   8.245  12.125  0.00  0.00    +0.000 A 
ATOM      2  C   UNL     1      47.560   7.667  12.515  0.00  0.00    +0.000 A 
ATOM      3  C   UNL     1      48.650   8.475  12.859  0.00  0.00    +0.000 A 
ATOM      4  C   UNL     1      48.484   9.851  12.760  0.00  0.00    +0.000 A 
ATOM      5  N   UNL     1      47.325  10.443  12.414  0.00  0.00    +0.000 NA
ATOM      6  C   UNL     1      46.276   9.639  12.134  0.00  0.00    +0.000 A 
ATOM      7 CL   UNL     1      44.852  10.557  11.828  0.00  0.00    +0.000 Cl
ENDROOT
BRANCH   1   8
ATOM      8  C   UNL     1      45.168   7.344  11.807  0.00  0.00    +0.000 C 
BRANCH   8   9
ATOM      9  N   UNL     1      44.592   6.621  12.938  0.00  0.00    +0.000 NA
ATOM     10  H   UNL     1      44.990   6.960  13.812  0.00  0.00    +0.000 HD
BRANCH   9  11
ATOM     11  C   UNL     1      44.699   5.156  12.875  0.00  0.00    +0.000 C 
BRANCH  11  13
ATOM     12  C   UNL     1      42.446   5.390  11.721  0.00  0.00    +0.000 C 
ATOM     13  C   UNL     1      43.622   4.457  12.024  0.00  0.00    +0.000 C 
BRANCH  13  14
ATOM     14  C   UNL     1      44.227   3.927  10.737  0.00  0.00    +0.000 A 
ATOM     15  C   UNL     1      44.130   2.572  10.425  0.00  0.00    +0.000 A 
ATOM     16  C   UNL     1      44.645   2.121   9.213  0.00  0.00    +0.000 A 
ATOM     17  C   UNL     1      45.254   3.025   8.354  0.00  0.00    +0.000 A 
ATOM     18  C   UNL     1      45.329   4.350   8.747  0.00  0.00    +0.000 A 
ATOM     19  N   UNL     1      44.831   4.817   9.912  0.00  0.00    +0.000 NA
ENDBRANCH  13  14
ENDBRANCH  11  13
ENDBRANCH   9  11
ENDBRANCH   8   9
ENDBRANCH   1   8
BRANCH   3  20
ATOM     20  C   UNL     1      49.964   7.913  13.314  0.00  0.00    +0.000 C 
BRANCH  20  21
ATOM     21  N   UNL     1      49.796   6.983  14.400  0.00  0.00    +0.000 N 
ATOM     22  C   UNL     1      49.680   7.434  15.692  0.00  0.00    +0.000 C 
ATOM     23  O   UNL     1      49.639   8.630  15.958  0.00  0.00    +0.000 OA
ATOM     24  H   UNL     1      50.081   6.022  14.241  0.00  0.00    +0.000 HD
BRANCH  22  25
ATOM     25  C   UNL     1      49.545   6.408  16.737  0.00  0.00    +0.000 A 
ATOM     26  C   UNL     1      50.313   6.504  17.889  0.00  0.00    +0.000 A 
ATOM     27  S   UNL     1      50.000   5.269  19.023  0.00  0.00    +0.000 S 
ATOM     28  C   UNL     1      48.864   4.534  17.992  0.00  0.00    +0.000 A 
ATOM     29  N   UNL     1      48.224   3.390  18.358  0.00  0.00    +0.000 NA
ATOM     30  C   UNL     1      47.421   2.919  17.463  0.00  0.00    +0.000 A 
ATOM     31  N   UNL     1      47.190   3.494  16.240  0.00  0.00    +0.000 N 
ATOM     32  C   UNL     1      47.787   4.668  15.843  0.00  0.00    +0.000 A 
ATOM     33  O   UNL     1      47.520   5.188  14.764  0.00  0.00    +0.000 OA
ATOM     34  C   UNL     1      48.715   5.229  16.805  0.00  0.00    +0.000 A 
ATOM     35  H   UNL     1      46.542   3.078  15.588  0.00  0.00    +0.000 HD
ENDBRANCH  22  25
ENDBRANCH  20  21
ENDBRANCH   3  20
TORSDOF 8
ENDMDL
MODEL 9
REMARK VINA RESULT:    -7.000      2.624      3.693
REMARK INTER + INTRA:         -11.770
REMARK INTER:                 -10.837
REMARK INTRA:                  -0.934
REMARK UNBOUND:                -1.496
REMARK  Name = 
REMARK  9 active torsions:
REMARK  status: ('A' for Active; 'I' for Inactive)
REMARK    1  A    between atoms: C_1  and  C_2
REMARK    2  A    between atoms: C_2  and  C_3
REMARK    3  A    between atoms: C_2  and  C_27
REMARK    4  A    between atoms: C_3  and  N_4
REMARK    5  A    between atoms: N_4  and  C_5
REMARK    6  A    between atoms: C_5  and  C_6
REMARK    7  A    between atoms: C_8  and  C_9
REMARK    8  A    between atoms: C_9  and  N_10
REMARK    9  A    between atoms: C_11  and  C_13
REMARK                            x       y       z     vdW  Elec       q    Type
REMARK                         _______ _______ _______ _____ _____    ______ ____
ROOT
ATOM      1  C   UNL     1      48.300   7.194  12.767  0.00  0.00    +0.000 A 
ATOM      2  C   UNL     1      48.096   6.676  14.063  0.00  0.00    +0.000 A 
ATOM      3  C   UNL     1      49.004   6.953  15.092  0.00  0.00    +0.000 A 
ATOM      4  C   UNL     1      50.121   7.713  14.772  0.00  0.00    +0.000 A 
ATOM      5  N   UNL     1      50.343   8.245  13.554  0.00  0.00    +0.000 NA
ATOM      6  C   UNL     1      49.425   8.002  12.593  0.00  0.00    +0.000 A 
ATOM      7 CL   UNL     1      49.803   8.848  11.143  0.00  0.00    +0.000 Cl
ENDROOT
BRANCH   1   8
ATOM      8  C   UNL     1      47.277   6.915  11.696  0.00  0.00    +0.000 C 
BRANCH   8   9
ATOM      9  N   UNL     1      45.881   6.940  12.124  0.00  0.00    +0.000 NA
ATOM     10  H   UNL     1      45.772   6.433  13.000  0.00  0.00    +0.000 HD
BRANCH   9  11
ATOM     11  C   UNL     1      44.905   6.452  11.138  0.00  0.00    +0.000 C 
BRANCH  11  13
ATOM     12  C   UNL     1      42.962   4.863  11.540  0.00  0.00    +0.000 C 
ATOM     13  C   UNL     1      44.473   4.985  11.315  0.00  0.00    +0.000 C 
BRANCH  13  14
ATOM     14  C   UNL     1      44.902   4.159  10.117  0.00  0.00    +0.000 A 
ATOM     15  C   UNL     1      45.558   4.767   9.047  0.00  0.00    +0.000 A 
ATOM     16  C   UNL     1      45.988   3.977   7.984  0.00  0.00    +0.000 A 
ATOM     17  C   UNL     1      45.742   2.611   8.008  0.00  0.00    +0.000 A 
ATOM     18  C   UNL     1      45.066   2.088   9.096  0.00  0.00    +0.000 A 
ATOM     19  N   UNL     1      44.644   2.828  10.145  0.00  0.00    +0.000 NA
ENDBRANCH  13  14
ENDBRANCH  11  13
ENDBRANCH   9  11
ENDBRANCH   8   9
ENDBRANCH   1   8
BRANCH   3  20
ATOM     20  C   UNL     1      48.814   6.456  16.494  0.00  0.00    +0.000 C 
BRANCH  20  21
ATOM     21  N   UNL     1      49.987   5.778  16.980  0.00  0.00    +0.000 N 
ATOM     22  C   UNL     1      49.872   4.617  17.705  0.00  0.00    +0.000 C 
ATOM     23  O   UNL     1      48.786   4.080  17.896  0.00  0.00    +0.000 OA
ATOM     24  H   UNL     1      50.842   6.320  17.058  0.00  0.00    +0.000 HD
BRANCH  22  25
ATOM     25  C   UNL     1      51.124   4.015  18.186  0.00  0.00    +0.000 A 
ATOM     26  C   UNL     1      51.962   4.754  19.009  0.00  0.00    +0.000 A 
ATOM     27  S   UNL     1      53.344   3.896  19.523  0.00  0.00    +0.000 S 
ATOM     28  C   UNL     1      52.896   2.525  18.622  0.00  0.00    +0.000 A 
ATOM     29  N   UNL     1      53.679   1.412  18.605  0.00  0.00    +0.000 NA
ATOM     30  C   UNL     1      53.241   0.463  17.847  0.00  0.00    +0.000 A 
ATOM     31  N   UNL     1      52.084   0.521  17.113  0.00  0.00    +0.000 N 
ATOM     32  C   UNL     1      51.244   1.611  17.128  0.00  0.00    +0.000 A 
ATOM     33  O   UNL     1      50.189   1.613  16.503  0.00  0.00    +0.000 OA
ATOM     34  C   UNL     1      51.702   2.713  17.950  0.00  0.00    +0.000 A 
ATOM     35  H   UNL     1      51.793  -0.261  16.545  0.00  0.00    +0.000 HD
ENDBRANCH  22  25
ENDBRANCH  20  21
ENDBRANCH   3  20
TORSDOF 8
ENDMDL
