MODEL 1
REMARK VINA RESULT:    -7.888      0.000      0.000
REMARK INTER + INTRA:         -11.099
REMARK INTER:                 -10.425
REMARK INTRA:                  -0.675
REMARK UNBOUND:                -0.675
REMARK  Name = 
REMARK  6 active torsions:
REMARK  status: ('A' for Active; 'I' for Inactive)
REMARK    1  A    between atoms: N_1  and  C_2
REMARK    2  A    between atoms: C_2  and  C_3
REMARK    3  A    between atoms: C_6  and  C_7
REMARK    4  A    between atoms: C_7  and  O_8
REMARK    5  A    between atoms: O_8  and  C_9
REMARK    6  A    between atoms: C_13  and  C_14
REMARK                            x       y       z     vdW  Elec       q    Type
REMARK                         _______ _______ _______ _____ _____    ______ ____
ROOT
ATOM      1  O   UNL     1      43.983   4.057  11.147  0.00  0.00    +0.000 OA
ENDROOT
BRANCH   1   2
ATOM      2  C   UNL     1      44.919   4.789  11.830  0.00  0.00    +0.000 A 
ATOM      3  C   UNL     1      45.298   6.098  11.539  0.00  0.00    +0.000 A 
ATOM      4  C   UNL     1      46.261   6.704  12.330  0.00  0.00    +0.000 A 
ATOM      5  N   UNL     1      46.862   6.103  13.375  0.00  0.00    +0.000 NA
ATOM      6  C   UNL     1      46.475   4.822  13.637  0.00  0.00    +0.000 A 
ATOM      7  C   UNL     1      45.522   4.133  12.900  0.00  0.00    +0.000 A 
BRANCH   6   8
ATOM      8  C   UNL     1      47.145   4.159  14.801  0.00  0.00    +0.000 C 
ATOM      9  N   UNL     1      47.192   4.905  15.947  0.00  0.00    +0.000 N 
ATOM     10  O   UNL     1      47.618   3.032  14.744  0.00  0.00    +0.000 OA
ATOM     11  H   UNL     1      46.784   5.835  15.954  0.00  0.00    +0.000 HD
ATOM     12  H   UNL     1      47.623   4.526  16.776  0.00  0.00    +0.000 HD
ENDBRANCH   6   8
ENDBRANCH   1   2
BRANCH   1  13
ATOM     13  C   UNL     1      43.827   4.363   9.762  0.00  0.00    +0.000 C 
BRANCH  13  17
ATOM     14  C   UNL     1      46.828   2.218   7.494  0.00  0.00    +0.000 A 
ATOM     15  C   UNL     1      46.664   3.601   7.333  0.00  0.00    +0.000 A 
ATOM     16  C   UNL     1      45.684   4.292   8.050  0.00  0.00    +0.000 A 
ATOM     17  C   UNL     1      44.853   3.613   8.951  0.00  0.00    +0.000 A 
ATOM     18  C   UNL     1      44.998   2.228   9.094  0.00  0.00    +0.000 A 
ATOM     19  C   UNL     1      45.980   1.538   8.377  0.00  0.00    +0.000 A 
BRANCH  14  20
ATOM     20  C   UNL     1      47.880   1.474   6.710  0.00  0.00    +0.000 C 
BRANCH  20  21
ATOM     21  N   UNL     1      48.364   2.256   5.578  0.00  0.00    +0.000 NA
ATOM     22  H   UNL     1      48.370   1.667   4.747  0.00  0.00    +0.000 HD
ATOM     23  H   UNL     1      49.332   2.518   5.753  0.00  0.00    +0.000 HD
ENDBRANCH  20  21
ENDBRANCH  14  20
ENDBRANCH  13  17
ENDBRANCH   1  13
TORSDOF 6
ENDMDL
MODEL 2
REMARK VINA RESULT:    -7.301      1.628      2.630
REMARK INTER + INTRA:         -10.323
REMARK INTER:                  -9.640
REMARK INTRA:                  -0.684
REMARK UNBOUND:                -0.675
REMARK  Name = 
REMARK  6 active torsions:
REMARK  status: ('A' for Active; 'I' for Inactive)
REMARK    1  A    between atoms: N_1  and  C_2
REMARK    2  A    between atoms: C_2  and  C_3
REMARK    3  A    between atoms: C_6  and  C_7
REMARK    4  A    between atoms: C_7  and  O_8
REMARK    5  A    between atoms: O_8  and  C_9
REMARK    6  A    between atoms: C_13  and  C_14
REMARK                            x       y       z     vdW  Elec       q    Type
REMARK                         _______ _______ _______ _____ _____    ______ ____
ROOT
ATOM      1  O   UNL     1      43.851   4.101  11.270  0.00  0.00    +0.000 OA
ENDROOT
BRANCH   1   2
ATOM      2  C   UNL     1      44.838   4.620  12.067  0.00  0.00    +0.000 A 
ATOM      3  C   UNL     1      45.756   3.880  12.811  0.00  0.00    +0.000 A 
ATOM      4  C   UNL     1      46.699   4.557  13.568  0.00  0.00    +0.000 A 
ATOM      5  N   UNL     1      46.787   5.899  13.633  0.00  0.00    +0.000 NA
ATOM      6  C   UNL     1      45.876   6.599  12.898  0.00  0.00    +0.000 A 
ATOM      7  C   UNL     1      44.896   6.010  12.113  0.00  0.00    +0.000 A 
BRANCH   6   8
ATOM      8  C   UNL     1      45.981   8.092  12.972  0.00  0.00    +0.000 C 
ATOM      9  N   UNL     1      44.842   8.771  12.633  0.00  0.00    +0.000 N 
ATOM     10  O   UNL     1      47.003   8.672  13.312  0.00  0.00    +0.000 OA
ATOM     11  H   UNL     1      44.014   8.252  12.360  0.00  0.00    +0.000 HD
ATOM     12  H   UNL     1      44.832   9.780  12.661  0.00  0.00    +0.000 HD
ENDBRANCH   6   8
ENDBRANCH   1   2
BRANCH   1  13
ATOM     13  C   UNL     1      43.843   4.532   9.910  0.00  0.00    +0.000 C 
BRANCH  13  17
ATOM     14  C   UNL     1      46.634   2.209   7.550  0.00  0.00    +0.000 A 
ATOM     15  C   UNL     1      45.795   1.585   8.482  0.00  0.00    +0.000 A 
ATOM     16  C   UNL     1      44.906   2.334   9.257  0.00  0.00    +0.000 A 
ATOM     17  C   UNL     1      44.834   3.726   9.109  0.00  0.00    +0.000 A 
ATOM     18  C   UNL     1      45.690   4.354   8.196  0.00  0.00    +0.000 A 
ATOM     19  C   UNL     1      46.577   3.602   7.420  0.00  0.00    +0.000 A 
BRANCH  14  20
ATOM     20  C   UNL     1      47.599   1.398   6.722  0.00  0.00    +0.000 C 
BRANCH  20  21
ATOM     21  N   UNL     1      48.446   2.247   5.892  0.00  0.00    +0.000 NA
ATOM     22  H   UNL     1      49.417   1.973   6.020  0.00  0.00    +0.000 HD
ATOM     23  H   UNL     1      48.369   3.207   6.223  0.00  0.00    +0.000 HD
ENDBRANCH  20  21
ENDBRANCH  14  20
ENDBRANCH  13  17
ENDBRANCH   1  13
TORSDOF 6
ENDMDL
MODEL 3
REMARK VINA RESULT:    -7.141      1.607      2.006
REMARK INTER + INTRA:         -10.112
REMARK INTER:                  -9.611
REMARK INTRA:                  -0.501
REMARK UNBOUND:                -0.675
REMARK  Name = 
REMARK  6 active torsions:
REMARK  status: ('A' for Active; 'I' for Inactive)
REMARK    1  A    between atoms: N_1  and  C_2
REMARK    2  A    between atoms: C_2  and  C_3
REMARK    3  A    between atoms: C_6  and  C_7
REMARK    4  A    between atoms: C_7  and  O_8
REMARK    5  A    between atoms: O_8  and  C_9
REMARK    6  A    between atoms: C_13  and  C_14
REMARK                            x       y       z     vdW  Elec       q    Type
REMARK                         _______ _______ _______ _____ _____    ______ ____
ROOT
ATOM      1  O   UNL     1      44.794   3.270  11.509  0.00  0.00    +0.000 OA
ENDROOT
BRANCH   1   2
ATOM      2  C   UNL     1      44.952   4.608  11.762  0.00  0.00    +0.000 A 
ATOM      3  C   UNL     1      44.073   5.618  11.376  0.00  0.00    +0.000 A 
ATOM      4  C   UNL     1      44.375   6.928  11.712  0.00  0.00    +0.000 A 
ATOM      5  N   UNL     1      45.477   7.293  12.394  0.00  0.00    +0.000 NA
ATOM      6  C   UNL     1      46.323   6.287  12.756  0.00  0.00    +0.000 A 
ATOM      7  C   UNL     1      46.105   4.948  12.464  0.00  0.00    +0.000 A 
BRANCH   6   8
ATOM      8  C   UNL     1      47.546   6.699  13.517  0.00  0.00    +0.000 C 
ATOM      9  N   UNL     1      47.409   7.836  14.265  0.00  0.00    +0.000 N 
ATOM     10  O   UNL     1      48.595   6.071  13.481  0.00  0.00    +0.000 OA
ATOM     11  H   UNL     1      46.520   8.326  14.270  0.00  0.00    +0.000 HD
ATOM     12  H   UNL     1      48.188   8.176  14.809  0.00  0.00    +0.000 HD
ENDBRANCH   6   8
ENDBRANCH   1   2
BRANCH   1  13
ATOM     13  C   UNL     1      44.059   2.930  10.334  0.00  0.00    +0.000 C 
BRANCH  13  17
ATOM     14  C   UNL     1      46.657   2.771   6.872  0.00  0.00    +0.000 A 
ATOM     15  C   UNL     1      46.464   1.637   7.674  0.00  0.00    +0.000 A 
ATOM     16  C   UNL     1      45.641   1.691   8.801  0.00  0.00    +0.000 A 
ATOM     17  C   UNL     1      44.986   2.881   9.146  0.00  0.00    +0.000 A 
ATOM     18  C   UNL     1      45.198   4.022   8.361  0.00  0.00    +0.000 A 
ATOM     19  C   UNL     1      46.021   3.966   7.233  0.00  0.00    +0.000 A 
BRANCH  14  20
ATOM     20  C   UNL     1      47.555   2.712   5.662  0.00  0.00    +0.000 C 
BRANCH  20  21
ATOM     21  N   UNL     1      48.529   1.630   5.764  0.00  0.00    +0.000 NA
ATOM     22  H   UNL     1      48.295   0.910   5.084  0.00  0.00    +0.000 HD
ATOM     23  H   UNL     1      48.443   1.200   6.683  0.00  0.00    +0.000 HD
ENDBRANCH  20  21
ENDBRANCH  14  20
ENDBRANCH  13  17
ENDBRANCH   1  13
TORSDOF 6
ENDMDL
MODEL 4
REMARK VINA RESULT:    -6.922      2.135      6.485
REMARK INTER + INTRA:          -9.822
REMARK INTER:                  -9.162
REMARK INTRA:                  -0.660
REMARK UNBOUND:                -0.675
REMARK  Name = 
REMARK  6 active torsions:
REMARK  status: ('A' for Active; 'I' for Inactive)
REMARK    1  A    between atoms: N_1  and  C_2
REMARK    2  A    between atoms: C_2  and  C_3
REMARK    3  A    between atoms: C_6  and  C_7
REMARK    4  A    between atoms: C_7  and  O_8
REMARK    5  A    between atoms: O_8  and  C_9
REMARK    6  A    between atoms: C_13  and  C_14
REMARK                            x       y       z     vdW  Elec       q    Type
REMARK                         _______ _______ _______ _____ _____    ______ ____
ROOT
ATOM      1  O   UNL     1      44.111   4.604   9.138  0.00  0.00    +0.000 OA
ENDROOT
BRANCH   1   2
ATOM      2  C   UNL     1      44.796   3.486   8.736  0.00  0.00    +0.000 A 
ATOM      3  C   UNL     1      44.667   2.212   9.286  0.00  0.00    +0.000 A 
ATOM      4  C   UNL     1      45.432   1.181   8.764  0.00  0.00    +0.000 A 
ATOM      5  N   UNL     1      46.303   1.332   7.748  0.00  0.00    +0.000 NA
ATOM      6  C   UNL     1      46.412   2.589   7.230  0.00  0.00    +0.000 A 
ATOM      7  C   UNL     1      45.690   3.681   7.687  0.00  0.00    +0.000 A 
BRANCH   6   8
ATOM      8  C   UNL     1      47.381   2.750   6.099  0.00  0.00    +0.000 C 
ATOM      9  N   UNL     1      48.695   2.556   6.427  0.00  0.00    +0.000 N 
ATOM     10  O   UNL     1      47.034   3.034   4.960  0.00  0.00    +0.000 OA
ATOM     11  H   UNL     1      48.941   2.319   7.383  0.00  0.00    +0.000 HD
ATOM     12  H   UNL     1      49.408   2.644   5.718  0.00  0.00    +0.000 HD
ENDBRANCH   6   8
ENDBRANCH   1   2
BRANCH   1  13
ATOM     13  C   UNL     1      43.712   4.643  10.507  0.00  0.00    +0.000 C 
BRANCH  13  17
ATOM     14  C   UNL     1      47.042   6.007  12.917  0.00  0.00    +0.000 A 
ATOM     15  C   UNL     1      46.249   4.930  13.338  0.00  0.00    +0.000 A 
ATOM     16  C   UNL     1      45.163   4.500  12.571  0.00  0.00    +0.000 A 
ATOM     17  C   UNL     1      44.853   5.135  11.361  0.00  0.00    +0.000 A 
ATOM     18  C   UNL     1      45.628   6.227  10.951  0.00  0.00    +0.000 A 
ATOM     19  C   UNL     1      46.715   6.655  11.719  0.00  0.00    +0.000 A 
BRANCH  14  20
ATOM     20  C   UNL     1      48.206   6.475  13.752  0.00  0.00    +0.000 C 
BRANCH  20  21
ATOM     21  N   UNL     1      49.408   6.665  12.947  0.00  0.00    +0.000 NA
ATOM     22  H   UNL     1      49.169   6.551  11.964  0.00  0.00    +0.000 HD
ATOM     23  H   UNL     1      50.071   5.926  13.171  0.00  0.00    +0.000 HD
ENDBRANCH  20  21
ENDBRANCH  14  20
ENDBRANCH  13  17
ENDBRANCH   1  13
TORSDOF 6
ENDMDL
MODEL 5
REMARK VINA RESULT:    -6.871      1.861      6.148
REMARK INTER + INTRA:          -9.756
REMARK INTER:                  -9.544
REMARK INTRA:                  -0.212
REMARK UNBOUND:                -0.675
REMARK  Name = 
REMARK  6 active torsions:
REMARK  status: ('A' for Active; 'I' for Inactive)
REMARK    1  A    between atoms: N_1  and  C_2
REMARK    2  A    between atoms: C_2  and  C_3
REMARK    3  A    between atoms: C_6  and  C_7
REMARK    4  A    between atoms: C_7  and  O_8
REMARK    5  A    between atoms: O_8  and  C_9
REMARK    6  A    between atoms: C_13  and  C_14
REMARK                            x       y       z     vdW  Elec       q    Type
REMARK                         _______ _______ _______ _____ _____    ______ ____
ROOT
ATOM      1  O   UNL     1      43.624   2.714  10.628  0.00  0.00    +0.000 OA
ENDROOT
BRANCH   1   2
ATOM      2  C   UNL     1      44.465   3.011   9.588  0.00  0.00    +0.000 A 
ATOM      3  C   UNL     1      44.592   4.256   8.974  0.00  0.00    +0.000 A 
ATOM      4  C   UNL     1      45.495   4.395   7.932  0.00  0.00    +0.000 A 
ATOM      5  N   UNL     1      46.266   3.394   7.466  0.00  0.00    +0.000 NA
ATOM      6  C   UNL     1      46.120   2.186   8.082  0.00  0.00    +0.000 A 
ATOM      7  C   UNL     1      45.243   1.950   9.131  0.00  0.00    +0.000 A 
BRANCH   6   8
ATOM      8  C   UNL     1      46.982   1.076   7.562  0.00  0.00    +0.000 C 
ATOM      9  N   UNL     1      48.054   1.477   6.812  0.00  0.00    +0.000 N 
ATOM     10  O   UNL     1      46.755  -0.105   7.787  0.00  0.00    +0.000 OA
ATOM     11  H   UNL     1      48.209   2.467   6.651  0.00  0.00    +0.000 HD
ATOM     12  H   UNL     1      48.684   0.788   6.429  0.00  0.00    +0.000 HD
ENDBRANCH   6   8
ENDBRANCH   1   2
BRANCH   1  13
ATOM     13  C   UNL     1      43.210   3.812  11.441  0.00  0.00    +0.000 C 
BRANCH  13  17
ATOM     14  C   UNL     1      46.605   5.573  13.473  0.00  0.00    +0.000 A 
ATOM     15  C   UNL     1      45.655   6.383  12.835  0.00  0.00    +0.000 A 
ATOM     16  C   UNL     1      44.569   5.816  12.164  0.00  0.00    +0.000 A 
ATOM     17  C   UNL     1      44.406   4.425  12.123  0.00  0.00    +0.000 A 
ATOM     18  C   UNL     1      45.368   3.613  12.738  0.00  0.00    +0.000 A 
ATOM     19  C   UNL     1      46.453   4.182  13.410  0.00  0.00    +0.000 A 
BRANCH  14  20
ATOM     20  C   UNL     1      47.781   6.187  14.187  0.00  0.00    +0.000 C 
BRANCH  20  21
ATOM     21  N   UNL     1      48.051   5.522  15.457  0.00  0.00    +0.000 NA
ATOM     22  H   UNL     1      48.246   6.226  16.166  0.00  0.00    +0.000 HD
ATOM     23  H   UNL     1      48.899   4.965  15.361  0.00  0.00    +0.000 HD
ENDBRANCH  20  21
ENDBRANCH  14  20
ENDBRANCH  13  17
ENDBRANCH   1  13
TORSDOF 6
ENDMDL
MODEL 6
REMARK VINA RESULT:    -6.173      2.022      3.022
REMARK INTER + INTRA:          -8.833
REMARK INTER:                  -8.333
REMARK INTRA:                  -0.500
REMARK UNBOUND:                -0.675
REMARK  Name = 
REMARK  6 active torsions:
REMARK  status: ('A' for Active; 'I' for Inactive)
REMARK    1  A    between atoms: N_1  and  C_2
REMARK    2  A    between atoms: C_2  and  C_3
REMARK    3  A    between atoms: C_6  and  C_7
REMARK    4  A    between atoms: C_7  and  O_8
REMARK    5  A    between atoms: O_8  and  C_9
REMARK    6  A    between atoms: C_13  and  C_14
REMARK                            x       y       z     vdW  Elec       q    Type
REMARK                         _______ _______ _______ _____ _____    ______ ____
ROOT
ATOM      1  O   UNL     1      45.638   4.224  13.798  0.00  0.00    +0.000 OA
ENDROOT
BRANCH   1   2
ATOM      2  C   UNL     1      46.705   4.851  14.387  0.00  0.00    +0.000 A 
ATOM      3  C   UNL     1      47.414   5.925  13.851  0.00  0.00    +0.000 A 
ATOM      4  C   UNL     1      48.472   6.451  14.575  0.00  0.00    +0.000 A 
ATOM      5  N   UNL     1      48.865   5.986  15.776  0.00  0.00    +0.000 NA
ATOM      6  C   UNL     1      48.158   4.933  16.276  0.00  0.00    +0.000 A 
ATOM      7  C   UNL     1      47.086   4.340  15.624  0.00  0.00    +0.000 A 
BRANCH   6   8
ATOM      8  C   UNL     1      48.598   4.422  17.613  0.00  0.00    +0.000 C 
ATOM      9  N   UNL     1      47.661   3.694  18.295  0.00  0.00    +0.000 N 
ATOM     10  O   UNL     1      49.713   4.631  18.073  0.00  0.00    +0.000 OA
ATOM     11  H   UNL     1      46.749   3.540  17.877  0.00  0.00    +0.000 HD
ATOM     12  H   UNL     1      47.883   3.312  19.201  0.00  0.00    +0.000 HD
ENDBRANCH   6   8
ENDBRANCH   1   2
BRANCH   1  13
ATOM     13  C   UNL     1      44.805   5.034  12.969  0.00  0.00    +0.000 C 
BRANCH  13  17
ATOM     14  C   UNL     1      45.402   3.895   8.834  0.00  0.00    +0.000 A 
ATOM     15  C   UNL     1      45.700   5.194   9.267  0.00  0.00    +0.000 A 
ATOM     16  C   UNL     1      45.492   5.569  10.597  0.00  0.00    +0.000 A 
ATOM     17  C   UNL     1      44.987   4.647  11.524  0.00  0.00    +0.000 A 
ATOM     18  C   UNL     1      44.664   3.357  11.087  0.00  0.00    +0.000 A 
ATOM     19  C   UNL     1      44.874   2.982   9.757  0.00  0.00    +0.000 A 
BRANCH  14  20
ATOM     20  C   UNL     1      45.619   3.497   7.396  0.00  0.00    +0.000 C 
BRANCH  20  21
ATOM     21  N   UNL     1      46.787   4.156   6.823  0.00  0.00    +0.000 NA
ATOM     22  H   UNL     1      47.626   3.672   7.134  0.00  0.00    +0.000 HD
ATOM     23  H   UNL     1      46.843   5.102   7.196  0.00  0.00    +0.000 HD
ENDBRANCH  20  21
ENDBRANCH  14  20
ENDBRANCH  13  17
ENDBRANCH   1  13
TORSDOF 6
ENDMDL
MODEL 7
REMARK VINA RESULT:    -6.059      2.013      6.462
REMARK INTER + INTRA:          -8.681
REMARK INTER:                  -8.360
REMARK INTRA:                  -0.322
REMARK UNBOUND:                -0.675
REMARK  Name = 
REMARK  6 active torsions:
REMARK  status: ('A' for Active; 'I' for Inactive)
REMARK    1  A    between atoms: N_1  and  C_2
REMARK    2  A    between atoms: C_2  and  C_3
REMARK    3  A    between atoms: C_6  and  C_7
REMARK    4  A    between atoms: C_7  and  O_8
REMARK    5  A    between atoms: O_8  and  C_9
REMARK    6  A    between atoms: C_13  and  C_14
REMARK                            x       y       z     vdW  Elec       q    Type
REMARK                         _______ _______ _______ _____ _____    ______ ____
ROOT
ATOM      1  O   UNL     1      44.369   5.019   9.866  0.00  0.00    +0.000 OA
ENDROOT
BRANCH   1   2
ATOM      2  C   UNL     1      44.802   3.823   9.353  0.00  0.00    +0.000 A 
ATOM      3  C   UNL     1      44.341   2.563   9.729  0.00  0.00    +0.000 A 
ATOM      4  C   UNL     1      44.880   1.446   9.111  0.00  0.00    +0.000 A 
ATOM      5  N   UNL     1      45.833   1.499   8.161  0.00  0.00    +0.000 NA
ATOM      6  C   UNL     1      46.269   2.744   7.815  0.00  0.00    +0.000 A 
ATOM      7  C   UNL     1      45.791   3.918   8.378  0.00  0.00    +0.000 A 
BRANCH   6   8
ATOM      8  C   UNL     1      47.328   2.797   6.756  0.00  0.00    +0.000 C 
ATOM      9  N   UNL     1      47.070   3.653   5.720  0.00  0.00    +0.000 N 
ATOM     10  O   UNL     1      48.353   2.131   6.805  0.00  0.00    +0.000 OA
ATOM     11  H   UNL     1      46.209   4.190   5.719  0.00  0.00    +0.000 HD
ATOM     12  H   UNL     1      47.737   3.747   4.969  0.00  0.00    +0.000 HD
ENDBRANCH   6   8
ENDBRANCH   1   2
BRANCH   1  13
ATOM     13  C   UNL     1      45.382   5.956  10.229  0.00  0.00    +0.000 C 
BRANCH  13  17
ATOM     14  C   UNL     1      46.910   5.039  14.177  0.00  0.00    +0.000 A 
ATOM     15  C   UNL     1      47.574   5.954  13.348  0.00  0.00    +0.000 A 
ATOM     16  C   UNL     1      47.092   6.238  12.068  0.00  0.00    +0.000 A 
ATOM     17  C   UNL     1      45.930   5.616  11.592  0.00  0.00    +0.000 A 
ATOM     18  C   UNL     1      45.280   4.683  12.408  0.00  0.00    +0.000 A 
ATOM     19  C   UNL     1      45.761   4.401  13.690  0.00  0.00    +0.000 A 
BRANCH  14  20
ATOM     20  C   UNL     1      47.438   4.727  15.554  0.00  0.00    +0.000 C 
BRANCH  20  21
ATOM     21  N   UNL     1      47.670   3.298  15.734  0.00  0.00    +0.000 NA
ATOM     22  H   UNL     1      47.927   2.889  14.838  0.00  0.00    +0.000 HD
ATOM     23  H   UNL     1      46.795   2.858  16.012  0.00  0.00    +0.000 HD
ENDBRANCH  20  21
ENDBRANCH  14  20
ENDBRANCH  13  17
ENDBRANCH   1  13
TORSDOF 6
ENDMDL
MODEL 8
REMARK VINA RESULT:    -6.045      2.559      7.014
REMARK INTER + INTRA:          -8.664
REMARK INTER:                  -8.176
REMARK INTRA:                  -0.487
REMARK UNBOUND:                -0.675
REMARK  Name = 
REMARK  6 active torsions:
REMARK  status: ('A' for Active; 'I' for Inactive)
REMARK    1  A    between atoms: N_1  and  C_2
REMARK    2  A    between atoms: C_2  and  C_3
REMARK    3  A    between atoms: C_6  and  C_7
REMARK    4  A    between atoms: C_7  and  O_8
REMARK    5  A    between atoms: O_8  and  C_9
REMARK    6  A    between atoms: C_13  and  C_14
REMARK                            x       y       z     vdW  Elec       q    Type
REMARK                         _______ _______ _______ _____ _____    ______ ____
ROOT
ATOM      1  O   UNL     1      45.025   5.391   9.594  0.00  0.00    +0.000 OA
ENDROOT
BRANCH   1   2
ATOM      2  C   UNL     1      45.302   4.139   9.109  0.00  0.00    +0.000 A 
ATOM      3  C   UNL     1      44.846   2.939   9.652  0.00  0.00    +0.000 A 
ATOM      4  C   UNL     1      45.213   1.750   9.040  0.00  0.00    +0.000 A 
ATOM      5  N   UNL     1      45.991   1.678   7.944  0.00  0.00    +0.000 NA
ATOM      6  C   UNL     1      46.426   2.866   7.436  0.00  0.00    +0.000 A 
ATOM      7  C   UNL     1      46.113   4.104   7.978  0.00  0.00    +0.000 A 
BRANCH   6   8
ATOM      8  C   UNL     1      47.290   2.781   6.215  0.00  0.00    +0.000 C 
ATOM      9  N   UNL     1      48.606   2.489   6.453  0.00  0.00    +0.000 N 
ATOM     10  O   UNL     1      46.862   2.955   5.082  0.00  0.00    +0.000 OA
ATOM     11  H   UNL     1      48.920   2.348   7.407  0.00  0.00    +0.000 HD
ATOM     12  H   UNL     1      49.250   2.411   5.681  0.00  0.00    +0.000 HD
ENDBRANCH   6   8
ENDBRANCH   1   2
BRANCH   1  13
ATOM     13  C   UNL     1      44.536   5.459  10.932  0.00  0.00    +0.000 C 
BRANCH  13  17
ATOM     14  C   UNL     1      47.078   7.963  13.386  0.00  0.00    +0.000 A 
ATOM     15  C   UNL     1      45.875   8.459  12.866  0.00  0.00    +0.000 A 
ATOM     16  C   UNL     1      45.062   7.659  12.059  0.00  0.00    +0.000 A 
ATOM     17  C   UNL     1      45.434   6.341  11.763  0.00  0.00    +0.000 A 
ATOM     18  C   UNL     1      46.648   5.852  12.261  0.00  0.00    +0.000 A 
ATOM     19  C   UNL     1      47.459   6.653  13.069  0.00  0.00    +0.000 A 
BRANCH  14  20
ATOM     20  C   UNL     1      47.958   8.833  14.248  0.00  0.00    +0.000 C 
BRANCH  20  21
ATOM     21  N   UNL     1      47.990  10.211  13.770  0.00  0.00    +0.000 NA
ATOM     22  H   UNL     1      48.016  10.208  12.752  0.00  0.00    +0.000 HD
ATOM     23  H   UNL     1      48.858  10.644  14.080  0.00  0.00    +0.000 HD
ENDBRANCH  20  21
ENDBRANCH  14  20
ENDBRANCH  13  17
ENDBRANCH   1  13
TORSDOF 6
ENDMDL
MODEL 9
REMARK VINA RESULT:    -6.045      2.885      7.703
REMARK INTER + INTRA:          -8.663
REMARK INTER:                  -8.285
REMARK INTRA:                  -0.378
REMARK UNBOUND:                -0.675
REMARK  Name = 
REMARK  6 active torsions:
REMARK  status: ('A' for Active; 'I' for Inactive)
REMARK    1  A    between atoms: N_1  and  C_2
REMARK    2  A    between atoms: C_2  and  C_3
REMARK    3  A    between atoms: C_6  and  C_7
REMARK    4  A    between atoms: C_7  and  O_8
REMARK    5  A    between atoms: O_8  and  C_9
REMARK    6  A    between atoms: C_13  and  C_14
REMARK                            x       y       z     vdW  Elec       q    Type
REMARK                         _______ _______ _______ _____ _____    ______ ____
ROOT
ATOM      1  O   UNL     1      45.501   4.213  13.920  0.00  0.00    +0.000 OA
ENDROOT
BRANCH   1   2
ATOM      2  C   UNL     1      44.668   4.532  12.879  0.00  0.00    +0.000 A 
ATOM      3  C   UNL     1      43.445   5.191  12.990  0.00  0.00    +0.000 A 
ATOM      4  C   UNL     1      42.719   5.444  11.837  0.00  0.00    +0.000 A 
ATOM      5  N   UNL     1      43.122   5.091  10.602  0.00  0.00    +0.000 NA
ATOM      6  C   UNL     1      44.321   4.446  10.522  0.00  0.00    +0.000 A 
ATOM      7  C   UNL     1      45.116   4.147  11.618  0.00  0.00    +0.000 A 
BRANCH   6   8
ATOM      8  C   UNL     1      44.766   4.057   9.145  0.00  0.00    +0.000 C 
ATOM      9  N   UNL     1      44.327   2.834   8.716  0.00  0.00    +0.000 N 
ATOM     10  O   UNL     1      45.470   4.773   8.446  0.00  0.00    +0.000 OA
ATOM     11  H   UNL     1      43.741   2.272   9.326  0.00  0.00    +0.000 HD
ATOM     12  H   UNL     1      44.582   2.503   7.798  0.00  0.00    +0.000 HD
ENDBRANCH   6   8
ENDBRANCH   1   2
BRANCH   1  13
ATOM     13  C   UNL     1      46.779   4.848  13.926  0.00  0.00    +0.000 C 
BRANCH  13  17
ATOM     14  C   UNL     1      48.608   4.544  17.840  0.00  0.00    +0.000 A 
ATOM     15  C   UNL     1      47.749   3.539  17.373  0.00  0.00    +0.000 A 
ATOM     16  C   UNL     1      47.144   3.644  16.118  0.00  0.00    +0.000 A 
ATOM     17  C   UNL     1      47.392   4.754  15.300  0.00  0.00    +0.000 A 
ATOM     18  C   UNL     1      48.230   5.771  15.776  0.00  0.00    +0.000 A 
ATOM     19  C   UNL     1      48.836   5.664  17.031  0.00  0.00    +0.000 A 
BRANCH  14  20
ATOM     20  C   UNL     1      49.251   4.432  19.199  0.00  0.00    +0.000 C 
BRANCH  20  21
ATOM     21  N   UNL     1      48.471   3.590  20.099  0.00  0.00    +0.000 NA
ATOM     22  H   UNL     1      48.674   2.613  19.898  0.00  0.00    +0.000 HD
ATOM     23  H   UNL     1      47.481   3.726  19.898  0.00  0.00    +0.000 HD
ENDBRANCH  20  21
ENDBRANCH  14  20
ENDBRANCH  13  17
ENDBRANCH   1  13
TORSDOF 6
ENDMDL
