MODEL 1
REMARK VINA RESULT:    -8.318      0.000      0.000
REMARK INTER + INTRA:         -10.934
REMARK INTER:                 -10.263
REMARK INTRA:                  -0.671
REMARK UNBOUND:                -0.671
REMARK  Name = 
REMARK  6 active torsions:
REMARK  status: ('A' for Active; 'I' for Inactive)
REMARK    1  A    between atoms: C_1  and  C_2
REMARK    2  A    between atoms: C_5  and  C_6
REMARK    3  A    between atoms: C_6  and  C_7
REMARK    4  A    between atoms: C_6  and  N_8
REMARK    5  A    between atoms: N_8  and  C_9
REMARK    6  A    between atoms: C_12  and  C_13
REMARK                            x       y       z     vdW  Elec       q    Type
REMARK                         _______ _______ _______ _____ _____    ______ ____
ROOT
ATOM      1  N   UNL     1      43.738   4.859   9.808  0.00  0.00    +0.000 N 
ATOM      2  H   UNL     1      43.874   5.812   9.473  0.00  0.00    +0.000 HD
ENDROOT
BRANCH   1   3
ATOM      3  C   UNL     1      44.543   3.953   9.110  0.00  0.00    +0.000 A 
ATOM      4  C   UNL     1      45.498   4.324   8.164  0.00  0.00    +0.000 A 
ATOM      5  C   UNL     1      46.336   3.372   7.577  0.00  0.00    +0.000 A 
ATOM      6  C   UNL     1      46.205   2.048   7.964  0.00  0.00    +0.000 A 
ATOM      7  N   UNL     1      45.315   1.624   8.897  0.00  0.00    +0.000 NA
ATOM      8  C   UNL     1      44.533   2.593   9.451  0.00  0.00    +0.000 A 
BRANCH   6   9
ATOM      9  C   UNL     1      47.085   1.009   7.336  0.00  0.00    +0.000 C 
ATOM     10  N   UNL     1      46.788  -0.286   7.652  0.00  0.00    +0.000 N 
ATOM     11  O   UNL     1      48.009   1.292   6.585  0.00  0.00    +0.000 OA
ATOM     12  H   UNL     1      46.020  -0.487   8.283  0.00  0.00    +0.000 HD
ATOM     13  H   UNL     1      47.347  -1.035   7.268  0.00  0.00    +0.000 HD
ENDBRANCH   6   9
ENDBRANCH   1   3
BRANCH   1  14
ATOM     14  C   UNL     1      43.629   4.826  11.275  0.00  0.00    +0.000 C 
ATOM     15  C   UNL     1      42.457   5.678  11.774  0.00  0.00    +0.000 C 
BRANCH  14  20
ATOM     16  C   UNL     1      48.652   6.836  13.515  0.00  0.00    +0.000 C 
ATOM     17  C   UNL     1      47.365   6.327  12.935  0.00  0.00    +0.000 A 
ATOM     18  C   UNL     1      46.735   6.993  11.878  0.00  0.00    +0.000 A 
ATOM     19  C   UNL     1      45.531   6.513  11.352  0.00  0.00    +0.000 A 
ATOM     20  C   UNL     1      44.933   5.354  11.871  0.00  0.00    +0.000 A 
ATOM     21  C   UNL     1      45.567   4.698  12.938  0.00  0.00    +0.000 A 
ATOM     22  C   UNL     1      46.772   5.176  13.461  0.00  0.00    +0.000 A 
ENDBRANCH  14  20
ENDBRANCH   1  14
TORSDOF 4
ENDMDL
MODEL 2
REMARK VINA RESULT:    -7.275      3.089      5.955
REMARK INTER + INTRA:          -9.647
REMARK INTER:                  -9.693
REMARK INTRA:                   0.046
REMARK UNBOUND:                -0.671
REMARK  Name = 
REMARK  6 active torsions:
REMARK  status: ('A' for Active; 'I' for Inactive)
REMARK    1  A    between atoms: C_1  and  C_2
REMARK    2  A    between atoms: C_5  and  C_6
REMARK    3  A    between atoms: C_6  and  C_7
REMARK    4  A    between atoms: C_6  and  N_8
REMARK    5  A    between atoms: N_8  and  C_9
REMARK    6  A    between atoms: C_12  and  C_13
REMARK                            x       y       z     vdW  Elec       q    Type
REMARK                         _______ _______ _______ _____ _____    ______ ____
ROOT
ATOM      1  N   UNL     1      44.137   5.338  10.708  0.00  0.00    +0.000 N 
ATOM      2  H   UNL     1      43.349   5.930  10.967  0.00  0.00    +0.000 HD
ENDROOT
BRANCH   1   3
ATOM      3  C   UNL     1      45.185   5.451  11.628  0.00  0.00    +0.000 A 
ATOM      4  C   UNL     1      46.321   6.234  11.426  0.00  0.00    +0.000 A 
ATOM      5  C   UNL     1      47.282   6.379  12.429  0.00  0.00    +0.000 A 
ATOM      6  C   UNL     1      47.077   5.734  13.638  0.00  0.00    +0.000 A 
ATOM      7  N   UNL     1      45.982   4.979  13.909  0.00  0.00    +0.000 NA
ATOM      8  C   UNL     1      45.068   4.883  12.904  0.00  0.00    +0.000 A 
BRANCH   6   9
ATOM      9  C   UNL     1      48.103   5.864  14.723  0.00  0.00    +0.000 C 
ATOM     10  N   UNL     1      47.760   5.324  15.930  0.00  0.00    +0.000 N 
ATOM     11  O   UNL     1      49.183   6.413  14.550  0.00  0.00    +0.000 OA
ATOM     12  H   UNL     1      46.853   4.882  16.044  0.00  0.00    +0.000 HD
ATOM     13  H   UNL     1      48.404   5.384  16.706  0.00  0.00    +0.000 HD
ENDBRANCH   6   9
ENDBRANCH   1   3
BRANCH   1  14
ATOM     14  C   UNL     1      43.675   4.029  10.220  0.00  0.00    +0.000 C 
ATOM     15  C   UNL     1      43.447   3.045  11.373  0.00  0.00    +0.000 C 
BRANCH  14  20
ATOM     16  C   UNL     1      47.685   1.870   6.539  0.00  0.00    +0.000 C 
ATOM     17  C   UNL     1      46.659   2.431   7.479  0.00  0.00    +0.000 A 
ATOM     18  C   UNL     1      46.353   3.796   7.484  0.00  0.00    +0.000 A 
ATOM     19  C   UNL     1      45.400   4.307   8.371  0.00  0.00    +0.000 A 
ATOM     20  C   UNL     1      44.730   3.464   9.271  0.00  0.00    +0.000 A 
ATOM     21  C   UNL     1      45.051   2.096   9.266  0.00  0.00    +0.000 A 
ATOM     22  C   UNL     1      46.001   1.585   8.376  0.00  0.00    +0.000 A 
ENDBRANCH  14  20
ENDBRANCH   1  14
TORSDOF 4
ENDMDL
MODEL 3
REMARK VINA RESULT:    -6.898      3.263      6.650
REMARK INTER + INTRA:          -9.182
REMARK INTER:                  -8.603
REMARK INTRA:                  -0.579
REMARK UNBOUND:                -0.671
REMARK  Name = 
REMARK  6 active torsions:
REMARK  status: ('A' for Active; 'I' for Inactive)
REMARK    1  A    between atoms: C_1  and  C_2
REMARK    2  A    between atoms: C_5  and  C_6
REMARK    3  A    between atoms: C_6  and  C_7
REMARK    4  A    between atoms: C_6  and  N_8
REMARK    5  A    between atoms: N_8  and  C_9
REMARK    6  A    between atoms: C_12  and  C_13
REMARK                            x       y       z     vdW  Elec       q    Type
REMARK                         _______ _______ _______ _____ _____    ______ ____
ROOT
ATOM      1  N   UNL     1      45.295   4.341  11.668  0.00  0.00    +0.000 N 
ATOM      2  H   UNL     1      46.164   3.808  11.663  0.00  0.00    +0.000 HD
ENDROOT
BRANCH   1   3
ATOM      3  C   UNL     1      45.535   5.709  11.836  0.00  0.00    +0.000 A 
ATOM      4  C   UNL     1      46.789   6.254  12.111  0.00  0.00    +0.000 A 
ATOM      5  C   UNL     1      46.975   7.638  12.169  0.00  0.00    +0.000 A 
ATOM      6  C   UNL     1      45.884   8.460  11.936  0.00  0.00    +0.000 A 
ATOM      7  N   UNL     1      44.644   7.996  11.638  0.00  0.00    +0.000 NA
ATOM      8  C   UNL     1      44.520   6.640  11.578  0.00  0.00    +0.000 A 
BRANCH   6   9
ATOM      9  C   UNL     1      46.058   9.948  12.008  0.00  0.00    +0.000 C 
ATOM     10  N   UNL     1      44.915  10.668  12.209  0.00  0.00    +0.000 N 
ATOM     11  O   UNL     1      47.149  10.492  11.899  0.00  0.00    +0.000 OA
ATOM     12  H   UNL     1      44.025  10.187  12.288  0.00  0.00    +0.000 HD
ATOM     13  H   UNL     1      44.962  11.676  12.260  0.00  0.00    +0.000 HD
ENDBRANCH   6   9
ENDBRANCH   1   3
BRANCH   1  14
ATOM     14  C   UNL     1      44.364   3.840  10.645  0.00  0.00    +0.000 C 
ATOM     15  C   UNL     1      43.559   2.639  11.152  0.00  0.00    +0.000 C 
BRANCH  14  20
ATOM     16  C   UNL     1      47.497   2.251   5.959  0.00  0.00    +0.000 C 
ATOM     17  C   UNL     1      46.693   2.650   7.162  0.00  0.00    +0.000 A 
ATOM     18  C   UNL     1      46.180   1.689   8.040  0.00  0.00    +0.000 A 
ATOM     19  C   UNL     1      45.426   2.074   9.153  0.00  0.00    +0.000 A 
ATOM     20  C   UNL     1      45.171   3.429   9.414  0.00  0.00    +0.000 A 
ATOM     21  C   UNL     1      45.682   4.386   8.522  0.00  0.00    +0.000 A 
ATOM     22  C   UNL     1      46.438   4.001   7.412  0.00  0.00    +0.000 A 
ENDBRANCH  14  20
ENDBRANCH   1  14
TORSDOF 4
ENDMDL
MODEL 4
REMARK VINA RESULT:    -6.726      3.755      6.590
REMARK INTER + INTRA:          -8.970
REMARK INTER:                  -8.359
REMARK INTRA:                  -0.611
REMARK UNBOUND:                -0.671
REMARK  Name = 
REMARK  6 active torsions:
REMARK  status: ('A' for Active; 'I' for Inactive)
REMARK    1  A    between atoms: C_1  and  C_2
REMARK    2  A    between atoms: C_5  and  C_6
REMARK    3  A    between atoms: C_6  and  C_7
REMARK    4  A    between atoms: C_6  and  N_8
REMARK    5  A    between atoms: N_8  and  C_9
REMARK    6  A    between atoms: C_12  and  C_13
REMARK                            x       y       z     vdW  Elec       q    Type
REMARK                         _______ _______ _______ _____ _____    ______ ____
ROOT
ATOM      1  N   UNL     1      45.363   3.984  12.318  0.00  0.00    +0.000 N 
ATOM      2  H   UNL     1      45.757   3.054  12.175  0.00  0.00    +0.000 HD
ENDROOT
BRANCH   1   3
ATOM      3  C   UNL     1      46.318   4.869  12.831  0.00  0.00    +0.000 A 
ATOM      4  C   UNL     1      46.571   6.135  12.304  0.00  0.00    +0.000 A 
ATOM      5  C   UNL     1      47.469   7.006  12.926  0.00  0.00    +0.000 A 
ATOM      6  C   UNL     1      48.097   6.588  14.088  0.00  0.00    +0.000 A 
ATOM      7  N   UNL     1      47.876   5.380  14.667  0.00  0.00    +0.000 NA
ATOM      8  C   UNL     1      46.980   4.576  14.031  0.00  0.00    +0.000 A 
BRANCH   6   9
ATOM      9  C   UNL     1      49.076   7.501  14.763  0.00  0.00    +0.000 C 
ATOM     10  N   UNL     1      50.379   7.359  14.381  0.00  0.00    +0.000 N 
ATOM     11  O   UNL     1      48.739   8.327  15.602  0.00  0.00    +0.000 OA
ATOM     12  H   UNL     1      50.627   6.660  13.688  0.00  0.00    +0.000 HD
ATOM     13  H   UNL     1      51.090   7.939  14.803  0.00  0.00    +0.000 HD
ENDBRANCH   6   9
ENDBRANCH   1   3
BRANCH   1  14
ATOM     14  C   UNL     1      44.481   4.360  11.202  0.00  0.00    +0.000 C 
ATOM     15  C   UNL     1      43.073   3.778  11.374  0.00  0.00    +0.000 C 
BRANCH  14  20
ATOM     16  C   UNL     1      46.864   2.344   6.248  0.00  0.00    +0.000 C 
ATOM     17  C   UNL     1      46.252   2.852   7.520  0.00  0.00    +0.000 A 
ATOM     18  C   UNL     1      45.699   1.974   8.459  0.00  0.00    +0.000 A 
ATOM     19  C   UNL     1      45.124   2.462   9.637  0.00  0.00    +0.000 A 
ATOM     20  C   UNL     1      45.092   3.839   9.903  0.00  0.00    +0.000 A 
ATOM     21  C   UNL     1      45.640   4.714   8.951  0.00  0.00    +0.000 A 
ATOM     22  C   UNL     1      46.218   4.226   7.776  0.00  0.00    +0.000 A 
ENDBRANCH  14  20
ENDBRANCH   1  14
TORSDOF 4
ENDMDL
MODEL 5
REMARK VINA RESULT:    -6.096      3.607      6.364
REMARK INTER + INTRA:          -8.192
REMARK INTER:                  -8.421
REMARK INTRA:                   0.229
REMARK UNBOUND:                -0.671
REMARK  Name = 
REMARK  6 active torsions:
REMARK  status: ('A' for Active; 'I' for Inactive)
REMARK    1  A    between atoms: C_1  and  C_2
REMARK    2  A    between atoms: C_5  and  C_6
REMARK    3  A    between atoms: C_6  and  C_7
REMARK    4  A    between atoms: C_6  and  N_8
REMARK    5  A    between atoms: N_8  and  C_9
REMARK    6  A    between atoms: C_12  and  C_13
REMARK                            x       y       z     vdW  Elec       q    Type
REMARK                         _______ _______ _______ _____ _____    ______ ____
ROOT
ATOM      1  N   UNL     1      45.842   5.534  11.671  0.00  0.00    +0.000 N 
ATOM      2  H   UNL     1      45.685   6.539  11.739  0.00  0.00    +0.000 HD
ENDROOT
BRANCH   1   3
ATOM      3  C   UNL     1      46.411   5.025  12.844  0.00  0.00    +0.000 A 
ATOM      4  C   UNL     1      46.646   5.783  13.990  0.00  0.00    +0.000 A 
ATOM      5  C   UNL     1      47.126   5.188  15.160  0.00  0.00    +0.000 A 
ATOM      6  C   UNL     1      47.356   3.822  15.159  0.00  0.00    +0.000 A 
ATOM      7  N   UNL     1      47.123   3.023  14.086  0.00  0.00    +0.000 NA
ATOM      8  C   UNL     1      46.640   3.649  12.978  0.00  0.00    +0.000 A 
BRANCH   6   9
ATOM      9  C   UNL     1      47.885   3.166  16.399  0.00  0.00    +0.000 C 
ATOM     10  N   UNL     1      47.003   3.066  17.438  0.00  0.00    +0.000 N 
ATOM     11  O   UNL     1      49.030   2.741  16.485  0.00  0.00    +0.000 OA
ATOM     12  H   UNL     1      46.064   3.435  17.337  0.00  0.00    +0.000 HD
ATOM     13  H   UNL     1      47.299   2.641  18.305  0.00  0.00    +0.000 HD
ENDBRANCH   6   9
ENDBRANCH   1   3
BRANCH   1  14
ATOM     14  C   UNL     1      44.709   4.867  11.010  0.00  0.00    +0.000 C 
ATOM     15  C   UNL     1      43.988   3.904  11.959  0.00  0.00    +0.000 C 
BRANCH  14  20
ATOM     16  C   UNL     1      46.775   1.878   6.417  0.00  0.00    +0.000 C 
ATOM     17  C   UNL     1      46.243   2.637   7.598  0.00  0.00    +0.000 A 
ATOM     18  C   UNL     1      45.608   1.976   8.655  0.00  0.00    +0.000 A 
ATOM     19  C   UNL     1      45.110   2.696   9.746  0.00  0.00    +0.000 A 
ATOM     20  C   UNL     1      45.238   4.092   9.804  0.00  0.00    +0.000 A 
ATOM     21  C   UNL     1      45.868   4.748   8.733  0.00  0.00    +0.000 A 
ATOM     22  C   UNL     1      46.369   4.028   7.646  0.00  0.00    +0.000 A 
ENDBRANCH  14  20
ENDBRANCH   1  14
TORSDOF 4
ENDMDL
MODEL 6
REMARK VINA RESULT:    -5.857      4.558      6.358
REMARK INTER + INTRA:          -7.898
REMARK INTER:                  -7.400
REMARK INTRA:                  -0.497
REMARK UNBOUND:                -0.671
REMARK  Name = 
REMARK  6 active torsions:
REMARK  status: ('A' for Active; 'I' for Inactive)
REMARK    1  A    between atoms: C_1  and  C_2
REMARK    2  A    between atoms: C_5  and  C_6
REMARK    3  A    between atoms: C_6  and  C_7
REMARK    4  A    between atoms: C_6  and  N_8
REMARK    5  A    between atoms: N_8  and  C_9
REMARK    6  A    between atoms: C_12  and  C_13
REMARK                            x       y       z     vdW  Elec       q    Type
REMARK                         _______ _______ _______ _____ _____    ______ ____
ROOT
ATOM      1  N   UNL     1      47.659   5.118  15.630  0.00  0.00    +0.000 N 
ATOM      2  H   UNL     1      48.631   5.301  15.380  0.00  0.00    +0.000 HD
ENDROOT
BRANCH   1   3
ATOM      3  C   UNL     1      46.884   4.843  14.498  0.00  0.00    +0.000 A 
ATOM      4  C   UNL     1      46.392   5.819  13.632  0.00  0.00    +0.000 A 
ATOM      5  C   UNL     1      45.709   5.467  12.465  0.00  0.00    +0.000 A 
ATOM      6  C   UNL     1      45.538   4.122  12.181  0.00  0.00    +0.000 A 
ATOM      7  N   UNL     1      46.014   3.122  12.967  0.00  0.00    +0.000 NA
ATOM      8  C   UNL     1      46.687   3.519  14.083  0.00  0.00    +0.000 A 
BRANCH   6   9
ATOM      9  C   UNL     1      44.794   3.722  10.942  0.00  0.00    +0.000 C 
ATOM     10  N   UNL     1      44.130   2.530  11.010  0.00  0.00    +0.000 N 
ATOM     11  O   UNL     1      44.774   4.412   9.931  0.00  0.00    +0.000 OA
ATOM     12  H   UNL     1      44.173   1.978  11.860  0.00  0.00    +0.000 HD
ATOM     13  H   UNL     1      43.615   2.199  10.206  0.00  0.00    +0.000 HD
ENDBRANCH   6   9
ENDBRANCH   1   3
BRANCH   1  14
ATOM     14  C   UNL     1      47.573   4.292  16.844  0.00  0.00    +0.000 C 
ATOM     15  C   UNL     1      47.117   5.114  18.055  0.00  0.00    +0.000 C 
BRANCH  14  20
ATOM     16  C   UNL     1      52.874   2.027  17.875  0.00  0.00    +0.000 C 
ATOM     17  C   UNL     1      51.518   2.615  17.614  0.00  0.00    +0.000 A 
ATOM     18  C   UNL     1      51.246   3.958  17.895  0.00  0.00    +0.000 A 
ATOM     19  C   UNL     1      49.976   4.492  17.654  0.00  0.00    +0.000 A 
ATOM     20  C   UNL     1      48.951   3.694  17.124  0.00  0.00    +0.000 A 
ATOM     21  C   UNL     1      49.229   2.344  16.854  0.00  0.00    +0.000 A 
ATOM     22  C   UNL     1      50.500   1.812  17.092  0.00  0.00    +0.000 A 
ENDBRANCH  14  20
ENDBRANCH   1  14
TORSDOF 4
ENDMDL
MODEL 7
REMARK VINA RESULT:    -5.824      3.235      5.131
REMARK INTER + INTRA:          -7.857
REMARK INTER:                  -7.271
REMARK INTRA:                  -0.585
REMARK UNBOUND:                -0.671
REMARK  Name = 
REMARK  6 active torsions:
REMARK  status: ('A' for Active; 'I' for Inactive)
REMARK    1  A    between atoms: C_1  and  C_2
REMARK    2  A    between atoms: C_5  and  C_6
REMARK    3  A    between atoms: C_6  and  C_7
REMARK    4  A    between atoms: C_6  and  N_8
REMARK    5  A    between atoms: N_8  and  C_9
REMARK    6  A    between atoms: C_12  and  C_13
REMARK                            x       y       z     vdW  Elec       q    Type
REMARK                         _______ _______ _______ _____ _____    ______ ____
ROOT
ATOM      1  N   UNL     1      46.887   6.914  13.618  0.00  0.00    +0.000 N 
ATOM      2  H   UNL     1      46.523   7.856  13.484  0.00  0.00    +0.000 HD
ENDROOT
BRANCH   1   3
ATOM      3  C   UNL     1      46.117   5.967  12.932  0.00  0.00    +0.000 A 
ATOM      4  C   UNL     1      45.867   6.009  11.561  0.00  0.00    +0.000 A 
ATOM      5  C   UNL     1      45.172   4.976  10.925  0.00  0.00    +0.000 A 
ATOM      6  C   UNL     1      44.745   3.901  11.687  0.00  0.00    +0.000 A 
ATOM      7  N   UNL     1      44.979   3.785  13.020  0.00  0.00    +0.000 NA
ATOM      8  C   UNL     1      45.674   4.810  13.588  0.00  0.00    +0.000 A 
BRANCH   6   9
ATOM      9  C   UNL     1      43.986   2.789  11.028  0.00  0.00    +0.000 C 
ATOM     10  N   UNL     1      44.546   2.285   9.888  0.00  0.00    +0.000 N 
ATOM     11  O   UNL     1      42.933   2.352  11.474  0.00  0.00    +0.000 OA
ATOM     12  H   UNL     1      45.416   2.675   9.540  0.00  0.00    +0.000 HD
ATOM     13  H   UNL     1      44.081   1.539   9.390  0.00  0.00    +0.000 HD
ENDBRANCH   6   9
ENDBRANCH   1   3
BRANCH   1  14
ATOM     14  C   UNL     1      48.357   6.903  13.560  0.00  0.00    +0.000 C 
ATOM     15  C   UNL     1      48.978   6.999  14.958  0.00  0.00    +0.000 C 
BRANCH  14  20
ATOM     16  C   UNL     1      50.094  11.433  10.280  0.00  0.00    +0.000 C 
ATOM     17  C   UNL     1      49.641  10.276  11.122  0.00  0.00    +0.000 A 
ATOM     18  C   UNL     1      48.373  10.263  11.713  0.00  0.00    +0.000 A 
ATOM     19  C   UNL     1      47.966   9.182  12.501  0.00  0.00    +0.000 A 
ATOM     20  C   UNL     1      48.819   8.089  12.715  0.00  0.00    +0.000 A 
ATOM     21  C   UNL     1      50.094   8.114  12.126  0.00  0.00    +0.000 A 
ATOM     22  C   UNL     1      50.498   9.192  11.335  0.00  0.00    +0.000 A 
ENDBRANCH  14  20
ENDBRANCH   1  14
TORSDOF 4
ENDMDL
