MODEL 1
REMARK VINA RESULT:    -8.502      0.000      0.000
REMARK INTER + INTRA:         -10.425
REMARK INTER:                  -9.993
REMARK INTRA:                  -0.432
REMARK UNBOUND:                -0.432
REMARK  Name = 
REMARK  3 active torsions:
REMARK  status: ('A' for Active; 'I' for Inactive)
REMARK    1  A    between atoms: C_2  and  C_4
REMARK    2  A    between atoms: C_7  and  C_8
REMARK    3  A    between atoms: C_8  and  N_9
REMARK                            x       y       z     vdW  Elec       q    Type
REMARK                         _______ _______ _______ _____ _____    ______ ____
ROOT
ATOM      1  C   UNL     1      46.600   2.688   7.376  0.00  0.00    +0.000 A 
ATOM      2  C   UNL     1      45.922   1.864   8.272  0.00  0.00    +0.000 A 
ATOM      3  C   UNL     1      45.003   2.429   9.162  0.00  0.00    +0.000 A 
ATOM      4  C   UNL     1      44.790   3.810   9.131  0.00  0.00    +0.000 A 
ATOM      5  N   UNL     1      45.422   4.617   8.245  0.00  0.00    +0.000 NA
ATOM      6  C   UNL     1      46.314   4.046   7.400  0.00  0.00    +0.000 A 
ENDROOT
BRANCH   1   8
ATOM      7  N   UNL     1      47.813   2.898   5.276  0.00  0.00    +0.000 N 
ATOM      8  C   UNL     1      47.634   2.208   6.441  0.00  0.00    +0.000 C 
ATOM      9  O   UNL     1      48.332   1.234   6.703  0.00  0.00    +0.000 OA
ATOM     10  H   UNL     1      48.599   2.611   4.701  0.00  0.00    +0.000 HD
ATOM     11  H   UNL     1      47.453   3.830   5.130  0.00  0.00    +0.000 HD
ENDBRANCH   1   8
BRANCH   4  12
ATOM     12  C   UNL     1      43.898   4.486  10.138  0.00  0.00    +0.000 C 
BRANCH  12  13
ATOM     13  N   UNL     1      44.413   4.532  11.496  0.00  0.00    +0.000 N 
ATOM     14  C   UNL     1      44.022   3.806  12.588  0.00  0.00    +0.000 A 
ATOM     15  N   UNL     1      44.830   3.987  13.609  0.00  0.00    +0.000 NA
ATOM     16  C   UNL     1      45.740   4.917  13.183  0.00  0.00    +0.000 A 
ATOM     17  N   UNL     1      46.780   5.388  13.906  0.00  0.00    +0.000 NA
ATOM     18  C   UNL     1      47.529   6.312  13.265  0.00  0.00    +0.000 A 
ATOM     19  C   UNL     1      47.293   6.807  11.988  0.00  0.00    +0.000 A 
ATOM     20  C   UNL     1      46.223   6.314  11.250  0.00  0.00    +0.000 A 
ATOM     21  C   UNL     1      45.468   5.325  11.884  0.00  0.00    +0.000 A 
ENDBRANCH  12  13
ENDBRANCH   4  12
TORSDOF 3
ENDMDL
MODEL 2
REMARK VINA RESULT:    -7.267      1.403      2.039
REMARK INTER + INTRA:          -8.974
REMARK INTER:                  -8.730
REMARK INTRA:                  -0.244
REMARK UNBOUND:                -0.432
REMARK  Name = 
REMARK  3 active torsions:
REMARK  status: ('A' for Active; 'I' for Inactive)
REMARK    1  A    between atoms: C_2  and  C_4
REMARK    2  A    between atoms: C_7  and  C_8
REMARK    3  A    between atoms: C_8  and  N_9
REMARK                            x       y       z     vdW  Elec       q    Type
REMARK                         _______ _______ _______ _____ _____    ______ ____
ROOT
ATOM      1  C   UNL     1      46.492   2.298   7.608  0.00  0.00    +0.000 A 
ATOM      2  C   UNL     1      46.485   3.687   7.497  0.00  0.00    +0.000 A 
ATOM      3  C   UNL     1      45.708   4.442   8.382  0.00  0.00    +0.000 A 
ATOM      4  C   UNL     1      44.955   3.781   9.357  0.00  0.00    +0.000 A 
ATOM      5  N   UNL     1      44.977   2.433   9.493  0.00  0.00    +0.000 NA
ATOM      6  C   UNL     1      45.730   1.725   8.617  0.00  0.00    +0.000 A 
ENDROOT
BRANCH   1   8
ATOM      7  N   UNL     1      48.196   1.952   5.906  0.00  0.00    +0.000 N 
ATOM      8  C   UNL     1      47.221   1.405   6.690  0.00  0.00    +0.000 C 
ATOM      9  O   UNL     1      46.982   0.203   6.640  0.00  0.00    +0.000 OA
ATOM     10  H   UNL     1      48.752   1.300   5.361  0.00  0.00    +0.000 HD
ATOM     11  H   UNL     1      48.599   2.860   6.085  0.00  0.00    +0.000 HD
ENDBRANCH   1   8
BRANCH   4  12
ATOM     12  C   UNL     1      44.017   4.533  10.262  0.00  0.00    +0.000 C 
BRANCH  12  13
ATOM     13  N   UNL     1      44.653   5.379  11.257  0.00  0.00    +0.000 N 
ATOM     14  C   UNL     1      44.511   6.724  11.458  0.00  0.00    +0.000 A 
ATOM     15  N   UNL     1      45.106   7.119  12.562  0.00  0.00    +0.000 NA
ATOM     16  C   UNL     1      45.714   5.998  13.059  0.00  0.00    +0.000 A 
ATOM     17  N   UNL     1      46.426   5.933  14.206  0.00  0.00    +0.000 NA
ATOM     18  C   UNL     1      46.937   4.711  14.473  0.00  0.00    +0.000 A 
ATOM     19  C   UNL     1      46.811   3.583  13.671  0.00  0.00    +0.000 A 
ATOM     20  C   UNL     1      46.073   3.657  12.495  0.00  0.00    +0.000 A 
ATOM     21  C   UNL     1      45.502   4.904  12.231  0.00  0.00    +0.000 A 
ENDBRANCH  12  13
ENDBRANCH   4  12
TORSDOF 3
ENDMDL
MODEL 3
REMARK VINA RESULT:    -6.707      1.887      2.228
REMARK INTER + INTRA:          -8.315
REMARK INTER:                  -7.927
REMARK INTRA:                  -0.388
REMARK UNBOUND:                -0.432
REMARK  Name = 
REMARK  3 active torsions:
REMARK  status: ('A' for Active; 'I' for Inactive)
REMARK    1  A    between atoms: C_2  and  C_4
REMARK    2  A    between atoms: C_7  and  C_8
REMARK    3  A    between atoms: C_8  and  N_9
REMARK                            x       y       z     vdW  Elec       q    Type
REMARK                         _______ _______ _______ _____ _____    ______ ____
ROOT
ATOM      1  C   UNL     1      45.746   2.501   8.329  0.00  0.00    +0.000 A 
ATOM      2  C   UNL     1      44.804   2.072   9.263  0.00  0.00    +0.000 A 
ATOM      3  C   UNL     1      44.120   3.020  10.032  0.00  0.00    +0.000 A 
ATOM      4  C   UNL     1      44.403   4.376   9.846  0.00  0.00    +0.000 A 
ATOM      5  N   UNL     1      45.296   4.806   8.922  0.00  0.00    +0.000 NA
ATOM      6  C   UNL     1      45.951   3.867   8.197  0.00  0.00    +0.000 A 
ENDROOT
BRANCH   1   8
ATOM      7  N   UNL     1      47.148   2.088   6.384  0.00  0.00    +0.000 N 
ATOM      8  C   UNL     1      46.568   1.588   7.515  0.00  0.00    +0.000 C 
ATOM      9  O   UNL     1      46.749   0.422   7.846  0.00  0.00    +0.000 OA
ATOM     10  H   UNL     1      47.792   1.470   5.899  0.00  0.00    +0.000 HD
ATOM     11  H   UNL     1      47.240   3.078   6.205  0.00  0.00    +0.000 HD
ENDBRANCH   1   8
BRANCH   4  12
ATOM     12  C   UNL     1      43.781   5.431  10.721  0.00  0.00    +0.000 C 
BRANCH  12  13
ATOM     13  N   UNL     1      44.671   6.037  11.696  0.00  0.00    +0.000 N 
ATOM     14  C   UNL     1      45.464   5.428  12.630  0.00  0.00    +0.000 A 
ATOM     15  N   UNL     1      46.267   6.285  13.221  0.00  0.00    +0.000 NA
ATOM     16  C   UNL     1      45.936   7.505  12.698  0.00  0.00    +0.000 A 
ATOM     17  N   UNL     1      46.529   8.680  13.004  0.00  0.00    +0.000 NA
ATOM     18  C   UNL     1      46.010   9.748  12.360  0.00  0.00    +0.000 A 
ATOM     19  C   UNL     1      44.941   9.723  11.472  0.00  0.00    +0.000 A 
ATOM     20  C   UNL     1      44.338   8.510  11.160  0.00  0.00    +0.000 A 
ATOM     21  C   UNL     1      44.895   7.392  11.785  0.00  0.00    +0.000 A 
ENDBRANCH  12  13
ENDBRANCH   4  12
TORSDOF 3
ENDMDL
MODEL 4
REMARK VINA RESULT:    -6.589      2.937      5.853
REMARK INTER + INTRA:          -8.176
REMARK INTER:                  -7.735
REMARK INTRA:                  -0.442
REMARK UNBOUND:                -0.432
REMARK  Name = 
REMARK  3 active torsions:
REMARK  status: ('A' for Active; 'I' for Inactive)
REMARK    1  A    between atoms: C_2  and  C_4
REMARK    2  A    between atoms: C_7  and  C_8
REMARK    3  A    between atoms: C_8  and  N_9
REMARK                            x       y       z     vdW  Elec       q    Type
REMARK                         _______ _______ _______ _____ _____    ______ ____
ROOT
ATOM      1  C   UNL     1      48.062   7.018  13.168  0.00  0.00    +0.000 A 
ATOM      2  C   UNL     1      47.451   7.848  12.230  0.00  0.00    +0.000 A 
ATOM      3  C   UNL     1      46.149   7.561  11.805  0.00  0.00    +0.000 A 
ATOM      4  C   UNL     1      45.495   6.444  12.333  0.00  0.00    +0.000 A 
ATOM      5  N   UNL     1      46.068   5.646  13.266  0.00  0.00    +0.000 NA
ATOM      6  C   UNL     1      47.333   5.941  13.653  0.00  0.00    +0.000 A 
ENDROOT
BRANCH   1   8
ATOM      7  N   UNL     1      50.358   7.714  12.761  0.00  0.00    +0.000 N 
ATOM      8  C   UNL     1      49.449   7.189  13.635  0.00  0.00    +0.000 C 
ATOM      9  O   UNL     1      49.782   6.894  14.778  0.00  0.00    +0.000 OA
ATOM     10  H   UNL     1      51.278   7.919  13.139  0.00  0.00    +0.000 HD
ATOM     11  H   UNL     1      50.090   8.200  11.917  0.00  0.00    +0.000 HD
ENDBRANCH   1   8
BRANCH   4  12
ATOM     12  C   UNL     1      44.139   6.024  11.831  0.00  0.00    +0.000 C 
BRANCH  12  13
ATOM     13  N   UNL     1      44.044   4.650  11.368  0.00  0.00    +0.000 N 
ATOM     14  C   UNL     1      43.343   3.608  11.910  0.00  0.00    +0.000 A 
ATOM     15  N   UNL     1      43.349   2.554  11.123  0.00  0.00    +0.000 NA
ATOM     16  C   UNL     1      44.139   2.905  10.062  0.00  0.00    +0.000 A 
ATOM     17  N   UNL     1      44.407   2.128   8.989  0.00  0.00    +0.000 NA
ATOM     18  C   UNL     1      45.227   2.700   8.081  0.00  0.00    +0.000 A 
ATOM     19  C   UNL     1      45.808   3.958   8.187  0.00  0.00    +0.000 A 
ATOM     20  C   UNL     1      45.524   4.753   9.292  0.00  0.00    +0.000 A 
ATOM     21  C   UNL     1      44.642   4.191  10.217  0.00  0.00    +0.000 A 
ENDBRANCH  12  13
ENDBRANCH   4  12
TORSDOF 3
ENDMDL
MODEL 5
REMARK VINA RESULT:    -5.789      3.217      5.093
REMARK INTER + INTRA:          -7.236
REMARK INTER:                  -6.857
REMARK INTRA:                  -0.379
REMARK UNBOUND:                -0.432
REMARK  Name = 
REMARK  3 active torsions:
REMARK  status: ('A' for Active; 'I' for Inactive)
REMARK    1  A    between atoms: C_2  and  C_4
REMARK    2  A    between atoms: C_7  and  C_8
REMARK    3  A    between atoms: C_8  and  N_9
REMARK                            x       y       z     vdW  Elec       q    Type
REMARK                         _______ _______ _______ _____ _____    ______ ____
ROOT
ATOM      1  C   UNL     1      44.640   4.077  11.391  0.00  0.00    +0.000 A 
ATOM      2  C   UNL     1      45.214   5.008  10.527  0.00  0.00    +0.000 A 
ATOM      3  C   UNL     1      45.798   6.164  11.054  0.00  0.00    +0.000 A 
ATOM      4  C   UNL     1      45.789   6.358  12.438  0.00  0.00    +0.000 A 
ATOM      5  N   UNL     1      45.260   5.447  13.291  0.00  0.00    +0.000 NA
ATOM      6  C   UNL     1      44.692   4.340  12.753  0.00  0.00    +0.000 A 
ENDROOT
BRANCH   1   8
ATOM      7  N   UNL     1      44.452   2.191   9.864  0.00  0.00    +0.000 N 
ATOM      8  C   UNL     1      43.942   2.860  10.940  0.00  0.00    +0.000 C 
ATOM      9  O   UNL     1      42.946   2.440  11.520  0.00  0.00    +0.000 OA
ATOM     10  H   UNL     1      44.016   1.302   9.640  0.00  0.00    +0.000 HD
ATOM     11  H   UNL     1      45.389   2.343   9.518  0.00  0.00    +0.000 HD
ENDBRANCH   1   8
BRANCH   4  12
ATOM     12  C   UNL     1      46.302   7.633  13.052  0.00  0.00    +0.000 C 
BRANCH  12  13
ATOM     13  N   UNL     1      47.703   7.621  13.436  0.00  0.00    +0.000 N 
ATOM     14  C   UNL     1      48.322   6.880  14.405  0.00  0.00    +0.000 A 
ATOM     15  N   UNL     1      49.630   7.001  14.351  0.00  0.00    +0.000 NA
ATOM     16  C   UNL     1      49.864   7.906  13.352  0.00  0.00    +0.000 A 
ATOM     17  N   UNL     1      51.081   8.317  12.931  0.00  0.00    +0.000 NA
ATOM     18  C   UNL     1      51.046   9.229  11.935  0.00  0.00    +0.000 A 
ATOM     19  C   UNL     1      49.898   9.769  11.366  0.00  0.00    +0.000 A 
ATOM     20  C   UNL     1      48.650   9.339  11.803  0.00  0.00    +0.000 A 
ATOM     21  C   UNL     1      48.673   8.362  12.800  0.00  0.00    +0.000 A 
ENDBRANCH  12  13
ENDBRANCH   4  12
TORSDOF 3
ENDMDL
MODEL 6
REMARK VINA RESULT:    -5.645      1.666      2.680
REMARK INTER + INTRA:          -7.067
REMARK INTER:                  -6.632
REMARK INTRA:                  -0.435
REMARK UNBOUND:                -0.432
REMARK  Name = 
REMARK  3 active torsions:
REMARK  status: ('A' for Active; 'I' for Inactive)
REMARK    1  A    between atoms: C_2  and  C_4
REMARK    2  A    between atoms: C_7  and  C_8
REMARK    3  A    between atoms: C_8  and  N_9
REMARK                            x       y       z     vdW  Elec       q    Type
REMARK                         _______ _______ _______ _____ _____    ______ ____
ROOT
ATOM      1  C   UNL     1      45.388   3.336   9.187  0.00  0.00    +0.000 A 
ATOM      2  C   UNL     1      44.841   2.767  10.337  0.00  0.00    +0.000 A 
ATOM      3  C   UNL     1      44.649   3.564  11.470  0.00  0.00    +0.000 A 
ATOM      4  C   UNL     1      45.013   4.912  11.422  0.00  0.00    +0.000 A 
ATOM      5  N   UNL     1      45.518   5.483  10.302  0.00  0.00    +0.000 NA
ATOM      6  C   UNL     1      45.704   4.687   9.220  0.00  0.00    +0.000 A 
ENDROOT
BRANCH   1   8
ATOM      7  N   UNL     1      45.752   3.263   6.782  0.00  0.00    +0.000 N 
ATOM      8  C   UNL     1      45.693   2.577   7.961  0.00  0.00    +0.000 C 
ATOM      9  O   UNL     1      45.909   1.370   7.992  0.00  0.00    +0.000 OA
ATOM     10  H   UNL     1      46.067   2.737   5.972  0.00  0.00    +0.000 HD
ATOM     11  H   UNL     1      45.834   4.269   6.736  0.00  0.00    +0.000 HD
ENDBRANCH   1   8
BRANCH   4  12
ATOM     12  C   UNL     1      44.933   5.788  12.644  0.00  0.00    +0.000 C 
BRANCH  12  13
ATOM     13  N   UNL     1      46.144   5.854  13.445  0.00  0.00    +0.000 N 
ATOM     14  C   UNL     1      46.553   5.024  14.452  0.00  0.00    +0.000 A 
ATOM     15  N   UNL     1      47.785   5.286  14.830  0.00  0.00    +0.000 NA
ATOM     16  C   UNL     1      48.163   6.370  14.085  0.00  0.00    +0.000 A 
ATOM     17  N   UNL     1      49.374   6.970  14.128  0.00  0.00    +0.000 NA
ATOM     18  C   UNL     1      49.496   8.033  13.303  0.00  0.00    +0.000 A 
ATOM     19  C   UNL     1      48.499   8.542  12.479  0.00  0.00    +0.000 A 
ATOM     20  C   UNL     1      47.258   7.917  12.438  0.00  0.00    +0.000 A 
ATOM     21  C   UNL     1      47.134   6.789  13.252  0.00  0.00    +0.000 A 
ENDBRANCH  12  13
ENDBRANCH   4  12
TORSDOF 3
ENDMDL
