MODEL 1
REMARK VINA RESULT:    -8.873      0.000      0.000
REMARK INTER + INTRA:         -12.329
REMARK INTER:                 -11.466
REMARK INTRA:                  -0.863
REMARK UNBOUND:                -0.863
REMARK  Name = 
REMARK  5 active torsions:
REMARK  status: ('A' for Active; 'I' for Inactive)
REMARK    1  A    between atoms: C_2  and  C_4
REMARK    2  A    between atoms: C_7  and  N_8
REMARK    3  A    between atoms: N_8  and  C_9
REMARK    4  A    between atoms: C_9  and  C_10
REMARK    5  A    between atoms: C_15  and  C_16
REMARK                            x       y       z     vdW  Elec       q    Type
REMARK                         _______ _______ _______ _____ _____    ______ ____
ROOT
ATOM      1  C   UNL     1      43.914   4.871  11.303  0.00  0.00    +0.000 C 
ATOM      2  C   UNL     1      43.057   3.705  11.759  0.00  0.00    +0.000 C 
ATOM      3  C   UNL     1      42.546   5.096  11.933  0.00  0.00    +0.000 C 
ENDROOT
BRANCH   1   4
ATOM      4  C   UNL     1      45.139   5.275  12.120  0.00  0.00    +0.000 A 
ATOM      5  C   UNL     1      45.828   4.338  12.908  0.00  0.00    +0.000 A 
ATOM      6  C   UNL     1      47.000   4.678  13.582  0.00  0.00    +0.000 A 
ATOM      7  C   UNL     1      47.507   5.967  13.477  0.00  0.00    +0.000 A 
ATOM      8  F   UNL     1      48.653   6.257  14.111  0.00  0.00    +0.000 F 
ATOM      9  C   UNL     1      46.858   6.945  12.720  0.00  0.00    +0.000 A 
ATOM     10  C   UNL     1      45.674   6.578  12.049  0.00  0.00    +0.000 A 
BRANCH   9  11
ATOM     11  C   UNL     1      47.439   8.343  12.611  0.00  0.00    +0.000 C 
ATOM     12  C   UNL     1      46.379   9.374  12.192  0.00  0.00    +0.000 C 
ATOM     13  C   UNL     1      47.010  10.735  11.935  0.00  0.00    +0.000 C 
ATOM     14  O   UNL     1      48.062  10.630  10.978  0.00  0.00    +0.000 OA
ATOM     15  C   UNL     1      49.130   9.809  11.448  0.00  0.00    +0.000 C 
ATOM     16  C   UNL     1      48.650   8.381  11.665  0.00  0.00    +0.000 C 
ENDBRANCH   9  11
ENDBRANCH   1   4
BRANCH   1  17
ATOM     17  N   UNL     1      44.090   5.133   9.857  0.00  0.00    +0.000 N 
ATOM     18  H   UNL     1      43.245   5.326   9.332  0.00  0.00    +0.000 HD
BRANCH  17  22
ATOM     19  C   UNL     1      46.593   2.677   7.682  0.00  0.00    +0.000 A 
ATOM     20  C   UNL     1      46.675   4.053   7.557  0.00  0.00    +0.000 A 
ATOM     21  N   UNL     1      45.874   4.898   8.257  0.00  0.00    +0.000 NA
ATOM     22  C   UNL     1      44.987   4.335   9.109  0.00  0.00    +0.000 A 
ATOM     23  C   UNL     1      44.915   2.939   9.211  0.00  0.00    +0.000 A 
ATOM     24  N   UNL     1      45.704   2.074   8.517  0.00  0.00    +0.000 NA
BRANCH  19  26
ATOM     25  N   UNL     1      48.625   2.409   6.390  0.00  0.00    +0.000 N 
ATOM     26  C   UNL     1      47.492   1.809   6.872  0.00  0.00    +0.000 C 
ATOM     27  O   UNL     1      47.241   0.634   6.650  0.00  0.00    +0.000 OA
ATOM     28  H   UNL     1      49.283   1.863   5.850  0.00  0.00    +0.000 HD
ATOM     29  H   UNL     1      48.824   3.376   6.613  0.00  0.00    +0.000 HD
ENDBRANCH  19  26
ENDBRANCH  17  22
ENDBRANCH   1  17
TORSDOF 5
ENDMDL
MODEL 2
REMARK VINA RESULT:    -8.565      2.201      3.454
REMARK INTER + INTRA:         -11.932
REMARK INTER:                 -11.492
REMARK INTRA:                  -0.440
REMARK UNBOUND:                -0.863
REMARK  Name = 
REMARK  5 active torsions:
REMARK  status: ('A' for Active; 'I' for Inactive)
REMARK    1  A    between atoms: C_2  and  C_4
REMARK    2  A    between atoms: C_7  and  N_8
REMARK    3  A    between atoms: N_8  and  C_9
REMARK    4  A    between atoms: C_9  and  C_10
REMARK    5  A    between atoms: C_15  and  C_16
REMARK                            x       y       z     vdW  Elec       q    Type
REMARK                         _______ _______ _______ _____ _____    ______ ____
ROOT
ATOM      1  C   UNL     1      44.012   4.887  11.397  0.00  0.00    +0.000 C 
ATOM      2  C   UNL     1      43.274   3.894  12.275  0.00  0.00    +0.000 C 
ATOM      3  C   UNL     1      42.801   5.308  12.218  0.00  0.00    +0.000 C 
ENDROOT
BRANCH   1   4
ATOM      4  C   UNL     1      45.376   5.415  11.833  0.00  0.00    +0.000 A 
ATOM      5  C   UNL     1      46.012   6.453  11.132  0.00  0.00    +0.000 A 
ATOM      6  C   UNL     1      47.213   7.002  11.580  0.00  0.00    +0.000 A 
ATOM      7  C   UNL     1      47.799   6.522  12.745  0.00  0.00    +0.000 A 
ATOM      8  F   UNL     1      48.938   7.090  13.167  0.00  0.00    +0.000 F 
ATOM      9  C   UNL     1      47.220   5.482  13.476  0.00  0.00    +0.000 A 
ATOM     10  C   UNL     1      46.008   4.942  13.002  0.00  0.00    +0.000 A 
BRANCH   9  11
ATOM     11  C   UNL     1      47.875   4.984  14.751  0.00  0.00    +0.000 C 
ATOM     12  C   UNL     1      47.006   3.941  15.472  0.00  0.00    +0.000 C 
ATOM     13  C   UNL     1      47.601   3.572  16.824  0.00  0.00    +0.000 C 
ATOM     14  O   UNL     1      47.808   4.739  17.618  0.00  0.00    +0.000 OA
ATOM     15  C   UNL     1      48.755   5.625  17.026  0.00  0.00    +0.000 C 
ATOM     16  C   UNL     1      48.239   6.144  15.691  0.00  0.00    +0.000 C 
ENDBRANCH   9  11
ENDBRANCH   1   4
BRANCH   1  17
ATOM     17  N   UNL     1      43.885   4.802   9.925  0.00  0.00    +0.000 N 
ATOM     18  H   UNL     1      42.943   4.720   9.561  0.00  0.00    +0.000 HD
BRANCH  17  22
ATOM     19  C   UNL     1      46.412   2.310   7.817  0.00  0.00    +0.000 A 
ATOM     20  C   UNL     1      46.400   3.673   7.571  0.00  0.00    +0.000 A 
ATOM     21  N   UNL     1      45.588   4.529   8.244  0.00  0.00    +0.000 NA
ATOM     22  C   UNL     1      44.787   3.994   9.194  0.00  0.00    +0.000 A 
ATOM     23  C   UNL     1      44.809   2.611   9.418  0.00  0.00    +0.000 A 
ATOM     24  N   UNL     1      45.611   1.734   8.753  0.00  0.00    +0.000 NA
BRANCH  19  26
ATOM     25  N   UNL     1      48.380   2.047   6.429  0.00  0.00    +0.000 N 
ATOM     26  C   UNL     1      47.317   1.428   7.030  0.00  0.00    +0.000 C 
ATOM     27  O   UNL     1      47.128   0.225   6.926  0.00  0.00    +0.000 OA
ATOM     28  H   UNL     1      49.040   1.494   5.898  0.00  0.00    +0.000 HD
ATOM     29  H   UNL     1      48.529   3.040   6.556  0.00  0.00    +0.000 HD
ENDBRANCH  19  26
ENDBRANCH  17  22
ENDBRANCH   1  17
TORSDOF 5
ENDMDL
MODEL 3
REMARK VINA RESULT:    -8.393      1.637      2.283
REMARK INTER + INTRA:         -11.709
REMARK INTER:                 -11.130
REMARK INTRA:                  -0.579
REMARK UNBOUND:                -0.863
REMARK  Name = 
REMARK  5 active torsions:
REMARK  status: ('A' for Active; 'I' for Inactive)
REMARK    1  A    between atoms: C_2  and  C_4
REMARK    2  A    between atoms: C_7  and  N_8
REMARK    3  A    between atoms: N_8  and  C_9
REMARK    4  A    between atoms: C_9  and  C_10
REMARK    5  A    between atoms: C_15  and  C_16
REMARK                            x       y       z     vdW  Elec       q    Type
REMARK                         _______ _______ _______ _____ _____    ______ ____
ROOT
ATOM      1  C   UNL     1      44.142   4.969  11.450  0.00  0.00    +0.000 C 
ATOM      2  C   UNL     1      44.312   3.830  12.439  0.00  0.00    +0.000 C 
ATOM      3  C   UNL     1      43.091   4.683  12.514  0.00  0.00    +0.000 C 
ENDROOT
BRANCH   1   4
ATOM      4  C   UNL     1      44.975   6.238  11.609  0.00  0.00    +0.000 A 
ATOM      5  C   UNL     1      44.385   7.510  11.526  0.00  0.00    +0.000 A 
ATOM      6  C   UNL     1      45.122   8.669  11.762  0.00  0.00    +0.000 A 
ATOM      7  C   UNL     1      46.469   8.575  12.089  0.00  0.00    +0.000 A 
ATOM      8  F   UNL     1      47.146   9.705  12.341  0.00  0.00    +0.000 F 
ATOM      9  C   UNL     1      47.114   7.339  12.172  0.00  0.00    +0.000 A 
ATOM     10  C   UNL     1      46.348   6.181  11.928  0.00  0.00    +0.000 A 
BRANCH   9  11
ATOM     11  C   UNL     1      48.584   7.263  12.543  0.00  0.00    +0.000 C 
ATOM     12  C   UNL     1      48.832   7.707  13.994  0.00  0.00    +0.000 C 
ATOM     13  C   UNL     1      50.322   7.776  14.298  0.00  0.00    +0.000 C 
ATOM     14  O   UNL     1      50.989   8.617  13.359  0.00  0.00    +0.000 OA
ATOM     15  C   UNL     1      50.906   8.103  12.031  0.00  0.00    +0.000 C 
ATOM     16  C   UNL     1      49.457   8.062  11.564  0.00  0.00    +0.000 C 
ENDBRANCH   9  11
ENDBRANCH   1   4
BRANCH   1  17
ATOM     17  N   UNL     1      43.828   4.673  10.035  0.00  0.00    +0.000 N 
ATOM     18  H   UNL     1      42.887   4.349   9.844  0.00  0.00    +0.000 HD
BRANCH  17  22
ATOM     19  C   UNL     1      46.497   2.531   7.727  0.00  0.00    +0.000 A 
ATOM     20  C   UNL     1      46.417   3.909   7.615  0.00  0.00    +0.000 A 
ATOM     21  N   UNL     1      45.557   4.653   8.358  0.00  0.00    +0.000 NA
ATOM     22  C   UNL     1      44.776   3.987   9.240  0.00  0.00    +0.000 A 
ATOM     23  C   UNL     1      44.868   2.591   9.329  0.00  0.00    +0.000 A 
ATOM     24  N   UNL     1      45.719   1.826   8.592  0.00  0.00    +0.000 NA
BRANCH  19  26
ATOM     25  N   UNL     1      48.522   2.491   6.397  0.00  0.00    +0.000 N 
ATOM     26  C   UNL     1      47.453   1.777   6.870  0.00  0.00    +0.000 C 
ATOM     27  O   UNL     1      47.299   0.594   6.604  0.00  0.00    +0.000 OA
ATOM     28  H   UNL     1      49.215   2.025   5.827  0.00  0.00    +0.000 HD
ATOM     29  H   UNL     1      48.641   3.462   6.658  0.00  0.00    +0.000 HD
ENDBRANCH  19  26
ENDBRANCH  17  22
ENDBRANCH   1  17
TORSDOF 5
ENDMDL
MODEL 4
REMARK VINA RESULT:    -6.971      3.944      7.125
REMARK INTER + INTRA:          -9.871
REMARK INTER:                  -9.825
REMARK INTRA:                  -0.046
REMARK UNBOUND:                -0.863
REMARK  Name = 
REMARK  5 active torsions:
REMARK  status: ('A' for Active; 'I' for Inactive)
REMARK    1  A    between atoms: C_2  and  C_4
REMARK    2  A    between atoms: C_7  and  N_8
REMARK    3  A    between atoms: N_8  and  C_9
REMARK    4  A    between atoms: C_9  and  C_10
REMARK    5  A    between atoms: C_15  and  C_16
REMARK                            x       y       z     vdW  Elec       q    Type
REMARK                         _______ _______ _______ _____ _____    ______ ____
ROOT
ATOM      1  C   UNL     1      46.590   7.546  12.570  0.00  0.00    +0.000 C 
ATOM      2  C   UNL     1      46.590   8.892  11.870  0.00  0.00    +0.000 C 
ATOM      3  C   UNL     1      46.070   8.797  13.265  0.00  0.00    +0.000 C 
ENDROOT
BRANCH   1   4
ATOM      4  C   UNL     1      45.567   6.486  12.170  0.00  0.00    +0.000 A 
ATOM      5  C   UNL     1      44.372   6.322  12.890  0.00  0.00    +0.000 A 
ATOM      6  C   UNL     1      43.392   5.421  12.474  0.00  0.00    +0.000 A 
ATOM      7  C   UNL     1      43.593   4.666  11.325  0.00  0.00    +0.000 A 
ATOM      8  F   UNL     1      42.621   3.829  10.933  0.00  0.00    +0.000 F 
ATOM      9  C   UNL     1      44.768   4.775  10.578  0.00  0.00    +0.000 A 
ATOM     10  C   UNL     1      45.743   5.692  11.018  0.00  0.00    +0.000 A 
BRANCH   9  11
ATOM     11  C   UNL     1      44.956   3.947   9.319  0.00  0.00    +0.000 C 
ATOM     12  C   UNL     1      45.272   2.478   9.642  0.00  0.00    +0.000 C 
ATOM     13  C   UNL     1      45.613   1.701   8.379  0.00  0.00    +0.000 C 
ATOM     14  O   UNL     1      46.677   2.334   7.670  0.00  0.00    +0.000 OA
ATOM     15  C   UNL     1      46.314   3.637   7.217  0.00  0.00    +0.000 C 
ATOM     16  C   UNL     1      46.027   4.553   8.398  0.00  0.00    +0.000 C 
ENDBRANCH   9  11
ENDBRANCH   1   4
BRANCH   1  17
ATOM     17  N   UNL     1      47.868   6.954  13.024  0.00  0.00    +0.000 N 
ATOM     18  H   UNL     1      48.472   6.583  12.298  0.00  0.00    +0.000 HD
BRANCH  17  22
ATOM     19  C   UNL     1      47.906   4.413  16.276  0.00  0.00    +0.000 A 
ATOM     20  C   UNL     1      48.481   5.670  16.357  0.00  0.00    +0.000 A 
ATOM     21  N   UNL     1      48.487   6.539  15.314  0.00  0.00    +0.000 NA
ATOM     22  C   UNL     1      47.885   6.130  14.173  0.00  0.00    +0.000 A 
ATOM     23  C   UNL     1      47.320   4.849  14.110  0.00  0.00    +0.000 A 
ATOM     24  N   UNL     1      47.306   3.961  15.142  0.00  0.00    +0.000 NA
BRANCH  19  26
ATOM     25  N   UNL     1      46.777   2.869  17.763  0.00  0.00    +0.000 N 
ATOM     26  C   UNL     1      47.950   3.505  17.455  0.00  0.00    +0.000 C 
ATOM     27  O   UNL     1      48.968   3.332  18.109  0.00  0.00    +0.000 OA
ATOM     28  H   UNL     1      46.753   2.224  18.541  0.00  0.00    +0.000 HD
ATOM     29  H   UNL     1      45.956   3.007  17.186  0.00  0.00    +0.000 HD
ENDBRANCH  19  26
ENDBRANCH  17  22
ENDBRANCH   1  17
TORSDOF 5
ENDMDL
MODEL 5
REMARK VINA RESULT:    -6.956      4.318      7.373
REMARK INTER + INTRA:          -9.851
REMARK INTER:                  -9.379
REMARK INTRA:                  -0.473
REMARK UNBOUND:                -0.863
REMARK  Name = 
REMARK  5 active torsions:
REMARK  status: ('A' for Active; 'I' for Inactive)
REMARK    1  A    between atoms: C_2  and  C_4
REMARK    2  A    between atoms: C_7  and  N_8
REMARK    3  A    between atoms: N_8  and  C_9
REMARK    4  A    between atoms: C_9  and  C_10
REMARK    5  A    between atoms: C_15  and  C_16
REMARK                            x       y       z     vdW  Elec       q    Type
REMARK                         _______ _______ _______ _____ _____    ______ ____
ROOT
ATOM      1  C   UNL     1      48.728   7.744  12.754  0.00  0.00    +0.000 C 
ATOM      2  C   UNL     1      49.768   7.066  11.881  0.00  0.00    +0.000 C 
ATOM      3  C   UNL     1      49.643   8.552  11.844  0.00  0.00    +0.000 C 
ENDROOT
BRANCH   1   4
ATOM      4  C   UNL     1      47.252   7.662  12.374  0.00  0.00    +0.000 A 
ATOM      5  C   UNL     1      46.370   8.718  12.653  0.00  0.00    +0.000 A 
ATOM      6  C   UNL     1      45.043   8.689  12.225  0.00  0.00    +0.000 A 
ATOM      7  C   UNL     1      44.574   7.596  11.506  0.00  0.00    +0.000 A 
ATOM      8  F   UNL     1      43.302   7.609  11.082  0.00  0.00    +0.000 F 
ATOM      9  C   UNL     1      45.401   6.510  11.211  0.00  0.00    +0.000 A 
ATOM     10  C   UNL     1      46.738   6.563  11.655  0.00  0.00    +0.000 A 
BRANCH   9  11
ATOM     11  C   UNL     1      44.868   5.335  10.412  0.00  0.00    +0.000 C 
ATOM     12  C   UNL     1      44.773   4.059  11.264  0.00  0.00    +0.000 C 
ATOM     13  C   UNL     1      44.389   2.858  10.411  0.00  0.00    +0.000 C 
ATOM     14  O   UNL     1      45.293   2.706   9.319  0.00  0.00    +0.000 OA
ATOM     15  C   UNL     1      45.247   3.821   8.431  0.00  0.00    +0.000 C 
ATOM     16  C   UNL     1      45.698   5.090   9.142  0.00  0.00    +0.000 C 
ENDBRANCH   9  11
ENDBRANCH   1   4
BRANCH   1  17
ATOM     17  N   UNL     1      48.930   7.814  14.218  0.00  0.00    +0.000 N 
ATOM     18  H   UNL     1      49.804   8.223  14.530  0.00  0.00    +0.000 HD
BRANCH  17  22
ATOM     19  C   UNL     1      47.867   4.700  16.710  0.00  0.00    +0.000 A 
ATOM     20  C   UNL     1      47.530   4.674  15.367  0.00  0.00    +0.000 A 
ATOM     21  N   UNL     1      47.864   5.675  14.511  0.00  0.00    +0.000 NA
ATOM     22  C   UNL     1      48.565   6.711  15.025  0.00  0.00    +0.000 A 
ATOM     23  C   UNL     1      48.885   6.721  16.390  0.00  0.00    +0.000 A 
ATOM     24  N   UNL     1      48.558   5.732  17.266  0.00  0.00    +0.000 NA
BRANCH  19  26
ATOM     25  N   UNL     1      48.240   3.364  18.696  0.00  0.00    +0.000 N 
ATOM     26  C   UNL     1      47.455   3.576  17.594  0.00  0.00    +0.000 C 
ATOM     27  O   UNL     1      46.476   2.883  17.357  0.00  0.00    +0.000 OA
ATOM     28  H   UNL     1      47.996   2.627  19.344  0.00  0.00    +0.000 HD
ATOM     29  H   UNL     1      49.028   3.971  18.884  0.00  0.00    +0.000 HD
ENDBRANCH  19  26
ENDBRANCH  17  22
ENDBRANCH   1  17
TORSDOF 5
ENDMDL
MODEL 6
REMARK VINA RESULT:    -6.340      4.669      7.582
REMARK INTER + INTRA:          -9.056
REMARK INTER:                  -8.123
REMARK INTRA:                  -0.933
REMARK UNBOUND:                -0.863
REMARK  Name = 
REMARK  5 active torsions:
REMARK  status: ('A' for Active; 'I' for Inactive)
REMARK    1  A    between atoms: C_2  and  C_4
REMARK    2  A    between atoms: C_7  and  N_8
REMARK    3  A    between atoms: N_8  and  C_9
REMARK    4  A    between atoms: C_9  and  C_10
REMARK    5  A    between atoms: C_15  and  C_16
REMARK                            x       y       z     vdW  Elec       q    Type
REMARK                         _______ _______ _______ _____ _____    ______ ____
ROOT
ATOM      1  C   UNL     1      48.704   8.024  12.905  0.00  0.00    +0.000 C 
ATOM      2  C   UNL     1      49.751   7.213  12.164  0.00  0.00    +0.000 C 
ATOM      3  C   UNL     1      49.674   8.686  11.936  0.00  0.00    +0.000 C 
ENDROOT
BRANCH   1   4
ATOM      4  C   UNL     1      47.240   7.935  12.482  0.00  0.00    +0.000 A 
ATOM      5  C   UNL     1      46.376   9.034  12.618  0.00  0.00    +0.000 A 
ATOM      6  C   UNL     1      45.064   8.988  12.148  0.00  0.00    +0.000 A 
ATOM      7  C   UNL     1      44.592   7.837  11.528  0.00  0.00    +0.000 A 
ATOM      8  F   UNL     1      43.336   7.833  11.059  0.00  0.00    +0.000 F 
ATOM      9  C   UNL     1      45.401   6.708  11.377  0.00  0.00    +0.000 A 
ATOM     10  C   UNL     1      46.723   6.778  11.862  0.00  0.00    +0.000 A 
BRANCH   9  11
ATOM     11  C   UNL     1      44.866   5.468  10.686  0.00  0.00    +0.000 C 
ATOM     12  C   UNL     1      44.833   4.255  11.629  0.00  0.00    +0.000 C 
ATOM     13  C   UNL     1      44.445   2.988  10.880  0.00  0.00    +0.000 C 
ATOM     14  O   UNL     1      45.311   2.777   9.766  0.00  0.00    +0.000 OA
ATOM     15  C   UNL     1      45.205   3.824   8.803  0.00  0.00    +0.000 C 
ATOM     16  C   UNL     1      45.653   5.150   9.405  0.00  0.00    +0.000 C 
ENDBRANCH   9  11
ENDBRANCH   1   4
BRANCH   1  17
ATOM     17  N   UNL     1      48.857   8.273  14.356  0.00  0.00    +0.000 N 
ATOM     18  H   UNL     1      49.347   9.121  14.614  0.00  0.00    +0.000 HD
BRANCH  17  22
ATOM     19  C   UNL     1      49.757   5.046  16.767  0.00  0.00    +0.000 A 
ATOM     20  C   UNL     1      50.653   6.092  16.627  0.00  0.00    +0.000 A 
ATOM     21  N   UNL     1      50.396   7.175  15.848  0.00  0.00    +0.000 NA
ATOM     22  C   UNL     1      49.201   7.202  15.213  0.00  0.00    +0.000 A 
ATOM     23  C   UNL     1      48.314   6.127  15.362  0.00  0.00    +0.000 A 
ATOM     24  N   UNL     1      48.553   5.031  16.134  0.00  0.00    +0.000 NA
BRANCH  19  26
ATOM     25  N   UNL     1      49.810   4.009  18.956  0.00  0.00    +0.000 N 
ATOM     26  C   UNL     1      50.111   3.883  17.626  0.00  0.00    +0.000 C 
ATOM     27  O   UNL     1      50.636   2.875  17.176  0.00  0.00    +0.000 OA
ATOM     28  H   UNL     1      50.009   3.241  19.584  0.00  0.00    +0.000 HD
ATOM     29  H   UNL     1      49.348   4.843  19.297  0.00  0.00    +0.000 HD
ENDBRANCH  19  26
ENDBRANCH  17  22
ENDBRANCH   1  17
TORSDOF 5
ENDMDL
MODEL 7
REMARK VINA RESULT:    -6.237      3.857      6.080
REMARK INTER + INTRA:          -8.923
REMARK INTER:                  -8.526
REMARK INTRA:                  -0.397
REMARK UNBOUND:                -0.863
REMARK  Name = 
REMARK  5 active torsions:
REMARK  status: ('A' for Active; 'I' for Inactive)
REMARK    1  A    between atoms: C_2  and  C_4
REMARK    2  A    between atoms: C_7  and  N_8
REMARK    3  A    between atoms: N_8  and  C_9
REMARK    4  A    between atoms: C_9  and  C_10
REMARK    5  A    between atoms: C_15  and  C_16
REMARK                            x       y       z     vdW  Elec       q    Type
REMARK                         _______ _______ _______ _____ _____    ______ ____
ROOT
ATOM      1  C   UNL     1      47.604   7.964  13.213  0.00  0.00    +0.000 C 
ATOM      2  C   UNL     1      48.224   8.913  12.204  0.00  0.00    +0.000 C 
ATOM      3  C   UNL     1      48.475   7.448  12.076  0.00  0.00    +0.000 C 
ENDROOT
BRANCH   1   4
ATOM      4  C   UNL     1      48.174   7.887  14.627  0.00  0.00    +0.000 A 
ATOM      5  C   UNL     1      48.354   9.044  15.402  0.00  0.00    +0.000 A 
ATOM      6  C   UNL     1      48.786   8.971  16.726  0.00  0.00    +0.000 A 
ATOM      7  C   UNL     1      49.045   7.732  17.300  0.00  0.00    +0.000 A 
ATOM      8  F   UNL     1      49.430   7.690  18.583  0.00  0.00    +0.000 F 
ATOM      9  C   UNL     1      48.898   6.548  16.573  0.00  0.00    +0.000 A 
ATOM     10  C   UNL     1      48.461   6.648  15.237  0.00  0.00    +0.000 A 
BRANCH   9  11
ATOM     11  C   UNL     1      49.175   5.207  17.227  0.00  0.00    +0.000 C 
ATOM     12  C   UNL     1      50.668   4.844  17.180  0.00  0.00    +0.000 C 
ATOM     13  C   UNL     1      50.906   3.431  17.696  0.00  0.00    +0.000 C 
ATOM     14  O   UNL     1      50.103   2.493  16.981  0.00  0.00    +0.000 OA
ATOM     15  C   UNL     1      48.709   2.729  17.173  0.00  0.00    +0.000 C 
ATOM     16  C   UNL     1      48.316   4.090  16.615  0.00  0.00    +0.000 C 
ENDBRANCH   9  11
ENDBRANCH   1   4
BRANCH   1  17
ATOM     17  N   UNL     1      46.148   7.702  13.177  0.00  0.00    +0.000 N 
ATOM     18  H   UNL     1      45.638   7.895  14.031  0.00  0.00    +0.000 HD
BRANCH  17  22
ATOM     19  C   UNL     1      44.700   4.222  11.494  0.00  0.00    +0.000 A 
ATOM     20  C   UNL     1      44.754   5.392  10.756  0.00  0.00    +0.000 A 
ATOM     21  N   UNL     1      45.227   6.558  11.268  0.00  0.00    +0.000 NA
ATOM     22  C   UNL     1      45.667   6.530  12.547  0.00  0.00    +0.000 A 
ATOM     23  C   UNL     1      45.594   5.337  13.278  0.00  0.00    +0.000 A 
ATOM     24  N   UNL     1      45.120   4.159  12.787  0.00  0.00    +0.000 NA
BRANCH  19  26
ATOM     25  N   UNL     1      43.453   2.157  11.708  0.00  0.00    +0.000 N 
ATOM     26  C   UNL     1      44.155   2.984  10.873  0.00  0.00    +0.000 C 
ATOM     27  O   UNL     1      44.319   2.719   9.691  0.00  0.00    +0.000 OA
ATOM     28  H   UNL     1      43.041   1.311  11.336  0.00  0.00    +0.000 HD
ATOM     29  H   UNL     1      43.307   2.415  12.676  0.00  0.00    +0.000 HD
ENDBRANCH  19  26
ENDBRANCH  17  22
ENDBRANCH   1  17
TORSDOF 5
ENDMDL
MODEL 8
REMARK VINA RESULT:    -6.060      5.820      8.217
REMARK INTER + INTRA:          -8.695
REMARK INTER:                  -8.634
REMARK INTRA:                  -0.060
REMARK UNBOUND:                -0.863
REMARK  Name = 
REMARK  5 active torsions:
REMARK  status: ('A' for Active; 'I' for Inactive)
REMARK    1  A    between atoms: C_2  and  C_4
REMARK    2  A    between atoms: C_7  and  N_8
REMARK    3  A    between atoms: N_8  and  C_9
REMARK    4  A    between atoms: C_9  and  C_10
REMARK    5  A    between atoms: C_15  and  C_16
REMARK                            x       y       z     vdW  Elec       q    Type
REMARK                         _______ _______ _______ _____ _____    ______ ____
ROOT
ATOM      1  C   UNL     1      49.026   6.442  15.927  0.00  0.00    +0.000 C 
ATOM      2  C   UNL     1      50.420   7.040  15.983  0.00  0.00    +0.000 C 
ATOM      3  C   UNL     1      49.276   7.805  16.560  0.00  0.00    +0.000 C 
ENDROOT
BRANCH   1   4
ATOM      4  C   UNL     1      48.270   6.411  14.601  0.00  0.00    +0.000 A 
ATOM      5  C   UNL     1      48.815   6.983  13.440  0.00  0.00    +0.000 A 
ATOM      6  C   UNL     1      48.172   6.876  12.207  0.00  0.00    +0.000 A 
ATOM      7  C   UNL     1      46.968   6.189  12.115  0.00  0.00    +0.000 A 
ATOM      8  F   UNL     1      46.388   6.076  10.911  0.00  0.00    +0.000 F 
ATOM      9  C   UNL     1      46.371   5.612  13.238  0.00  0.00    +0.000 A 
ATOM     10  C   UNL     1      47.039   5.735  14.473  0.00  0.00    +0.000 A 
BRANCH   9  11
ATOM     11  C   UNL     1      45.061   4.856  13.107  0.00  0.00    +0.000 C 
ATOM     12  C   UNL     1      45.222   3.569  12.283  0.00  0.00    +0.000 C 
ATOM     13  C   UNL     1      43.874   2.908  12.029  0.00  0.00    +0.000 C 
ATOM     14  O   UNL     1      42.971   3.827  11.416  0.00  0.00    +0.000 OA
ATOM     15  C   UNL     1      42.686   4.939  12.264  0.00  0.00    +0.000 C 
ATOM     16  C   UNL     1      43.949   5.746  12.530  0.00  0.00    +0.000 C 
ENDBRANCH   9  11
ENDBRANCH   1   4
BRANCH   1  17
ATOM     17  N   UNL     1      48.681   5.299  16.800  0.00  0.00    +0.000 N 
ATOM     18  H   UNL     1      48.159   5.520  17.641  0.00  0.00    +0.000 HD
BRANCH  17  22
ATOM     19  C   UNL     1      51.551   2.458  17.653  0.00  0.00    +0.000 A 
ATOM     20  C   UNL     1      50.397   2.111  16.972  0.00  0.00    +0.000 A 
ATOM     21  N   UNL     1      49.429   3.014  16.666  0.00  0.00    +0.000 NA
ATOM     22  C   UNL     1      49.645   4.294  17.046  0.00  0.00    +0.000 A 
ATOM     23  C   UNL     1      50.817   4.621  17.743  0.00  0.00    +0.000 A 
ATOM     24  N   UNL     1      51.797   3.732  18.063  0.00  0.00    +0.000 NA
BRANCH  19  26
ATOM     25  N   UNL     1      52.473   0.256  17.240  0.00  0.00    +0.000 N 
ATOM     26  C   UNL     1      52.563   1.413  17.967  0.00  0.00    +0.000 C 
ATOM     27  O   UNL     1      53.425   1.574  18.819  0.00  0.00    +0.000 OA
ATOM     28  H   UNL     1      53.147  -0.481  17.397  0.00  0.00    +0.000 HD
ATOM     29  H   UNL     1      51.768   0.161  16.520  0.00  0.00    +0.000 HD
ENDBRANCH  19  26
ENDBRANCH  17  22
ENDBRANCH   1  17
TORSDOF 5
ENDMDL
