MODEL 1
REMARK VINA RESULT:    -9.542      0.000      0.000
REMARK INTER + INTRA:         -12.502
REMARK INTER:                 -11.774
REMARK INTRA:                  -0.728
REMARK UNBOUND:                -0.728
REMARK  Name = 
REMARK  4 active torsions:
REMARK  status: ('A' for Active; 'I' for Inactive)
REMARK    1  A    between atoms: C_2  and  C_4
REMARK    2  A    between atoms: N_8  and  C_9
REMARK    3  A    between atoms: C_9  and  C_10
REMARK    4  A    between atoms: C_15  and  C_16
REMARK                            x       y       z     vdW  Elec       q    Type
REMARK                         _______ _______ _______ _____ _____    ______ ____
ROOT
ATOM      1  C   UNL     1      44.741   4.862  11.910  0.00  0.00    +0.000 A 
ATOM      2  C   UNL     1      45.288   4.009  12.871  0.00  0.00    +0.000 A 
ATOM      3  C   UNL     1      46.389   4.425  13.613  0.00  0.00    +0.000 A 
ATOM      4  C   UNL     1      46.939   5.691  13.403  0.00  0.00    +0.000 A 
ATOM      5  F   UNL     1      47.986   6.038  14.169  0.00  0.00    +0.000 F 
ATOM      6  C   UNL     1      46.426   6.584  12.447  0.00  0.00    +0.000 A 
ATOM      7  C   UNL     1      45.311   6.137  11.716  0.00  0.00    +0.000 A 
ENDROOT
BRANCH   6   8
ATOM      8  C   UNL     1      47.021   7.918  12.194  0.00  0.00    +0.000 A 
ATOM      9  C   UNL     1      46.251   9.095  12.256  0.00  0.00    +0.000 A 
ATOM     10  C   UNL     1      46.820  10.341  11.997  0.00  0.00    +0.000 A 
ATOM     11  F   UNL     1      46.052  11.437  12.055  0.00  0.00    +0.000 F 
ATOM     12  C   UNL     1      48.165  10.470  11.682  0.00  0.00    +0.000 A 
ATOM     13  C   UNL     1      48.942   9.322  11.618  0.00  0.00    +0.000 A 
ATOM     14 CL   UNL     1      50.616   9.449  11.232  0.00  0.00    +0.000 Cl
ATOM     15  C   UNL     1      48.382   8.065  11.859  0.00  0.00    +0.000 A 
ENDBRANCH   6   8
BRANCH   1  16
ATOM     16  C   UNL     1      43.531   4.458  11.099  0.00  0.00    +0.000 C 
BRANCH  16  21
ATOM     17  C   UNL     1      46.397   2.319   7.697  0.00  0.00    +0.000 A 
ATOM     18  C   UNL     1      45.590   1.845   8.703  0.00  0.00    +0.000 A 
ATOM     19  N   UNL     1      44.734   2.625   9.394  0.00  0.00    +0.000 NA
ATOM     20  C   UNL     1      44.696   3.928   9.079  0.00  0.00    +0.000 A 
ATOM     21  N   UNL     1      43.784   4.754   9.706  0.00  0.00    +0.000 N 
ATOM     22  N   UNL     1      45.463   4.491   8.137  0.00  0.00    +0.000 NA
ATOM     23  C   UNL     1      46.310   3.672   7.468  0.00  0.00    +0.000 A 
ATOM     24  H   UNL     1      44.028   5.714   9.500  0.00  0.00    +0.000 HD
BRANCH  17  26
ATOM     25  N   UNL     1      48.441   2.061   6.418  0.00  0.00    +0.000 N 
ATOM     26  C   UNL     1      47.321   1.472   6.935  0.00  0.00    +0.000 C 
ATOM     27  O   UNL     1      47.111   0.275   6.798  0.00  0.00    +0.000 OA
ATOM     28  H   UNL     1      49.111   1.439   5.980  0.00  0.00    +0.000 HD
ATOM     29  H   UNL     1      48.784   2.964   6.719  0.00  0.00    +0.000 HD
ENDBRANCH  17  26
ENDBRANCH  16  21
ENDBRANCH   1  16
TORSDOF 4
ENDMDL
MODEL 2
REMARK VINA RESULT:    -8.818      2.697      4.660
REMARK INTER + INTRA:         -11.608
REMARK INTER:                 -10.893
REMARK INTRA:                  -0.715
REMARK UNBOUND:                -0.728
REMARK  Name = 
REMARK  4 active torsions:
REMARK  status: ('A' for Active; 'I' for Inactive)
REMARK    1  A    between atoms: C_2  and  C_4
REMARK    2  A    between atoms: N_8  and  C_9
REMARK    3  A    between atoms: C_9  and  C_10
REMARK    4  A    between atoms: C_15  and  C_16
REMARK                            x       y       z     vdW  Elec       q    Type
REMARK                         _______ _______ _______ _____ _____    ______ ____
ROOT
ATOM      1  C   UNL     1      45.269   5.221  11.978  0.00  0.00    +0.000 A 
ATOM      2  C   UNL     1      45.939   6.329  11.454  0.00  0.00    +0.000 A 
ATOM      3  C   UNL     1      47.047   6.841  12.120  0.00  0.00    +0.000 A 
ATOM      4  C   UNL     1      47.492   6.247  13.303  0.00  0.00    +0.000 A 
ATOM      5  F   UNL     1      48.580   6.777  13.882  0.00  0.00    +0.000 F 
ATOM      6  C   UNL     1      46.850   5.133  13.871  0.00  0.00    +0.000 A 
ATOM      7  C   UNL     1      45.736   4.635  13.172  0.00  0.00    +0.000 A 
ENDROOT
BRANCH   6   8
ATOM      8  C   UNL     1      47.295   4.513  15.142  0.00  0.00    +0.000 A 
ATOM      9  C   UNL     1      47.856   3.222  15.179  0.00  0.00    +0.000 A 
ATOM     10  C   UNL     1      48.251   2.644  16.384  0.00  0.00    +0.000 A 
ATOM     11  F   UNL     1      48.771   1.409  16.378  0.00  0.00    +0.000 F 
ATOM     12  C   UNL     1      48.120   3.321  17.587  0.00  0.00    +0.000 A 
ATOM     13  C   UNL     1      47.572   4.596  17.573  0.00  0.00    +0.000 A 
ATOM     14 CL   UNL     1      47.399   5.464  19.050  0.00  0.00    +0.000 Cl
ATOM     15  C   UNL     1      47.156   5.181  16.375  0.00  0.00    +0.000 A 
ENDBRANCH   6   8
BRANCH   1  16
ATOM     16  C   UNL     1      44.074   4.619  11.273  0.00  0.00    +0.000 C 
BRANCH  16  21
ATOM     17  C   UNL     1      46.477   2.382   7.588  0.00  0.00    +0.000 A 
ATOM     18  C   UNL     1      45.775   1.937   8.681  0.00  0.00    +0.000 A 
ATOM     19  N   UNL     1      45.025   2.745   9.458  0.00  0.00    +0.000 NA
ATOM     20  C   UNL     1      44.989   4.047   9.139  0.00  0.00    +0.000 A 
ATOM     21  N   UNL     1      44.178   4.902   9.858  0.00  0.00    +0.000 N 
ATOM     22  N   UNL     1      45.662   4.582   8.112  0.00  0.00    +0.000 NA
ATOM     23  C   UNL     1      46.403   3.736   7.359  0.00  0.00    +0.000 A 
ATOM     24  H   UNL     1      44.424   5.853   9.618  0.00  0.00    +0.000 HD
BRANCH  17  26
ATOM     25  N   UNL     1      48.336   2.065   6.062  0.00  0.00    +0.000 N 
ATOM     26  C   UNL     1      47.285   1.505   6.733  0.00  0.00    +0.000 C 
ATOM     27  O   UNL     1      47.045   0.308   6.653  0.00  0.00    +0.000 OA
ATOM     28  H   UNL     1      48.936   1.424   5.556  0.00  0.00    +0.000 HD
ATOM     29  H   UNL     1      48.725   2.969   6.294  0.00  0.00    +0.000 HD
ENDBRANCH  17  26
ENDBRANCH  16  21
ENDBRANCH   1  16
TORSDOF 4
ENDMDL
MODEL 3
REMARK VINA RESULT:    -7.889      1.622      2.898
REMARK INTER + INTRA:         -10.462
REMARK INTER:                  -9.691
REMARK INTRA:                  -0.771
REMARK UNBOUND:                -0.728
REMARK  Name = 
REMARK  4 active torsions:
REMARK  status: ('A' for Active; 'I' for Inactive)
REMARK    1  A    between atoms: C_2  and  C_4
REMARK    2  A    between atoms: N_8  and  C_9
REMARK    3  A    between atoms: C_9  and  C_10
REMARK    4  A    between atoms: C_15  and  C_16
REMARK                            x       y       z     vdW  Elec       q    Type
REMARK                         _______ _______ _______ _____ _____    ______ ____
ROOT
ATOM      1  C   UNL     1      44.887   6.605  11.464  0.00  0.00    +0.000 A 
ATOM      2  C   UNL     1      44.181   7.802  11.325  0.00  0.00    +0.000 A 
ATOM      3  C   UNL     1      44.784   9.002  11.687  0.00  0.00    +0.000 A 
ATOM      4  C   UNL     1      46.090   9.011  12.182  0.00  0.00    +0.000 A 
ATOM      5  F   UNL     1      46.618  10.205  12.491  0.00  0.00    +0.000 F 
ATOM      6  C   UNL     1      46.840   7.833  12.342  0.00  0.00    +0.000 A 
ATOM      7  C   UNL     1      46.206   6.636  11.963  0.00  0.00    +0.000 A 
ENDROOT
BRANCH   6   8
ATOM      8  C   UNL     1      48.216   7.827  12.894  0.00  0.00    +0.000 A 
ATOM      9  C   UNL     1      48.489   7.364  14.195  0.00  0.00    +0.000 A 
ATOM     10  C   UNL     1      49.784   7.383  14.708  0.00  0.00    +0.000 A 
ATOM     11  F   UNL     1      50.002   6.944  15.955  0.00  0.00    +0.000 F 
ATOM     12  C   UNL     1      50.853   7.845  13.954  0.00  0.00    +0.000 A 
ATOM     13  C   UNL     1      50.607   8.304  12.668  0.00  0.00    +0.000 A 
ATOM     14 CL   UNL     1      51.912   8.881  11.706  0.00  0.00    +0.000 Cl
ATOM     15  C   UNL     1      49.310   8.306  12.147  0.00  0.00    +0.000 A 
ENDBRANCH   6   8
BRANCH   1  16
ATOM     16  C   UNL     1      44.278   5.281  11.059  0.00  0.00    +0.000 C 
BRANCH  16  21
ATOM     17  C   UNL     1      46.317   2.073   7.911  0.00  0.00    +0.000 A 
ATOM     18  C   UNL     1      45.692   1.953   9.128  0.00  0.00    +0.000 A 
ATOM     19  N   UNL     1      45.029   2.966   9.723  0.00  0.00    +0.000 NA
ATOM     20  C   UNL     1      45.004   4.145   9.085  0.00  0.00    +0.000 A 
ATOM     21  N   UNL     1      44.276   5.191   9.615  0.00  0.00    +0.000 N 
ATOM     22  N   UNL     1      45.607   4.371   7.911  0.00  0.00    +0.000 NA
ATOM     23  C   UNL     1      46.263   3.327   7.349  0.00  0.00    +0.000 A 
ATOM     24  H   UNL     1      44.529   6.038   9.124  0.00  0.00    +0.000 HD
BRANCH  17  26
ATOM     25  N   UNL     1      46.724  -0.303   7.643  0.00  0.00    +0.000 N 
ATOM     26  C   UNL     1      47.030   0.972   7.255  0.00  0.00    +0.000 C 
ATOM     27  O   UNL     1      47.843   1.189   6.367  0.00  0.00    +0.000 OA
ATOM     28  H   UNL     1      47.156  -1.048   7.109  0.00  0.00    +0.000 HD
ATOM     29  H   UNL     1      45.893  -0.540   8.169  0.00  0.00    +0.000 HD
ENDBRANCH  17  26
ENDBRANCH  16  21
ENDBRANCH   1  16
TORSDOF 4
ENDMDL
MODEL 4
REMARK VINA RESULT:    -7.879      4.744      7.296
REMARK INTER + INTRA:         -10.450
REMARK INTER:                  -9.939
REMARK INTRA:                  -0.510
REMARK UNBOUND:                -0.728
REMARK  Name = 
REMARK  4 active torsions:
REMARK  status: ('A' for Active; 'I' for Inactive)
REMARK    1  A    between atoms: C_2  and  C_4
REMARK    2  A    between atoms: N_8  and  C_9
REMARK    3  A    between atoms: C_9  and  C_10
REMARK    4  A    between atoms: C_15  and  C_16
REMARK                            x       y       z     vdW  Elec       q    Type
REMARK                         _______ _______ _______ _____ _____    ______ ____
ROOT
ATOM      1  C   UNL     1      44.411   5.774  11.412  0.00  0.00    +0.000 A 
ATOM      2  C   UNL     1      43.478   5.040  12.147  0.00  0.00    +0.000 A 
ATOM      3  C   UNL     1      43.216   3.719  11.802  0.00  0.00    +0.000 A 
ATOM      4  C   UNL     1      43.887   3.127  10.729  0.00  0.00    +0.000 A 
ATOM      5  F   UNL     1      43.603   1.842  10.464  0.00  0.00    +0.000 F 
ATOM      6  C   UNL     1      44.832   3.825   9.958  0.00  0.00    +0.000 A 
ATOM      7  C   UNL     1      45.079   5.157  10.335  0.00  0.00    +0.000 A 
ENDROOT
BRANCH   6   8
ATOM      8  C   UNL     1      45.529   3.217   8.799  0.00  0.00    +0.000 A 
ATOM      9  C   UNL     1      45.933   3.986   7.692  0.00  0.00    +0.000 A 
ATOM     10  C   UNL     1      46.569   3.397   6.601  0.00  0.00    +0.000 A 
ATOM     11  F   UNL     1      46.928   4.162   5.561  0.00  0.00    +0.000 F 
ATOM     12  C   UNL     1      46.838   2.038   6.569  0.00  0.00    +0.000 A 
ATOM     13  C   UNL     1      46.451   1.261   7.652  0.00  0.00    +0.000 A 
ATOM     14 CL   UNL     1      46.774  -0.430   7.645  0.00  0.00    +0.000 Cl
ATOM     15  C   UNL     1      45.797   1.835   8.746  0.00  0.00    +0.000 A 
ENDBRANCH   6   8
BRANCH   1  16
ATOM     16  C   UNL     1      44.742   7.206  11.770  0.00  0.00    +0.000 C 
BRANCH  16  21
ATOM     17  C   UNL     1      49.499   7.950  12.855  0.00  0.00    +0.000 A 
ATOM     18  C   UNL     1      48.621   8.519  11.965  0.00  0.00    +0.000 A 
ATOM     19  N   UNL     1      47.293   8.282  11.982  0.00  0.00    +0.000 NA
ATOM     20  C   UNL     1      46.830   7.435  12.913  0.00  0.00    +0.000 A 
ATOM     21  N   UNL     1      45.470   7.218  13.020  0.00  0.00    +0.000 N 
ATOM     22  N   UNL     1      47.608   6.808  13.804  0.00  0.00    +0.000 NA
ATOM     23  C   UNL     1      48.935   7.072  13.751  0.00  0.00    +0.000 A 
ATOM     24  H   UNL     1      45.321   6.418  13.621  0.00  0.00    +0.000 HD
BRANCH  17  26
ATOM     25  N   UNL     1      51.650   7.902  13.976  0.00  0.00    +0.000 N 
ATOM     26  C   UNL     1      50.942   8.212  12.848  0.00  0.00    +0.000 C 
ATOM     27  O   UNL     1      51.495   8.661  11.854  0.00  0.00    +0.000 OA
ATOM     28  H   UNL     1      52.657   8.000  13.913  0.00  0.00    +0.000 HD
ATOM     29  H   UNL     1      51.294   7.300  14.707  0.00  0.00    +0.000 HD
ENDBRANCH  17  26
ENDBRANCH  16  21
ENDBRANCH   1  16
TORSDOF 4
ENDMDL
MODEL 5
REMARK VINA RESULT:    -7.744      2.011      2.998
REMARK INTER + INTRA:         -10.283
REMARK INTER:                  -9.556
REMARK INTRA:                  -0.727
REMARK UNBOUND:                -0.728
REMARK  Name = 
REMARK  4 active torsions:
REMARK  status: ('A' for Active; 'I' for Inactive)
REMARK    1  A    between atoms: C_2  and  C_4
REMARK    2  A    between atoms: N_8  and  C_9
REMARK    3  A    between atoms: C_9  and  C_10
REMARK    4  A    between atoms: C_15  and  C_16
REMARK                            x       y       z     vdW  Elec       q    Type
REMARK                         _______ _______ _______ _____ _____    ______ ____
ROOT
ATOM      1  C   UNL     1      44.364   6.197  11.338  0.00  0.00    +0.000 A 
ATOM      2  C   UNL     1      43.750   7.412  11.026  0.00  0.00    +0.000 A 
ATOM      3  C   UNL     1      44.354   8.606  11.404  0.00  0.00    +0.000 A 
ATOM      4  C   UNL     1      45.572   8.591  12.087  0.00  0.00    +0.000 A 
ATOM      5  F   UNL     1      46.111   9.779  12.403  0.00  0.00    +0.000 F 
ATOM      6  C   UNL     1      46.228   7.394  12.427  0.00  0.00    +0.000 A 
ATOM      7  C   UNL     1      45.595   6.204  12.027  0.00  0.00    +0.000 A 
ENDROOT
BRANCH   6   8
ATOM      8  C   UNL     1      47.505   7.366  13.178  0.00  0.00    +0.000 A 
ATOM      9  C   UNL     1      48.647   8.050  12.722  0.00  0.00    +0.000 A 
ATOM     10  C   UNL     1      49.847   7.998  13.429  0.00  0.00    +0.000 A 
ATOM     11  F   UNL     1      50.915   8.654  12.956  0.00  0.00    +0.000 F 
ATOM     12  C   UNL     1      49.958   7.283  14.612  0.00  0.00    +0.000 A 
ATOM     13  C   UNL     1      48.844   6.602  15.081  0.00  0.00    +0.000 A 
ATOM     14 CL   UNL     1      48.948   5.708  16.548  0.00  0.00    +0.000 Cl
ATOM     15  C   UNL     1      47.638   6.632  14.374  0.00  0.00    +0.000 A 
ENDBRANCH   6   8
BRANCH   1  16
ATOM     16  C   UNL     1      43.752   4.878  10.924  0.00  0.00    +0.000 C 
BRANCH  16  21
ATOM     17  C   UNL     1      46.354   2.186   7.708  0.00  0.00    +0.000 A 
ATOM     18  C   UNL     1      45.789   1.929   8.934  0.00  0.00    +0.000 A 
ATOM     19  N   UNL     1      44.942   2.778   9.550  0.00  0.00    +0.000 NA
ATOM     20  C   UNL     1      44.662   3.932   8.926  0.00  0.00    +0.000 A 
ATOM     21  N   UNL     1      43.744   4.801   9.480  0.00  0.00    +0.000 N 
ATOM     22  N   UNL     1      45.185   4.286   7.745  0.00  0.00    +0.000 NA
ATOM     23  C   UNL     1      46.033   3.406   7.162  0.00  0.00    +0.000 A 
ATOM     24  H   UNL     1      43.808   5.686   8.994  0.00  0.00    +0.000 HD
BRANCH  17  26
ATOM     25  N   UNL     1      48.339   1.796   6.370  0.00  0.00    +0.000 N 
ATOM     26  C   UNL     1      47.267   1.260   7.029  0.00  0.00    +0.000 C 
ATOM     27  O   UNL     1      47.092   0.051   7.081  0.00  0.00    +0.000 OA
ATOM     28  H   UNL     1      49.008   1.134   5.993  0.00  0.00    +0.000 HD
ATOM     29  H   UNL     1      48.666   2.742   6.517  0.00  0.00    +0.000 HD
ENDBRANCH  17  26
ENDBRANCH  16  21
ENDBRANCH   1  16
TORSDOF 4
ENDMDL
MODEL 6
REMARK VINA RESULT:    -7.713      2.314      3.953
REMARK INTER + INTRA:         -10.244
REMARK INTER:                  -9.990
REMARK INTRA:                  -0.255
REMARK UNBOUND:                -0.728
REMARK  Name = 
REMARK  4 active torsions:
REMARK  status: ('A' for Active; 'I' for Inactive)
REMARK    1  A    between atoms: C_2  and  C_4
REMARK    2  A    between atoms: N_8  and  C_9
REMARK    3  A    between atoms: C_9  and  C_10
REMARK    4  A    between atoms: C_15  and  C_16
REMARK                            x       y       z     vdW  Elec       q    Type
REMARK                         _______ _______ _______ _____ _____    ______ ____
ROOT
ATOM      1  C   UNL     1      44.438   5.100  11.534  0.00  0.00    +0.000 A 
ATOM      2  C   UNL     1      44.265   6.427  11.133  0.00  0.00    +0.000 A 
ATOM      3  C   UNL     1      44.968   7.438  11.779  0.00  0.00    +0.000 A 
ATOM      4  C   UNL     1      45.846   7.128  12.820  0.00  0.00    +0.000 A 
ATOM      5  F   UNL     1      46.509   8.149  13.385  0.00  0.00    +0.000 F 
ATOM      6  C   UNL     1      46.052   5.809  13.261  0.00  0.00    +0.000 A 
ATOM      7  C   UNL     1      45.332   4.809  12.585  0.00  0.00    +0.000 A 
ENDROOT
BRANCH   6   8
ATOM      8  C   UNL     1      46.959   5.472  14.384  0.00  0.00    +0.000 A 
ATOM      9  C   UNL     1      46.786   4.303  15.149  0.00  0.00    +0.000 A 
ATOM     10  C   UNL     1      47.634   4.009  16.215  0.00  0.00    +0.000 A 
ATOM     11  F   UNL     1      47.430   2.892  16.926  0.00  0.00    +0.000 F 
ATOM     12  C   UNL     1      48.687   4.846  16.553  0.00  0.00    +0.000 A 
ATOM     13  C   UNL     1      48.878   6.003  15.810  0.00  0.00    +0.000 A 
ATOM     14 CL   UNL     1      50.177   7.061  16.202  0.00  0.00    +0.000 Cl
ATOM     15  C   UNL     1      48.024   6.319  14.749  0.00  0.00    +0.000 A 
ENDBRANCH   6   8
BRANCH   1  16
ATOM     16  C   UNL     1      43.712   3.969  10.841  0.00  0.00    +0.000 C 
BRANCH  16  21
ATOM     17  C   UNL     1      46.720   2.537   7.200  0.00  0.00    +0.000 A 
ATOM     18  C   UNL     1      46.380   3.755   7.737  0.00  0.00    +0.000 A 
ATOM     19  N   UNL     1      45.673   3.889   8.877  0.00  0.00    +0.000 NA
ATOM     20  C   UNL     1      45.279   2.766   9.494  0.00  0.00    +0.000 A 
ATOM     21  N   UNL     1      44.617   2.849  10.703  0.00  0.00    +0.000 N 
ATOM     22  N   UNL     1      45.534   1.534   9.035  0.00  0.00    +0.000 NA
ATOM     23  C   UNL     1      46.245   1.444   7.886  0.00  0.00    +0.000 A 
ATOM     24  H   UNL     1      44.226   1.941  10.917  0.00  0.00    +0.000 HD
BRANCH  17  26
ATOM     25  N   UNL     1      47.329   3.327   4.989  0.00  0.00    +0.000 N 
ATOM     26  C   UNL     1      47.498   2.386   5.966  0.00  0.00    +0.000 C 
ATOM     27  O   UNL     1      48.295   1.468   5.833  0.00  0.00    +0.000 OA
ATOM     28  H   UNL     1      47.947   3.257   4.188  0.00  0.00    +0.000 HD
ATOM     29  H   UNL     1      46.893   4.225   5.151  0.00  0.00    +0.000 HD
ENDBRANCH  17  26
ENDBRANCH  16  21
ENDBRANCH   1  16
TORSDOF 4
ENDMDL
MODEL 7
REMARK VINA RESULT:    -7.574      5.763      8.130
REMARK INTER + INTRA:         -10.074
REMARK INTER:                  -9.373
REMARK INTRA:                  -0.700
REMARK UNBOUND:                -0.728
REMARK  Name = 
REMARK  4 active torsions:
REMARK  status: ('A' for Active; 'I' for Inactive)
REMARK    1  A    between atoms: C_2  and  C_4
REMARK    2  A    between atoms: N_8  and  C_9
REMARK    3  A    between atoms: C_9  and  C_10
REMARK    4  A    between atoms: C_15  and  C_16
REMARK                            x       y       z     vdW  Elec       q    Type
REMARK                         _______ _______ _______ _____ _____    ______ ____
ROOT
ATOM      1  C   UNL     1      47.349   7.407  13.488  0.00  0.00    +0.000 A 
ATOM      2  C   UNL     1      46.744   8.660  13.366  0.00  0.00    +0.000 A 
ATOM      3  C   UNL     1      45.647   8.815  12.525  0.00  0.00    +0.000 A 
ATOM      4  C   UNL     1      45.150   7.723  11.810  0.00  0.00    +0.000 A 
ATOM      5  F   UNL     1      44.077   7.937  11.034  0.00  0.00    +0.000 F 
ATOM      6  C   UNL     1      45.727   6.444  11.897  0.00  0.00    +0.000 A 
ATOM      7  C   UNL     1      46.830   6.317  12.759  0.00  0.00    +0.000 A 
ENDROOT
BRANCH   6   8
ATOM      8  C   UNL     1      45.226   5.284  11.121  0.00  0.00    +0.000 A 
ATOM      9  C   UNL     1      44.349   4.340  11.685  0.00  0.00    +0.000 A 
ATOM     10  C   UNL     1      43.902   3.244  10.948  0.00  0.00    +0.000 A 
ATOM     11  F   UNL     1      43.076   2.360  11.524  0.00  0.00    +0.000 F 
ATOM     12  C   UNL     1      44.294   3.050   9.632  0.00  0.00    +0.000 A 
ATOM     13  C   UNL     1      45.157   3.971   9.056  0.00  0.00    +0.000 A 
ATOM     14 CL   UNL     1      45.659   3.760   7.423  0.00  0.00    +0.000 Cl
ATOM     15  C   UNL     1      45.626   5.065   9.787  0.00  0.00    +0.000 A 
ENDBRANCH   6   8
BRANCH   1  16
ATOM     16  C   UNL     1      48.528   7.191  14.410  0.00  0.00    +0.000 C 
BRANCH  16  21
ATOM     17  C   UNL     1      50.929   4.355  17.659  0.00  0.00    +0.000 A 
ATOM     18  C   UNL     1      51.213   5.545  17.036  0.00  0.00    +0.000 A 
ATOM     19  N   UNL     1      50.304   6.242  16.323  0.00  0.00    +0.000 NA
ATOM     20  C   UNL     1      49.073   5.722  16.216  0.00  0.00    +0.000 A 
ATOM     21  N   UNL     1      48.087   6.432  15.560  0.00  0.00    +0.000 N 
ATOM     22  N   UNL     1      48.707   4.555  16.761  0.00  0.00    +0.000 NA
ATOM     23  C   UNL     1      49.650   3.887  17.467  0.00  0.00    +0.000 A 
ATOM     24  H   UNL     1      47.300   5.816  15.402  0.00  0.00    +0.000 HD
BRANCH  17  26
ATOM     25  N   UNL     1      52.055   2.268  18.168  0.00  0.00    +0.000 N 
ATOM     26  C   UNL     1      51.909   3.599  18.445  0.00  0.00    +0.000 C 
ATOM     27  O   UNL     1      52.596   4.150  19.293  0.00  0.00    +0.000 OA
ATOM     28  H   UNL     1      52.805   1.789  18.654  0.00  0.00    +0.000 HD
ATOM     29  H   UNL     1      51.711   1.835  17.321  0.00  0.00    +0.000 HD
ENDBRANCH  17  26
ENDBRANCH  16  21
ENDBRANCH   1  16
TORSDOF 4
ENDMDL
MODEL 8
REMARK VINA RESULT:    -7.429      5.798      8.405
REMARK INTER + INTRA:          -9.895
REMARK INTER:                  -9.102
REMARK INTRA:                  -0.793
REMARK UNBOUND:                -0.728
REMARK  Name = 
REMARK  4 active torsions:
REMARK  status: ('A' for Active; 'I' for Inactive)
REMARK    1  A    between atoms: C_2  and  C_4
REMARK    2  A    between atoms: N_8  and  C_9
REMARK    3  A    between atoms: C_9  and  C_10
REMARK    4  A    between atoms: C_15  and  C_16
REMARK                            x       y       z     vdW  Elec       q    Type
REMARK                         _______ _______ _______ _____ _____    ______ ____
ROOT
ATOM      1  C   UNL     1      47.745   7.361  13.244  0.00  0.00    +0.000 A 
ATOM      2  C   UNL     1      47.089   8.593  13.286  0.00  0.00    +0.000 A 
ATOM      3  C   UNL     1      45.847   8.732  12.675  0.00  0.00    +0.000 A 
ATOM      4  C   UNL     1      45.257   7.645  12.029  0.00  0.00    +0.000 A 
ATOM      5  F   UNL     1      44.048   7.842  11.480  0.00  0.00    +0.000 F 
ATOM      6  C   UNL     1      45.878   6.386  11.957  0.00  0.00    +0.000 A 
ATOM      7  C   UNL     1      47.130   6.275  12.588  0.00  0.00    +0.000 A 
ENDROOT
BRANCH   6   8
ATOM      8  C   UNL     1      45.275   5.232  11.248  0.00  0.00    +0.000 A 
ATOM      9  C   UNL     1      44.442   4.311  11.909  0.00  0.00    +0.000 A 
ATOM     10  C   UNL     1      43.897   3.220  11.234  0.00  0.00    +0.000 A 
ATOM     11  F   UNL     1      43.118   2.358  11.902  0.00  0.00    +0.000 F 
ATOM     12  C   UNL     1      44.144   3.009   9.886  0.00  0.00    +0.000 A 
ATOM     13  C   UNL     1      44.960   3.907   9.213  0.00  0.00    +0.000 A 
ATOM     14 CL   UNL     1      45.282   3.675   7.538  0.00  0.00    +0.000 Cl
ATOM     15  C   UNL     1      45.526   4.996   9.881  0.00  0.00    +0.000 A 
ENDBRANCH   6   8
BRANCH   1  16
ATOM     16  C   UNL     1      49.085   7.161  13.916  0.00  0.00    +0.000 C 
BRANCH  16  21
ATOM     17  C   UNL     1      49.119   5.380  18.519  0.00  0.00    +0.000 A 
ATOM     18  C   UNL     1      49.766   5.038  17.356  0.00  0.00    +0.000 A 
ATOM     19  N   UNL     1      49.747   5.805  16.247  0.00  0.00    +0.000 NA
ATOM     20  C   UNL     1      49.045   6.946  16.297  0.00  0.00    +0.000 A 
ATOM     21  N   UNL     1      49.056   7.801  15.213  0.00  0.00    +0.000 N 
ATOM     22  N   UNL     1      48.357   7.351  17.372  0.00  0.00    +0.000 NA
ATOM     23  C   UNL     1      48.400   6.552  18.463  0.00  0.00    +0.000 A 
ATOM     24  H   UNL     1      48.329   8.492  15.343  0.00  0.00    +0.000 HD
BRANCH  17  26
ATOM     25  N   UNL     1      48.398   3.411  19.737  0.00  0.00    +0.000 N 
ATOM     26  C   UNL     1      49.144   4.556  19.732  0.00  0.00    +0.000 C 
ATOM     27  O   UNL     1      49.837   4.867  20.690  0.00  0.00    +0.000 OA
ATOM     28  H   UNL     1      48.507   2.809  20.545  0.00  0.00    +0.000 HD
ATOM     29  H   UNL     1      48.027   2.985  18.898  0.00  0.00    +0.000 HD
ENDBRANCH  17  26
ENDBRANCH  16  21
ENDBRANCH   1  16
TORSDOF 4
ENDMDL
MODEL 9
REMARK VINA RESULT:    -7.196      5.867      7.895
REMARK INTER + INTRA:          -9.607
REMARK INTER:                  -9.103
REMARK INTRA:                  -0.505
REMARK UNBOUND:                -0.728
REMARK  Name = 
REMARK  4 active torsions:
REMARK  status: ('A' for Active; 'I' for Inactive)
REMARK    1  A    between atoms: C_2  and  C_4
REMARK    2  A    between atoms: N_8  and  C_9
REMARK    3  A    between atoms: C_9  and  C_10
REMARK    4  A    between atoms: C_15  and  C_16
REMARK                            x       y       z     vdW  Elec       q    Type
REMARK                         _______ _______ _______ _____ _____    ______ ____
ROOT
ATOM      1  C   UNL     1      48.681   6.678  15.011  0.00  0.00    +0.000 A 
ATOM      2  C   UNL     1      49.600   7.341  14.194  0.00  0.00    +0.000 A 
ATOM      3  C   UNL     1      49.342   7.472  12.834  0.00  0.00    +0.000 A 
ATOM      4  C   UNL     1      48.167   6.949  12.288  0.00  0.00    +0.000 A 
ATOM      5  F   UNL     1      47.970   7.130  10.973  0.00  0.00    +0.000 F 
ATOM      6  C   UNL     1      47.214   6.271  13.068  0.00  0.00    +0.000 A 
ATOM      7  C   UNL     1      47.501   6.159  14.440  0.00  0.00    +0.000 A 
ENDROOT
BRANCH   6   8
ATOM      8  C   UNL     1      45.979   5.685  12.495  0.00  0.00    +0.000 A 
ATOM      9  C   UNL     1      44.818   5.503  13.270  0.00  0.00    +0.000 A 
ATOM     10  C   UNL     1      43.671   4.933  12.722  0.00  0.00    +0.000 A 
ATOM     11  F   UNL     1      42.590   4.765  13.496  0.00  0.00    +0.000 F 
ATOM     12  C   UNL     1      43.624   4.536  11.394  0.00  0.00    +0.000 A 
ATOM     13  C   UNL     1      44.756   4.709  10.611  0.00  0.00    +0.000 A 
ATOM     14 CL   UNL     1      44.729   4.231   8.958  0.00  0.00    +0.000 Cl
ATOM     15  C   UNL     1      45.920   5.265  11.151  0.00  0.00    +0.000 A 
ENDBRANCH   6   8
BRANCH   1  16
ATOM     16  C   UNL     1      48.913   6.535  16.498  0.00  0.00    +0.000 C 
BRANCH  16  21
ATOM     17  C   UNL     1      51.287   2.324  17.497  0.00  0.00    +0.000 A 
ATOM     18  C   UNL     1      51.544   3.650  17.748  0.00  0.00    +0.000 A 
ATOM     19  N   UNL     1      50.640   4.630  17.549  0.00  0.00    +0.000 NA
ATOM     20  C   UNL     1      49.440   4.273  17.068  0.00  0.00    +0.000 A 
ATOM     21  N   UNL     1      48.454   5.228  16.917  0.00  0.00    +0.000 N 
ATOM     22  N   UNL     1      49.103   3.013  16.764  0.00  0.00    +0.000 NA
ATOM     23  C   UNL     1      50.041   2.060  16.978  0.00  0.00    +0.000 A 
ATOM     24  H   UNL     1      47.705   4.831  16.367  0.00  0.00    +0.000 HD
BRANCH  17  26
ATOM     25  N   UNL     1      51.794   0.049  18.167  0.00  0.00    +0.000 N 
ATOM     26  C   UNL     1      52.263   1.253  17.723  0.00  0.00    +0.000 C 
ATOM     27  O   UNL     1      53.451   1.425  17.487  0.00  0.00    +0.000 OA
ATOM     28  H   UNL     1      52.472  -0.703  18.222  0.00  0.00    +0.000 HD
ATOM     29  H   UNL     1      50.819  -0.218  18.125  0.00  0.00    +0.000 HD
ENDBRANCH  17  26
ENDBRANCH  16  21
ENDBRANCH   1  16
TORSDOF 4
ENDMDL
