MODEL 1
REMARK VINA RESULT:    -7.989      0.000      0.000
REMARK INTER + INTRA:         -10.586
REMARK INTER:                 -10.090
REMARK INTRA:                  -0.496
REMARK UNBOUND:                -0.496
REMARK  Name = 
REMARK  6 active torsions:
REMARK  status: ('A' for Active; 'I' for Inactive)
REMARK    1  A    between atoms: C_1  and  O_2
REMARK    2  A    between atoms: O_2  and  C_3
REMARK    3  A    between atoms: N_10  and  C_11
REMARK    4  A    between atoms: C_11  and  C_12
REMARK    5  A    between atoms: C_15  and  C_16
REMARK    6  A    between atoms: C_16  and  N_17
REMARK                            x       y       z     vdW  Elec       q    Type
REMARK                         _______ _______ _______ _____ _____    ______ ____
ROOT
ATOM      1  C   UNL     1      47.117   5.661  13.586  0.00  0.00    +0.000 A 
ATOM      2  C   UNL     1      47.133   6.200  12.303  0.00  0.00    +0.000 A 
ATOM      3  C   UNL     1      46.163   5.845  11.354  0.00  0.00    +0.000 A 
ATOM      4  C   UNL     1      45.159   4.939  11.734  0.00  0.00    +0.000 A 
ATOM      5  C   UNL     1      45.101   4.417  13.029  0.00  0.00    +0.000 A 
ATOM      6  C   UNL     1      43.954   3.576  13.096  0.00  0.00    +0.000 A 
ATOM      7  C   UNL     1      43.357   3.586  11.858  0.00  0.00    +0.000 A 
ATOM      8  N   UNL     1      44.109   4.384  11.026  0.00  0.00    +0.000 N 
ATOM      9  C   UNL     1      46.097   4.777  13.957  0.00  0.00    +0.000 A 
ENDROOT
BRANCH   1  11
ATOM     10  C   UNL     1      48.642   7.201  14.569  0.00  0.00    +0.000 C 
ATOM     11  O   UNL     1      48.038   5.912  14.568  0.00  0.00    +0.000 OA
ENDBRANCH   1  11
BRANCH   8  12
ATOM     12  C   UNL     1      43.864   4.531   9.593  0.00  0.00    +0.000 C 
BRANCH  12  13
ATOM     13  C   UNL     1      44.831   3.716   8.777  0.00  0.00    +0.000 A 
ATOM     14  C   UNL     1      44.945   2.341   8.964  0.00  0.00    +0.000 A 
ATOM     15  C   UNL     1      45.949   1.649   8.295  0.00  0.00    +0.000 A 
ATOM     16  C   UNL     1      46.816   2.330   7.435  0.00  0.00    +0.000 A 
ATOM     17  C   UNL     1      46.582   3.689   7.257  0.00  0.00    +0.000 A 
ATOM     18  N   UNL     1      45.612   4.388   7.895  0.00  0.00    +0.000 NA
BRANCH  16  19
ATOM     19  C   UNL     1      48.026   1.640   6.876  0.00  0.00    +0.000 C 
BRANCH  19  20
ATOM     20  N   UNL     1      48.357   2.042   5.515  0.00  0.00    +0.000 NA
ATOM     21  H   UNL     1      47.498   2.272   5.018  0.00  0.00    +0.000 HD
ATOM     22  H   UNL     1      48.761   1.243   5.028  0.00  0.00    +0.000 HD
ENDBRANCH  19  20
ENDBRANCH  16  19
ENDBRANCH  12  13
ENDBRANCH   8  12
TORSDOF 5
ENDMDL
MODEL 2
REMARK VINA RESULT:    -7.858      1.174      1.949
REMARK INTER + INTRA:         -10.421
REMARK INTER:                  -9.937
REMARK INTRA:                  -0.484
REMARK UNBOUND:                -0.496
REMARK  Name = 
REMARK  6 active torsions:
REMARK  status: ('A' for Active; 'I' for Inactive)
REMARK    1  A    between atoms: C_1  and  O_2
REMARK    2  A    between atoms: O_2  and  C_3
REMARK    3  A    between atoms: N_10  and  C_11
REMARK    4  A    between atoms: C_11  and  C_12
REMARK    5  A    between atoms: C_15  and  C_16
REMARK    6  A    between atoms: C_16  and  N_17
REMARK                            x       y       z     vdW  Elec       q    Type
REMARK                         _______ _______ _______ _____ _____    ______ ____
ROOT
ATOM      1  C   UNL     1      47.135   4.594  14.358  0.00  0.00    +0.000 A 
ATOM      2  C   UNL     1      46.663   3.473  13.682  0.00  0.00    +0.000 A 
ATOM      3  C   UNL     1      45.860   3.598  12.539  0.00  0.00    +0.000 A 
ATOM      4  C   UNL     1      45.552   4.889  12.079  0.00  0.00    +0.000 A 
ATOM      5  C   UNL     1      46.049   6.028  12.719  0.00  0.00    +0.000 A 
ATOM      6  C   UNL     1      45.592   7.160  11.985  0.00  0.00    +0.000 A 
ATOM      7  C   UNL     1      44.823   6.698  10.943  0.00  0.00    +0.000 A 
ATOM      8  N   UNL     1      44.773   5.325  11.023  0.00  0.00    +0.000 N 
ATOM      9  C   UNL     1      46.839   5.874  13.874  0.00  0.00    +0.000 A 
ENDROOT
BRANCH   1  11
ATOM     10  C   UNL     1      47.343   3.890  16.622  0.00  0.00    +0.000 C 
ATOM     11  O   UNL     1      47.890   4.577  15.501  0.00  0.00    +0.000 OA
ENDBRANCH   1  11
BRANCH   8  12
ATOM     12  C   UNL     1      43.938   4.486  10.165  0.00  0.00    +0.000 C 
BRANCH  12  13
ATOM     13  C   UNL     1      44.765   3.690   9.192  0.00  0.00    +0.000 A 
ATOM     14  C   UNL     1      44.875   2.307   9.309  0.00  0.00    +0.000 A 
ATOM     15  C   UNL     1      45.762   1.627   8.480  0.00  0.00    +0.000 A 
ATOM     16  C   UNL     1      46.514   2.328   7.534  0.00  0.00    +0.000 A 
ATOM     17  C   UNL     1      46.287   3.697   7.443  0.00  0.00    +0.000 A 
ATOM     18  N   UNL     1      45.430   4.385   8.236  0.00  0.00    +0.000 NA
BRANCH  16  19
ATOM     19  C   UNL     1      47.621   1.644   6.785  0.00  0.00    +0.000 C 
BRANCH  19  20
ATOM     20  N   UNL     1      48.662   2.547   6.316  0.00  0.00    +0.000 NA
ATOM     21  H   UNL     1      49.120   2.973   7.119  0.00  0.00    +0.000 HD
ATOM     22  H   UNL     1      48.224   3.311   5.801  0.00  0.00    +0.000 HD
ENDBRANCH  19  20
ENDBRANCH  16  19
ENDBRANCH  12  13
ENDBRANCH   8  12
TORSDOF 5
ENDMDL
MODEL 3
REMARK VINA RESULT:    -7.314      1.494      1.731
REMARK INTER + INTRA:          -9.734
REMARK INTER:                  -9.351
REMARK INTRA:                  -0.384
REMARK UNBOUND:                -0.496
REMARK  Name = 
REMARK  6 active torsions:
REMARK  status: ('A' for Active; 'I' for Inactive)
REMARK    1  A    between atoms: C_1  and  O_2
REMARK    2  A    between atoms: O_2  and  C_3
REMARK    3  A    between atoms: N_10  and  C_11
REMARK    4  A    between atoms: C_11  and  C_12
REMARK    5  A    between atoms: C_15  and  C_16
REMARK    6  A    between atoms: C_16  and  N_17
REMARK                            x       y       z     vdW  Elec       q    Type
REMARK                         _______ _______ _______ _____ _____    ______ ____
ROOT
ATOM      1  C   UNL     1      46.679   8.003  12.935  0.00  0.00    +0.000 A 
ATOM      2  C   UNL     1      45.775   8.164  11.889  0.00  0.00    +0.000 A 
ATOM      3  C   UNL     1      45.104   7.064  11.334  0.00  0.00    +0.000 A 
ATOM      4  C   UNL     1      45.355   5.790  11.869  0.00  0.00    +0.000 A 
ATOM      5  C   UNL     1      46.228   5.611  12.945  0.00  0.00    +0.000 A 
ATOM      6  C   UNL     1      46.224   4.225  13.268  0.00  0.00    +0.000 A 
ATOM      7  C   UNL     1      45.380   3.594  12.385  0.00  0.00    +0.000 A 
ATOM      8  N   UNL     1      44.882   4.539  11.518  0.00  0.00    +0.000 N 
ATOM      9  C   UNL     1      46.901   6.729  13.473  0.00  0.00    +0.000 A 
ENDROOT
BRANCH   1  11
ATOM     10  C   UNL     1      47.905  10.024  12.656  0.00  0.00    +0.000 C 
ATOM     11  O   UNL     1      47.411   9.003  13.517  0.00  0.00    +0.000 OA
ENDBRANCH   1  11
BRANCH   8  12
ATOM     12  C   UNL     1      44.055   4.226  10.354  0.00  0.00    +0.000 C 
BRANCH  12  13
ATOM     13  C   UNL     1      44.851   3.546   9.274  0.00  0.00    +0.000 A 
ATOM     14  C   UNL     1      45.007   2.162   9.263  0.00  0.00    +0.000 A 
ATOM     15  C   UNL     1      45.867   1.586   8.332  0.00  0.00    +0.000 A 
ATOM     16  C   UNL     1      46.547   2.392   7.414  0.00  0.00    +0.000 A 
ATOM     17  C   UNL     1      46.275   3.755   7.456  0.00  0.00    +0.000 A 
ATOM     18  N   UNL     1      45.442   4.342   8.350  0.00  0.00    +0.000 NA
BRANCH  16  19
ATOM     19  C   UNL     1      47.630   1.813   6.552  0.00  0.00    +0.000 C 
BRANCH  19  20
ATOM     20  N   UNL     1      48.742   2.721   6.313  0.00  0.00    +0.000 NA
ATOM     21  H   UNL     1      48.891   3.292   7.144  0.00  0.00    +0.000 HD
ATOM     22  H   UNL     1      48.482   3.367   5.569  0.00  0.00    +0.000 HD
ENDBRANCH  19  20
ENDBRANCH  16  19
ENDBRANCH  12  13
ENDBRANCH   8  12
TORSDOF 5
ENDMDL
MODEL 4
REMARK VINA RESULT:    -6.556      2.982      6.312
REMARK INTER + INTRA:          -8.776
REMARK INTER:                  -8.465
REMARK INTRA:                  -0.310
REMARK UNBOUND:                -0.496
REMARK  Name = 
REMARK  6 active torsions:
REMARK  status: ('A' for Active; 'I' for Inactive)
REMARK    1  A    between atoms: C_1  and  O_2
REMARK    2  A    between atoms: O_2  and  C_3
REMARK    3  A    between atoms: N_10  and  C_11
REMARK    4  A    between atoms: C_11  and  C_12
REMARK    5  A    between atoms: C_15  and  C_16
REMARK    6  A    between atoms: C_16  and  N_17
REMARK                            x       y       z     vdW  Elec       q    Type
REMARK                         _______ _______ _______ _____ _____    ______ ____
ROOT
ATOM      1  C   UNL     1      45.954   2.846   7.926  0.00  0.00    +0.000 A 
ATOM      2  C   UNL     1      46.121   4.224   8.030  0.00  0.00    +0.000 A 
ATOM      3  C   UNL     1      45.492   4.957   9.048  0.00  0.00    +0.000 A 
ATOM      4  C   UNL     1      44.698   4.263   9.975  0.00  0.00    +0.000 A 
ATOM      5  C   UNL     1      44.550   2.875   9.914  0.00  0.00    +0.000 A 
ATOM      6  C   UNL     1      43.728   2.487  11.010  0.00  0.00    +0.000 A 
ATOM      7  C   UNL     1      43.381   3.628  11.694  0.00  0.00    +0.000 A 
ATOM      8  N   UNL     1      43.941   4.705  11.045  0.00  0.00    +0.000 N 
ATOM      9  C   UNL     1      45.178   2.166   8.872  0.00  0.00    +0.000 A 
ENDROOT
BRANCH   1  11
ATOM     10  C   UNL     1      47.910   1.942   6.916  0.00  0.00    +0.000 C 
ATOM     11  O   UNL     1      46.491   2.050   6.950  0.00  0.00    +0.000 OA
ENDBRANCH   1  11
BRANCH   8  12
ATOM     12  C   UNL     1      43.681   6.098  11.400  0.00  0.00    +0.000 C 
BRANCH  12  13
ATOM     13  C   UNL     1      44.901   6.761  11.979  0.00  0.00    +0.000 A 
ATOM     14  C   UNL     1      45.884   6.015  12.624  0.00  0.00    +0.000 A 
ATOM     15  C   UNL     1      46.922   6.679  13.271  0.00  0.00    +0.000 A 
ATOM     16  C   UNL     1      46.978   8.075  13.254  0.00  0.00    +0.000 A 
ATOM     17  C   UNL     1      45.992   8.733  12.527  0.00  0.00    +0.000 A 
ATOM     18  N   UNL     1      44.971   8.112  11.887  0.00  0.00    +0.000 NA
BRANCH  16  19
ATOM     19  C   UNL     1      47.964   8.806  14.118  0.00  0.00    +0.000 C 
BRANCH  19  20
ATOM     20  N   UNL     1      47.458   9.129  15.445  0.00  0.00    +0.000 NA
ATOM     21  H   UNL     1      47.467  10.140  15.568  0.00  0.00    +0.000 HD
ATOM     22  H   UNL     1      48.102   8.753  16.140  0.00  0.00    +0.000 HD
ENDBRANCH  19  20
ENDBRANCH  16  19
ENDBRANCH  12  13
ENDBRANCH   8  12
TORSDOF 5
ENDMDL
MODEL 5
REMARK VINA RESULT:    -5.947      1.632      2.380
REMARK INTER + INTRA:          -8.007
REMARK INTER:                  -7.648
REMARK INTRA:                  -0.359
REMARK UNBOUND:                -0.496
REMARK  Name = 
REMARK  6 active torsions:
REMARK  status: ('A' for Active; 'I' for Inactive)
REMARK    1  A    between atoms: C_1  and  O_2
REMARK    2  A    between atoms: O_2  and  C_3
REMARK    3  A    between atoms: N_10  and  C_11
REMARK    4  A    between atoms: C_11  and  C_12
REMARK    5  A    between atoms: C_15  and  C_16
REMARK    6  A    between atoms: C_16  and  N_17
REMARK                            x       y       z     vdW  Elec       q    Type
REMARK                         _______ _______ _______ _____ _____    ______ ____
ROOT
ATOM      1  C   UNL     1      47.580   7.169  13.801  0.00  0.00    +0.000 A 
ATOM      2  C   UNL     1      47.522   5.810  13.508  0.00  0.00    +0.000 A 
ATOM      3  C   UNL     1      46.518   5.288  12.679  0.00  0.00    +0.000 A 
ATOM      4  C   UNL     1      45.575   6.175  12.135  0.00  0.00    +0.000 A 
ATOM      5  C   UNL     1      45.639   7.549  12.383  0.00  0.00    +0.000 A 
ATOM      6  C   UNL     1      44.577   8.161  11.658  0.00  0.00    +0.000 A 
ATOM      7  C   UNL     1      43.887   7.164  11.010  0.00  0.00    +0.000 A 
ATOM      8  N   UNL     1      44.472   5.960  11.329  0.00  0.00    +0.000 N 
ATOM      9  C   UNL     1      46.647   8.044  13.232  0.00  0.00    +0.000 A 
ENDROOT
BRANCH   1  11
ATOM     10  C   UNL     1      49.026   6.974  15.681  0.00  0.00    +0.000 C 
ATOM     11  O   UNL     1      48.494   7.769  14.627  0.00  0.00    +0.000 OA
ENDBRANCH   1  11
BRANCH   8  12
ATOM     12  C   UNL     1      43.933   4.660  10.936  0.00  0.00    +0.000 C 
BRANCH  12  13
ATOM     13  C   UNL     1      44.797   3.988   9.904  0.00  0.00    +0.000 A 
ATOM     14  C   UNL     1      45.522   4.736   8.980  0.00  0.00    +0.000 A 
ATOM     15  C   UNL     1      46.192   4.077   7.954  0.00  0.00    +0.000 A 
ATOM     16  C   UNL     1      46.146   2.684   7.869  0.00  0.00    +0.000 A 
ATOM     17  C   UNL     1      45.454   2.017   8.874  0.00  0.00    +0.000 A 
ATOM     18  N   UNL     1      44.794   2.632   9.886  0.00  0.00    +0.000 NA
BRANCH  16  19
ATOM     19  C   UNL     1      46.682   1.979   6.656  0.00  0.00    +0.000 C 
BRANCH  19  20
ATOM     20  N   UNL     1      47.145   0.624   6.919  0.00  0.00    +0.000 NA
ATOM     21  H   UNL     1      48.075   0.506   6.519  0.00  0.00    +0.000 HD
ATOM     22  H   UNL     1      46.540  -0.030   6.426  0.00  0.00    +0.000 HD
ENDBRANCH  19  20
ENDBRANCH  16  19
ENDBRANCH  12  13
ENDBRANCH   8  12
TORSDOF 5
ENDMDL
MODEL 6
REMARK VINA RESULT:    -5.525      2.690      4.040
REMARK INTER + INTRA:          -7.474
REMARK INTER:                  -7.040
REMARK INTRA:                  -0.434
REMARK UNBOUND:                -0.496
REMARK  Name = 
REMARK  6 active torsions:
REMARK  status: ('A' for Active; 'I' for Inactive)
REMARK    1  A    between atoms: C_1  and  O_2
REMARK    2  A    between atoms: O_2  and  C_3
REMARK    3  A    between atoms: N_10  and  C_11
REMARK    4  A    between atoms: C_11  and  C_12
REMARK    5  A    between atoms: C_15  and  C_16
REMARK    6  A    between atoms: C_16  and  N_17
REMARK                            x       y       z     vdW  Elec       q    Type
REMARK                         _______ _______ _______ _____ _____    ______ ____
ROOT
ATOM      1  C   UNL     1      47.663   9.855  12.014  0.00  0.00    +0.000 A 
ATOM      2  C   UNL     1      46.277   9.854  11.891  0.00  0.00    +0.000 A 
ATOM      3  C   UNL     1      45.518   8.726  12.233  0.00  0.00    +0.000 A 
ATOM      4  C   UNL     1      46.190   7.593  12.720  0.00  0.00    +0.000 A 
ATOM      5  C   UNL     1      47.577   7.586  12.890  0.00  0.00    +0.000 A 
ATOM      6  C   UNL     1      47.932   6.320  13.436  0.00  0.00    +0.000 A 
ATOM      7  C   UNL     1      46.777   5.585  13.566  0.00  0.00    +0.000 A 
ATOM      8  N   UNL     1      45.729   6.346  13.100  0.00  0.00    +0.000 N 
ATOM      9  C   UNL     1      48.317   8.726  12.523  0.00  0.00    +0.000 A 
ENDROOT
BRANCH   1  11
ATOM     10  C   UNL     1      48.254  11.516  10.415  0.00  0.00    +0.000 C 
ATOM     11  O   UNL     1      48.494  10.888  11.670  0.00  0.00    +0.000 OA
ENDBRANCH   1  11
BRANCH   8  12
ATOM     12  C   UNL     1      44.362   5.852  12.954  0.00  0.00    +0.000 C 
BRANCH  12  13
ATOM     13  C   UNL     1      44.258   4.815  11.869  0.00  0.00    +0.000 A 
ATOM     14  C   UNL     1      43.682   3.572  12.118  0.00  0.00    +0.000 A 
ATOM     15  C   UNL     1      43.736   2.591  11.132  0.00  0.00    +0.000 A 
ATOM     16  C   UNL     1      44.347   2.865   9.905  0.00  0.00    +0.000 A 
ATOM     17  C   UNL     1      44.834   4.155   9.721  0.00  0.00    +0.000 A 
ATOM     18  N   UNL     1      44.794   5.129  10.663  0.00  0.00    +0.000 NA
BRANCH  16  19
ATOM     19  C   UNL     1      44.600   1.761   8.920  0.00  0.00    +0.000 C 
BRANCH  19  20
ATOM     20  N   UNL     1      45.975   1.697   8.446  0.00  0.00    +0.000 NA
ATOM     21  H   UNL     1      46.531   2.391   8.942  0.00  0.00    +0.000 HD
ATOM     22  H   UNL     1      45.995   1.967   7.464  0.00  0.00    +0.000 HD
ENDBRANCH  19  20
ENDBRANCH  16  19
ENDBRANCH  12  13
ENDBRANCH   8  12
TORSDOF 5
ENDMDL
MODEL 7
REMARK VINA RESULT:    -5.392      3.857      6.514
REMARK INTER + INTRA:          -7.306
REMARK INTER:                  -6.790
REMARK INTRA:                  -0.517
REMARK UNBOUND:                -0.496
REMARK  Name = 
REMARK  6 active torsions:
REMARK  status: ('A' for Active; 'I' for Inactive)
REMARK    1  A    between atoms: C_1  and  O_2
REMARK    2  A    between atoms: O_2  and  C_3
REMARK    3  A    between atoms: N_10  and  C_11
REMARK    4  A    between atoms: C_11  and  C_12
REMARK    5  A    between atoms: C_15  and  C_16
REMARK    6  A    between atoms: C_16  and  N_17
REMARK                            x       y       z     vdW  Elec       q    Type
REMARK                         _______ _______ _______ _____ _____    ______ ____
ROOT
ATOM      1  C   UNL     1      44.645   3.762  10.873  0.00  0.00    +0.000 A 
ATOM      2  C   UNL     1      44.815   5.055  10.387  0.00  0.00    +0.000 A 
ATOM      3  C   UNL     1      45.551   6.010  11.104  0.00  0.00    +0.000 A 
ATOM      4  C   UNL     1      46.131   5.625  12.324  0.00  0.00    +0.000 A 
ATOM      5  C   UNL     1      46.008   4.321  12.810  0.00  0.00    +0.000 A 
ATOM      6  C   UNL     1      46.739   4.252  14.030  0.00  0.00    +0.000 A 
ATOM      7  C   UNL     1      47.267   5.499  14.270  0.00  0.00    +0.000 A 
ATOM      8  N   UNL     1      46.868   6.336  13.253  0.00  0.00    +0.000 N 
ATOM      9  C   UNL     1      45.249   3.387  12.079  0.00  0.00    +0.000 A 
ENDROOT
BRANCH   1  11
ATOM     10  C   UNL     1      44.525   2.098   9.175  0.00  0.00    +0.000 C 
ATOM     11  O   UNL     1      43.914   2.773  10.270  0.00  0.00    +0.000 OA
ENDBRANCH   1  11
BRANCH   8  12
ATOM     12  C   UNL     1      47.122   7.775  13.232  0.00  0.00    +0.000 C 
BRANCH  12  13
ATOM     13  C   UNL     1      48.541   8.084  12.840  0.00  0.00    +0.000 A 
ATOM     14  C   UNL     1      49.040   7.704  11.597  0.00  0.00    +0.000 A 
ATOM     15  C   UNL     1      50.395   7.879  11.330  0.00  0.00    +0.000 A 
ATOM     16  C   UNL     1      51.232   8.444  12.296  0.00  0.00    +0.000 A 
ATOM     17  C   UNL     1      50.632   8.856  13.481  0.00  0.00    +0.000 A 
ATOM     18  N   UNL     1      49.316   8.699  13.767  0.00  0.00    +0.000 NA
BRANCH  16  19
ATOM     19  C   UNL     1      52.721   8.444  12.104  0.00  0.00    +0.000 C 
BRANCH  19  20
ATOM     20  N   UNL     1      53.444   7.685  13.114  0.00  0.00    +0.000 NA
ATOM     21  H   UNL     1      52.810   7.458  13.878  0.00  0.00    +0.000 HD
ATOM     22  H   UNL     1      54.167   8.281  13.515  0.00  0.00    +0.000 HD
ENDBRANCH  19  20
ENDBRANCH  16  19
ENDBRANCH  12  13
ENDBRANCH   8  12
TORSDOF 5
ENDMDL
MODEL 8
REMARK VINA RESULT:    -5.272      4.225      8.051
REMARK INTER + INTRA:          -7.155
REMARK INTER:                  -6.804
REMARK INTRA:                  -0.351
REMARK UNBOUND:                -0.496
REMARK  Name = 
REMARK  6 active torsions:
REMARK  status: ('A' for Active; 'I' for Inactive)
REMARK    1  A    between atoms: C_1  and  O_2
REMARK    2  A    between atoms: O_2  and  C_3
REMARK    3  A    between atoms: N_10  and  C_11
REMARK    4  A    between atoms: C_11  and  C_12
REMARK    5  A    between atoms: C_15  and  C_16
REMARK    6  A    between atoms: C_16  and  N_17
REMARK                            x       y       z     vdW  Elec       q    Type
REMARK                         _______ _______ _______ _____ _____    ______ ____
ROOT
ATOM      1  C   UNL     1      44.564   4.904  12.017  0.00  0.00    +0.000 A 
ATOM      2  C   UNL     1      45.556   4.184  12.678  0.00  0.00    +0.000 A 
ATOM      3  C   UNL     1      46.614   4.835  13.328  0.00  0.00    +0.000 A 
ATOM      4  C   UNL     1      46.644   6.240  13.312  0.00  0.00    +0.000 A 
ATOM      5  C   UNL     1      45.637   6.982  12.691  0.00  0.00    +0.000 A 
ATOM      6  C   UNL     1      45.939   8.359  12.892  0.00  0.00    +0.000 A 
ATOM      7  C   UNL     1      47.114   8.427  13.602  0.00  0.00    +0.000 A 
ATOM      8  N   UNL     1      47.556   7.143  13.825  0.00  0.00    +0.000 N 
ATOM      9  C   UNL     1      44.595   6.303  12.030  0.00  0.00    +0.000 A 
ENDROOT
BRANCH   1  11
ATOM     10  C   UNL     1      43.345   2.952  11.411  0.00  0.00    +0.000 C 
ATOM     11  O   UNL     1      43.516   4.363  11.322  0.00  0.00    +0.000 OA
ENDBRANCH   1  11
BRANCH   8  12
ATOM     12  C   UNL     1      48.845   6.816  14.432  0.00  0.00    +0.000 C 
BRANCH  12  13
ATOM     13  C   UNL     1      48.688   6.359  15.857  0.00  0.00    +0.000 A 
ATOM     14  C   UNL     1      48.702   7.272  16.908  0.00  0.00    +0.000 A 
ATOM     15  C   UNL     1      48.700   6.798  18.216  0.00  0.00    +0.000 A 
ATOM     16  C   UNL     1      48.667   5.423  18.462  0.00  0.00    +0.000 A 
ATOM     17  C   UNL     1      48.585   4.589  17.352  0.00  0.00    +0.000 A 
ATOM     18  N   UNL     1      48.585   5.024  16.068  0.00  0.00    +0.000 NA
BRANCH  16  19
ATOM     19  C   UNL     1      48.878   4.895  19.851  0.00  0.00    +0.000 C 
BRANCH  19  20
ATOM     20  N   UNL     1      48.486   3.502  20.018  0.00  0.00    +0.000 NA
ATOM     21  H   UNL     1      48.169   3.359  20.975  0.00  0.00    +0.000 HD
ATOM     22  H   UNL     1      49.310   2.915  19.901  0.00  0.00    +0.000 HD
ENDBRANCH  19  20
ENDBRANCH  16  19
ENDBRANCH  12  13
ENDBRANCH   8  12
TORSDOF 5
ENDMDL
MODEL 9
REMARK VINA RESULT:    -5.106      3.583      5.768
REMARK INTER + INTRA:          -6.945
REMARK INTER:                  -6.460
REMARK INTRA:                  -0.485
REMARK UNBOUND:                -0.496
REMARK  Name = 
REMARK  6 active torsions:
REMARK  status: ('A' for Active; 'I' for Inactive)
REMARK    1  A    between atoms: C_1  and  O_2
REMARK    2  A    between atoms: O_2  and  C_3
REMARK    3  A    between atoms: N_10  and  C_11
REMARK    4  A    between atoms: C_11  and  C_12
REMARK    5  A    between atoms: C_15  and  C_16
REMARK    6  A    between atoms: C_16  and  N_17
REMARK                            x       y       z     vdW  Elec       q    Type
REMARK                         _______ _______ _______ _____ _____    ______ ____
ROOT
ATOM      1  C   UNL     1      50.176  10.403  11.255  0.00  0.00    +0.000 A 
ATOM      2  C   UNL     1      48.840  10.736  11.050  0.00  0.00    +0.000 A 
ATOM      3  C   UNL     1      47.807   9.973  11.613  0.00  0.00    +0.000 A 
ATOM      4  C   UNL     1      48.151   8.867  12.407  0.00  0.00    +0.000 A 
ATOM      5  C   UNL     1      49.486   8.539  12.660  0.00  0.00    +0.000 A 
ATOM      6  C   UNL     1      49.488   7.407  13.524  0.00  0.00    +0.000 A 
ATOM      7  C   UNL     1      48.179   7.061  13.760  0.00  0.00    +0.000 A 
ATOM      8  N   UNL     1      47.373   7.926  13.055  0.00  0.00    +0.000 N 
ATOM      9  C   UNL     1      50.504   9.311  12.069  0.00  0.00    +0.000 A 
ENDROOT
BRANCH   1  11
ATOM     10  C   UNL     1      52.090  10.308   9.844  0.00  0.00    +0.000 C 
ATOM     11  O   UNL     1      51.253  11.057  10.718  0.00  0.00    +0.000 OA
ENDBRANCH   1  11
BRANCH   8  12
ATOM     12  C   UNL     1      45.922   7.789  12.951  0.00  0.00    +0.000 C 
BRANCH  12  13
ATOM     13  C   UNL     1      45.529   6.460  12.363  0.00  0.00    +0.000 A 
ATOM     14  C   UNL     1      45.698   6.199  11.006  0.00  0.00    +0.000 A 
ATOM     15  C   UNL     1      45.190   5.016  10.477  0.00  0.00    +0.000 A 
ATOM     16  C   UNL     1      44.538   4.101  11.308  0.00  0.00    +0.000 A 
ATOM     17  C   UNL     1      44.478   4.415  12.661  0.00  0.00    +0.000 A 
ATOM     18  N   UNL     1      44.964   5.558  13.203  0.00  0.00    +0.000 NA
BRANCH  16  19
ATOM     19  C   UNL     1      43.805   2.931  10.719  0.00  0.00    +0.000 C 
BRANCH  19  20
ATOM     20  N   UNL     1      43.053   2.154  11.695  0.00  0.00    +0.000 NA
ATOM     21  H   UNL     1      42.511   1.443  11.209  0.00  0.00    +0.000 HD
ATOM     22  H   UNL     1      42.377   2.767  12.148  0.00  0.00    +0.000 HD
ENDBRANCH  19  20
ENDBRANCH  16  19
ENDBRANCH  12  13
ENDBRANCH   8  12
TORSDOF 5
ENDMDL
