MODEL 1
REMARK VINA RESULT:    -7.822      0.000      0.000
REMARK INTER + INTRA:         -10.535
REMARK INTER:                 -10.108
REMARK INTRA:                  -0.426
REMARK UNBOUND:                -0.426
REMARK  Name = 
REMARK  6 active torsions:
REMARK  status: ('A' for Active; 'I' for Inactive)
REMARK    1  A    between atoms: C_1  and  O_2
REMARK    2  A    between atoms: O_2  and  C_3
REMARK    3  A    between atoms: C_5  and  C_6
REMARK    4  A    between atoms: C_6  and  N_7
REMARK    5  A    between atoms: N_7  and  C_8
REMARK    6  A    between atoms: C_11  and  C_12
REMARK                            x       y       z     vdW  Elec       q    Type
REMARK                         _______ _______ _______ _____ _____    ______ ____
ROOT
ATOM      1  N   UNL     1      43.829   4.739  10.113  0.00  0.00    +0.000 N 
ATOM      2  H   UNL     1      43.868   5.731   9.882  0.00  0.00    +0.000 HD
ENDROOT
BRANCH   1   3
ATOM      3  C   UNL     1      44.747   3.981   9.383  0.00  0.00    +0.000 A 
ATOM      4  C   UNL     1      44.850   2.597   9.405  0.00  0.00    +0.000 A 
ATOM      5  N   UNL     1      45.695   1.862   8.643  0.00  0.00    +0.000 NA
ATOM      6  C   UNL     1      46.460   2.571   7.781  0.00  0.00    +0.000 A 
ATOM      7  N   UNL     1      46.433   3.907   7.629  0.00  0.00    +0.000 NA
ATOM      8  C   UNL     1      45.561   4.567   8.422  0.00  0.00    +0.000 A 
BRANCH   6   9
ATOM      9  C   UNL     1      47.411   1.778   6.910  0.00  0.00    +0.000 C 
ATOM     10  N   UNL     1      48.509   2.469   6.446  0.00  0.00    +0.000 N 
ATOM     11  O   UNL     1      47.254   0.598   6.620  0.00  0.00    +0.000 OA
ATOM     12  H   UNL     1      48.653   3.437   6.711  0.00  0.00    +0.000 HD
ATOM     13  H   UNL     1      49.192   1.980   5.887  0.00  0.00    +0.000 HD
ENDBRANCH   6   9
ENDBRANCH   1   3
BRANCH   1  14
ATOM     14  C   UNL     1      43.721   4.513  11.551  0.00  0.00    +0.000 C 
BRANCH  14  17
ATOM     15  C   UNL     1      46.883   4.148  13.619  0.00  0.00    +0.000 A 
ATOM     16  C   UNL     1      45.652   3.848  13.052  0.00  0.00    +0.000 A 
ATOM     17  C   UNL     1      45.040   4.799  12.226  0.00  0.00    +0.000 A 
ATOM     18  C   UNL     1      45.700   6.013  12.015  0.00  0.00    +0.000 A 
ATOM     19  C   UNL     1      46.931   6.217  12.620  0.00  0.00    +0.000 A 
ATOM     20  N   UNL     1      47.536   5.311  13.413  0.00  0.00    +0.000 NA
BRANCH  15  22
ATOM     21  C   UNL     1      47.508   3.582  15.800  0.00  0.00    +0.000 C 
ATOM     22  O   UNL     1      47.443   3.183  14.432  0.00  0.00    +0.000 OA
ENDBRANCH  15  22
ENDBRANCH  14  17
ENDBRANCH   1  14
TORSDOF 5
ENDMDL
MODEL 2
REMARK VINA RESULT:    -7.355      1.316      2.110
REMARK INTER + INTRA:          -9.931
REMARK INTER:                  -9.419
REMARK INTRA:                  -0.512
REMARK UNBOUND:                -0.426
REMARK  Name = 
REMARK  6 active torsions:
REMARK  status: ('A' for Active; 'I' for Inactive)
REMARK    1  A    between atoms: C_1  and  O_2
REMARK    2  A    between atoms: O_2  and  C_3
REMARK    3  A    between atoms: C_5  and  C_6
REMARK    4  A    between atoms: C_6  and  N_7
REMARK    5  A    between atoms: N_7  and  C_8
REMARK    6  A    between atoms: C_11  and  C_12
REMARK                            x       y       z     vdW  Elec       q    Type
REMARK                         _______ _______ _______ _____ _____    ______ ____
ROOT
ATOM      1  N   UNL     1      43.766   4.717  10.057  0.00  0.00    +0.000 N 
ATOM      2  H   UNL     1      43.829   5.715   9.863  0.00  0.00    +0.000 HD
ENDROOT
BRANCH   1   3
ATOM      3  C   UNL     1      44.701   3.970   9.336  0.00  0.00    +0.000 A 
ATOM      4  C   UNL     1      44.799   2.586   9.332  0.00  0.00    +0.000 A 
ATOM      5  N   UNL     1      45.662   1.863   8.579  0.00  0.00    +0.000 NA
ATOM      6  C   UNL     1      46.451   2.587   7.751  0.00  0.00    +0.000 A 
ATOM      7  N   UNL     1      46.432   3.926   7.625  0.00  0.00    +0.000 NA
ATOM      8  C   UNL     1      45.542   4.572   8.408  0.00  0.00    +0.000 A 
BRANCH   6   9
ATOM      9  C   UNL     1      47.423   1.808   6.890  0.00  0.00    +0.000 C 
ATOM     10  N   UNL     1      48.519   2.514   6.443  0.00  0.00    +0.000 N 
ATOM     11  O   UNL     1      47.283   0.628   6.592  0.00  0.00    +0.000 OA
ATOM     12  H   UNL     1      48.649   3.482   6.714  0.00  0.00    +0.000 HD
ATOM     13  H   UNL     1      49.215   2.034   5.891  0.00  0.00    +0.000 HD
ENDBRANCH   6   9
ENDBRANCH   1   3
BRANCH   1  14
ATOM     14  C   UNL     1      43.598   4.441  11.480  0.00  0.00    +0.000 C 
BRANCH  14  17
ATOM     15  C   UNL     1      46.367   6.481  13.084  0.00  0.00    +0.000 A 
ATOM     16  C   UNL     1      45.235   6.173  12.344  0.00  0.00    +0.000 A 
ATOM     17  C   UNL     1      44.842   4.833  12.239  0.00  0.00    +0.000 A 
ATOM     18  C   UNL     1      45.616   3.865  12.886  0.00  0.00    +0.000 A 
ATOM     19  C   UNL     1      46.726   4.273  13.609  0.00  0.00    +0.000 A 
ATOM     20  N   UNL     1      47.116   5.559  13.724  0.00  0.00    +0.000 NA
BRANCH  15  22
ATOM     21  C   UNL     1      45.635   8.690  12.852  0.00  0.00    +0.000 C 
ATOM     22  O   UNL     1      46.720   7.814  13.153  0.00  0.00    +0.000 OA
ENDBRANCH  15  22
ENDBRANCH  14  17
ENDBRANCH   1  14
TORSDOF 5
ENDMDL
MODEL 3
REMARK VINA RESULT:    -6.857      1.547      6.268
REMARK INTER + INTRA:          -9.288
REMARK INTER:                  -8.786
REMARK INTRA:                  -0.502
REMARK UNBOUND:                -0.426
REMARK  Name = 
REMARK  6 active torsions:
REMARK  status: ('A' for Active; 'I' for Inactive)
REMARK    1  A    between atoms: C_1  and  O_2
REMARK    2  A    between atoms: O_2  and  C_3
REMARK    3  A    between atoms: C_5  and  C_6
REMARK    4  A    between atoms: C_6  and  N_7
REMARK    5  A    between atoms: N_7  and  C_8
REMARK    6  A    between atoms: C_11  and  C_12
REMARK                            x       y       z     vdW  Elec       q    Type
REMARK                         _______ _______ _______ _____ _____    ______ ____
ROOT
ATOM      1  N   UNL     1      44.649   5.843  10.731  0.00  0.00    +0.000 N 
ATOM      2  H   UNL     1      44.058   6.656  10.893  0.00  0.00    +0.000 HD
ENDROOT
BRANCH   1   3
ATOM      3  C   UNL     1      45.425   5.513  11.845  0.00  0.00    +0.000 A 
ATOM      4  C   UNL     1      46.670   6.047  12.149  0.00  0.00    +0.000 A 
ATOM      5  N   UNL     1      47.388   5.776  13.265  0.00  0.00    +0.000 NA
ATOM      6  C   UNL     1      46.792   4.937  14.145  0.00  0.00    +0.000 A 
ATOM      7  N   UNL     1      45.577   4.382  13.995  0.00  0.00    +0.000 NA
ATOM      8  C   UNL     1      44.924   4.705  12.858  0.00  0.00    +0.000 A 
BRANCH   6   9
ATOM      9  C   UNL     1      47.566   4.619  15.406  0.00  0.00    +0.000 C 
ATOM     10  N   UNL     1      47.198   3.459  16.053  0.00  0.00    +0.000 N 
ATOM     11  O   UNL     1      48.469   5.316  15.852  0.00  0.00    +0.000 OA
ATOM     12  H   UNL     1      46.470   2.868  15.668  0.00  0.00    +0.000 HD
ATOM     13  H   UNL     1      47.703   3.183  16.882  0.00  0.00    +0.000 HD
ENDBRANCH   6   9
ENDBRANCH   1   3
BRANCH   1  14
ATOM     14  C   UNL     1      43.939   4.777  10.032  0.00  0.00    +0.000 C 
BRANCH  14  17
ATOM     15  C   UNL     1      45.789   1.920   8.351  0.00  0.00    +0.000 A 
ATOM     16  C   UNL     1      44.917   2.593   9.195  0.00  0.00    +0.000 A 
ATOM     17  C   UNL     1      44.894   3.993   9.165  0.00  0.00    +0.000 A 
ATOM     18  C   UNL     1      45.759   4.649   8.285  0.00  0.00    +0.000 A 
ATOM     19  C   UNL     1      46.589   3.888   7.475  0.00  0.00    +0.000 A 
ATOM     20  N   UNL     1      46.620   2.541   7.487  0.00  0.00    +0.000 NA
BRANCH  15  22
ATOM     21  C   UNL     1      46.816  -0.058   7.644  0.00  0.00    +0.000 C 
ATOM     22  O   UNL     1      45.781   0.542   8.421  0.00  0.00    +0.000 OA
ENDBRANCH  15  22
ENDBRANCH  14  17
ENDBRANCH   1  14
TORSDOF 5
ENDMDL
MODEL 4
REMARK VINA RESULT:    -6.672      1.816      6.715
REMARK INTER + INTRA:          -9.048
REMARK INTER:                  -8.763
REMARK INTRA:                  -0.286
REMARK UNBOUND:                -0.426
REMARK  Name = 
REMARK  6 active torsions:
REMARK  status: ('A' for Active; 'I' for Inactive)
REMARK    1  A    between atoms: C_1  and  O_2
REMARK    2  A    between atoms: O_2  and  C_3
REMARK    3  A    between atoms: C_5  and  C_6
REMARK    4  A    between atoms: C_6  and  N_7
REMARK    5  A    between atoms: N_7  and  C_8
REMARK    6  A    between atoms: C_11  and  C_12
REMARK                            x       y       z     vdW  Elec       q    Type
REMARK                         _______ _______ _______ _____ _____    ______ ____
ROOT
ATOM      1  N   UNL     1      46.028   6.223  11.531  0.00  0.00    +0.000 N 
ATOM      2  H   UNL     1      46.123   7.237  11.529  0.00  0.00    +0.000 HD
ENDROOT
BRANCH   1   3
ATOM      3  C   UNL     1      46.536   5.638  12.694  0.00  0.00    +0.000 A 
ATOM      4  C   UNL     1      47.572   6.146  13.466  0.00  0.00    +0.000 A 
ATOM      5  N   UNL     1      48.015   5.613  14.630  0.00  0.00    +0.000 NA
ATOM      6  C   UNL     1      47.345   4.517  15.055  0.00  0.00    +0.000 A 
ATOM      7  N   UNL     1      46.301   3.946  14.428  0.00  0.00    +0.000 NA
ATOM      8  C   UNL     1      45.918   4.540  13.277  0.00  0.00    +0.000 A 
BRANCH   6   9
ATOM      9  C   UNL     1      47.812   3.901  16.357  0.00  0.00    +0.000 C 
ATOM     10  N   UNL     1      46.817   3.406  17.172  0.00  0.00    +0.000 N 
ATOM     11  O   UNL     1      48.986   3.822  16.697  0.00  0.00    +0.000 OA
ATOM     12  H   UNL     1      45.848   3.446  16.877  0.00  0.00    +0.000 HD
ATOM     13  H   UNL     1      47.075   2.956  18.038  0.00  0.00    +0.000 HD
ENDBRANCH   6   9
ENDBRANCH   1   3
BRANCH   1  14
ATOM     14  C   UNL     1      44.721   5.792  11.045  0.00  0.00    +0.000 C 
BRANCH  14  17
ATOM     15  C   UNL     1      45.800   3.745   8.036  0.00  0.00    +0.000 A 
ATOM     16  C   UNL     1      45.658   4.823   8.898  0.00  0.00    +0.000 A 
ATOM     17  C   UNL     1      44.879   4.667  10.051  0.00  0.00    +0.000 A 
ATOM     18  C   UNL     1      44.274   3.427  10.276  0.00  0.00    +0.000 A 
ATOM     19  C   UNL     1      44.480   2.408   9.359  0.00  0.00    +0.000 A 
ATOM     20  N   UNL     1      45.231   2.539   8.247  0.00  0.00    +0.000 NA
BRANCH  15  22
ATOM     21  C   UNL     1      47.416   2.840   6.609  0.00  0.00    +0.000 C 
ATOM     22  O   UNL     1      46.571   3.948   6.909  0.00  0.00    +0.000 OA
ENDBRANCH  15  22
ENDBRANCH  14  17
ENDBRANCH   1  14
TORSDOF 5
ENDMDL
MODEL 5
REMARK VINA RESULT:    -6.651      1.753      6.082
REMARK INTER + INTRA:          -9.022
REMARK INTER:                  -8.569
REMARK INTRA:                  -0.452
REMARK UNBOUND:                -0.426
REMARK  Name = 
REMARK  6 active torsions:
REMARK  status: ('A' for Active; 'I' for Inactive)
REMARK    1  A    between atoms: C_1  and  O_2
REMARK    2  A    between atoms: O_2  and  C_3
REMARK    3  A    between atoms: C_5  and  C_6
REMARK    4  A    between atoms: C_6  and  N_7
REMARK    5  A    between atoms: N_7  and  C_8
REMARK    6  A    between atoms: C_11  and  C_12
REMARK                            x       y       z     vdW  Elec       q    Type
REMARK                         _______ _______ _______ _____ _____    ______ ____
ROOT
ATOM      1  N   UNL     1      44.058   3.271  12.621  0.00  0.00    +0.000 N 
ATOM      2  H   UNL     1      44.347   2.311  12.802  0.00  0.00    +0.000 HD
ENDROOT
BRANCH   1   3
ATOM      3  C   UNL     1      45.076   4.195  12.874  0.00  0.00    +0.000 A 
ATOM      4  C   UNL     1      44.919   5.572  12.937  0.00  0.00    +0.000 A 
ATOM      5  N   UNL     1      45.893   6.459  13.251  0.00  0.00    +0.000 NA
ATOM      6  C   UNL     1      47.095   5.913  13.552  0.00  0.00    +0.000 A 
ATOM      7  N   UNL     1      47.374   4.597  13.569  0.00  0.00    +0.000 NA
ATOM      8  C   UNL     1      46.348   3.780  13.249  0.00  0.00    +0.000 A 
BRANCH   6   9
ATOM      9  C   UNL     1      48.205   6.877  13.913  0.00  0.00    +0.000 C 
ATOM     10  N   UNL     1      47.930   8.210  13.694  0.00  0.00    +0.000 N 
ATOM     11  O   UNL     1      49.286   6.536  14.377  0.00  0.00    +0.000 OA
ATOM     12  H   UNL     1      47.024   8.492  13.337  0.00  0.00    +0.000 HD
ATOM     13  H   UNL     1      48.624   8.898  13.946  0.00  0.00    +0.000 HD
ENDBRANCH   6   9
ENDBRANCH   1   3
BRANCH   1  14
ATOM     14  C   UNL     1      43.294   3.393  11.384  0.00  0.00    +0.000 C 
BRANCH  14  17
ATOM     15  C   UNL     1      45.570   2.026   8.671  0.00  0.00    +0.000 A 
ATOM     16  C   UNL     1      44.761   2.067   9.798  0.00  0.00    +0.000 A 
ATOM     17  C   UNL     1      44.213   3.294  10.190  0.00  0.00    +0.000 A 
ATOM     18  C   UNL     1      44.512   4.426   9.426  0.00  0.00    +0.000 A 
ATOM     19  C   UNL     1      45.325   4.282   8.312  0.00  0.00    +0.000 A 
ATOM     20  N   UNL     1      45.857   3.108   7.917  0.00  0.00    +0.000 NA
BRANCH  15  22
ATOM     21  C   UNL     1      47.111   0.885   7.332  0.00  0.00    +0.000 C 
ATOM     22  O   UNL     1      46.093   0.796   8.327  0.00  0.00    +0.000 OA
ENDBRANCH  15  22
ENDBRANCH  14  17
ENDBRANCH   1  14
TORSDOF 5
ENDMDL
MODEL 6
REMARK VINA RESULT:    -6.210      2.275      6.436
REMARK INTER + INTRA:          -8.452
REMARK INTER:                  -8.107
REMARK INTRA:                  -0.345
REMARK UNBOUND:                -0.426
REMARK  Name = 
REMARK  6 active torsions:
REMARK  status: ('A' for Active; 'I' for Inactive)
REMARK    1  A    between atoms: C_1  and  O_2
REMARK    2  A    between atoms: O_2  and  C_3
REMARK    3  A    between atoms: C_5  and  C_6
REMARK    4  A    between atoms: C_6  and  N_7
REMARK    5  A    between atoms: N_7  and  C_8
REMARK    6  A    between atoms: C_11  and  C_12
REMARK                            x       y       z     vdW  Elec       q    Type
REMARK                         _______ _______ _______ _____ _____    ______ ____
ROOT
ATOM      1  N   UNL     1      44.611   3.379  11.266  0.00  0.00    +0.000 N 
ATOM      2  H   UNL     1      45.338   2.709  11.509  0.00  0.00    +0.000 HD
ENDROOT
BRANCH   1   3
ATOM      3  C   UNL     1      44.925   4.681  11.666  0.00  0.00    +0.000 A 
ATOM      4  C   UNL     1      44.101   5.789  11.527  0.00  0.00    +0.000 A 
ATOM      5  N   UNL     1      44.380   7.035  11.979  0.00  0.00    +0.000 NA
ATOM      6  C   UNL     1      45.552   7.158  12.644  0.00  0.00    +0.000 A 
ATOM      7  N   UNL     1      46.423   6.162  12.884  0.00  0.00    +0.000 NA
ATOM      8  C   UNL     1      46.070   4.951  12.405  0.00  0.00    +0.000 A 
BRANCH   6   9
ATOM      9  C   UNL     1      45.891   8.538  13.167  0.00  0.00    +0.000 C 
ATOM     10  N   UNL     1      44.985   9.530  12.860  0.00  0.00    +0.000 N 
ATOM     11  O   UNL     1      46.890   8.795  13.827  0.00  0.00    +0.000 OA
ATOM     12  H   UNL     1      44.144   9.310  12.338  0.00  0.00    +0.000 HD
ATOM     13  H   UNL     1      45.146  10.462  13.211  0.00  0.00    +0.000 HD
ENDBRANCH   6   9
ENDBRANCH   1   3
BRANCH   1  14
ATOM     14  C   UNL     1      44.095   3.167   9.918  0.00  0.00    +0.000 C 
BRANCH  14  17
ATOM     15  C   UNL     1      46.775   1.917   7.537  0.00  0.00    +0.000 A 
ATOM     16  C   UNL     1      45.756   1.902   8.479  0.00  0.00    +0.000 A 
ATOM     17  C   UNL     1      45.231   3.122   8.924  0.00  0.00    +0.000 A 
ATOM     18  C   UNL     1      45.765   4.302   8.398  0.00  0.00    +0.000 A 
ATOM     19  C   UNL     1      46.777   4.214   7.455  0.00  0.00    +0.000 A 
ATOM     20  N   UNL     1      47.291   3.049   7.013  0.00  0.00    +0.000 NA
BRANCH  15  22
ATOM     21  C   UNL     1      46.619  -0.403   7.780  0.00  0.00    +0.000 C 
ATOM     22  O   UNL     1      47.266   0.692   7.135  0.00  0.00    +0.000 OA
ENDBRANCH  15  22
ENDBRANCH  14  17
ENDBRANCH   1  14
TORSDOF 5
ENDMDL
MODEL 7
REMARK VINA RESULT:    -6.018      2.706      3.688
REMARK INTER + INTRA:          -8.204
REMARK INTER:                  -7.762
REMARK INTRA:                  -0.441
REMARK UNBOUND:                -0.426
REMARK  Name = 
REMARK  6 active torsions:
REMARK  status: ('A' for Active; 'I' for Inactive)
REMARK    1  A    between atoms: C_1  and  O_2
REMARK    2  A    between atoms: O_2  and  C_3
REMARK    3  A    between atoms: C_5  and  C_6
REMARK    4  A    between atoms: C_6  and  N_7
REMARK    5  A    between atoms: N_7  and  C_8
REMARK    6  A    between atoms: C_11  and  C_12
REMARK                            x       y       z     vdW  Elec       q    Type
REMARK                         _______ _______ _______ _____ _____    ______ ____
ROOT
ATOM      1  N   UNL     1      43.641   5.280  10.652  0.00  0.00    +0.000 N 
ATOM      2  H   UNL     1      43.479   6.168  10.181  0.00  0.00    +0.000 HD
ENDROOT
BRANCH   1   3
ATOM      3  C   UNL     1      44.353   4.374   9.861  0.00  0.00    +0.000 A 
ATOM      4  C   UNL     1      45.365   4.702   8.970  0.00  0.00    +0.000 A 
ATOM      5  N   UNL     1      46.099   3.815   8.257  0.00  0.00    +0.000 NA
ATOM      6  C   UNL     1      45.813   2.513   8.486  0.00  0.00    +0.000 A 
ATOM      7  N   UNL     1      44.887   2.056   9.349  0.00  0.00    +0.000 NA
ATOM      8  C   UNL     1      44.202   3.003  10.024  0.00  0.00    +0.000 A 
BRANCH   6   9
ATOM      9  C   UNL     1      46.620   1.495   7.709  0.00  0.00    +0.000 C 
ATOM     10  N   UNL     1      47.407   2.006   6.700  0.00  0.00    +0.000 N 
ATOM     11  O   UNL     1      46.607   0.291   7.934  0.00  0.00    +0.000 OA
ATOM     12  H   UNL     1      47.439   3.005   6.533  0.00  0.00    +0.000 HD
ATOM     13  H   UNL     1      47.990   1.374   6.170  0.00  0.00    +0.000 HD
ENDBRANCH   6   9
ENDBRANCH   1   3
BRANCH   1  14
ATOM     14  C   UNL     1      44.043   5.460  12.043  0.00  0.00    +0.000 C 
BRANCH  14  17
ATOM     15  C   UNL     1      45.269   9.042  11.772  0.00  0.00    +0.000 A 
ATOM     16  C   UNL     1      44.490   7.911  11.574  0.00  0.00    +0.000 A 
ATOM     17  C   UNL     1      44.873   6.713  12.190  0.00  0.00    +0.000 A 
ATOM     18  C   UNL     1      46.030   6.714  12.975  0.00  0.00    +0.000 A 
ATOM     19  C   UNL     1      46.737   7.897  13.118  0.00  0.00    +0.000 A 
ATOM     20  N   UNL     1      46.381   9.060  12.536  0.00  0.00    +0.000 NA
BRANCH  15  22
ATOM     21  C   UNL     1      43.441  10.371  11.170  0.00  0.00    +0.000 C 
ATOM     22  O   UNL     1      44.857  10.198  11.138  0.00  0.00    +0.000 OA
ENDBRANCH  15  22
ENDBRANCH  14  17
ENDBRANCH   1  14
TORSDOF 5
ENDMDL
MODEL 8
REMARK VINA RESULT:    -5.918      2.926      6.956
REMARK INTER + INTRA:          -8.075
REMARK INTER:                  -7.758
REMARK INTRA:                  -0.316
REMARK UNBOUND:                -0.426
REMARK  Name = 
REMARK  6 active torsions:
REMARK  status: ('A' for Active; 'I' for Inactive)
REMARK    1  A    between atoms: C_1  and  O_2
REMARK    2  A    between atoms: O_2  and  C_3
REMARK    3  A    between atoms: C_5  and  C_6
REMARK    4  A    between atoms: C_6  and  N_7
REMARK    5  A    between atoms: N_7  and  C_8
REMARK    6  A    between atoms: C_11  and  C_12
REMARK                            x       y       z     vdW  Elec       q    Type
REMARK                         _______ _______ _______ _____ _____    ______ ____
ROOT
ATOM      1  N   UNL     1      47.183   6.216  12.427  0.00  0.00    +0.000 N 
ATOM      2  H   UNL     1      48.005   6.750  12.150  0.00  0.00    +0.000 HD
ENDROOT
BRANCH   1   3
ATOM      3  C   UNL     1      47.305   5.667  13.706  0.00  0.00    +0.000 A 
ATOM      4  C   UNL     1      46.716   4.487  14.138  0.00  0.00    +0.000 A 
ATOM      5  N   UNL     1      46.894   3.923  15.357  0.00  0.00    +0.000 NA
ATOM      6  C   UNL     1      47.748   4.578  16.177  0.00  0.00    +0.000 A 
ATOM      7  N   UNL     1      48.415   5.706  15.872  0.00  0.00    +0.000 NA
ATOM      8  C   UNL     1      48.187   6.202  14.637  0.00  0.00    +0.000 A 
BRANCH   6   9
ATOM      9  C   UNL     1      47.973   3.970  17.545  0.00  0.00    +0.000 C 
ATOM     10  N   UNL     1      47.313   4.587  18.586  0.00  0.00    +0.000 N 
ATOM     11  O   UNL     1      48.682   2.993  17.754  0.00  0.00    +0.000 OA
ATOM     12  H   UNL     1      46.705   5.378  18.407  0.00  0.00    +0.000 HD
ATOM     13  H   UNL     1      47.403   4.203  19.515  0.00  0.00    +0.000 HD
ENDBRANCH   6   9
ENDBRANCH   1   3
BRANCH   1  14
ATOM     14  C   UNL     1      45.941   6.894  12.072  0.00  0.00    +0.000 C 
BRANCH  14  17
ATOM     15  C   UNL     1      44.144   3.997  10.404  0.00  0.00    +0.000 A 
ATOM     16  C   UNL     1      45.134   4.924  10.696  0.00  0.00    +0.000 A 
ATOM     17  C   UNL     1      44.887   5.886  11.684  0.00  0.00    +0.000 A 
ATOM     18  C   UNL     1      43.646   5.868  12.328  0.00  0.00    +0.000 A 
ATOM     19  C   UNL     1      42.724   4.896  11.970  0.00  0.00    +0.000 A 
ATOM     20  N   UNL     1      42.947   3.961  11.026  0.00  0.00    +0.000 NA
BRANCH  15  22
ATOM     21  C   UNL     1      44.813   3.680   8.186  0.00  0.00    +0.000 C 
ATOM     22  O   UNL     1      44.430   3.074   9.418  0.00  0.00    +0.000 OA
ENDBRANCH  15  22
ENDBRANCH  14  17
ENDBRANCH   1  14
TORSDOF 5
ENDMDL
MODEL 9
REMARK VINA RESULT:    -5.841      2.570      6.359
REMARK INTER + INTRA:          -7.975
REMARK INTER:                  -7.503
REMARK INTRA:                  -0.471
REMARK UNBOUND:                -0.426
REMARK  Name = 
REMARK  6 active torsions:
REMARK  status: ('A' for Active; 'I' for Inactive)
REMARK    1  A    between atoms: C_1  and  O_2
REMARK    2  A    between atoms: O_2  and  C_3
REMARK    3  A    between atoms: C_5  and  C_6
REMARK    4  A    between atoms: C_6  and  N_7
REMARK    5  A    between atoms: N_7  and  C_8
REMARK    6  A    between atoms: C_11  and  C_12
REMARK                            x       y       z     vdW  Elec       q    Type
REMARK                         _______ _______ _______ _____ _____    ______ ____
ROOT
ATOM      1  N   UNL     1      45.107   5.491  12.563  0.00  0.00    +0.000 N 
ATOM      2  H   UNL     1      45.135   4.530  12.898  0.00  0.00    +0.000 HD
ENDROOT
BRANCH   1   3
ATOM      3  C   UNL     1      46.372   6.082  12.520  0.00  0.00    +0.000 A 
ATOM      4  C   UNL     1      46.683   7.280  11.892  0.00  0.00    +0.000 A 
ATOM      5  N   UNL     1      47.895   7.884  11.912  0.00  0.00    +0.000 NA
ATOM      6  C   UNL     1      48.843   7.252  12.643  0.00  0.00    +0.000 A 
ATOM      7  N   UNL     1      48.667   6.110  13.332  0.00  0.00    +0.000 NA
ATOM      8  C   UNL     1      47.429   5.574  13.265  0.00  0.00    +0.000 A 
BRANCH   6   9
ATOM      9  C   UNL     1      50.208   7.904  12.691  0.00  0.00    +0.000 C 
ATOM     10  N   UNL     1      51.066   7.565  11.667  0.00  0.00    +0.000 N 
ATOM     11  O   UNL     1      50.563   8.690  13.561  0.00  0.00    +0.000 OA
ATOM     12  H   UNL     1      50.761   6.937  10.932  0.00  0.00    +0.000 HD
ATOM     13  H   UNL     1      51.978   7.996  11.634  0.00  0.00    +0.000 HD
ENDBRANCH   6   9
ENDBRANCH   1   3
BRANCH   1  14
ATOM     14  C   UNL     1      44.222   5.648  11.413  0.00  0.00    +0.000 C 
BRANCH  14  17
ATOM     15  C   UNL     1      45.617   3.958   8.314  0.00  0.00    +0.000 A 
ATOM     16  C   UNL     1      45.316   4.951   9.234  0.00  0.00    +0.000 A 
ATOM     17  C   UNL     1      44.548   4.619  10.358  0.00  0.00    +0.000 A 
ATOM     18  C   UNL     1      44.117   3.296  10.496  0.00  0.00    +0.000 A 
ATOM     19  C   UNL     1      44.476   2.373   9.525  0.00  0.00    +0.000 A 
ATOM     20  N   UNL     1      45.218   2.675   8.441  0.00  0.00    +0.000 NA
BRANCH  15  22
ATOM     21  C   UNL     1      46.673   3.242   6.354  0.00  0.00    +0.000 C 
ATOM     22  O   UNL     1      46.370   4.334   7.219  0.00  0.00    +0.000 OA
ENDBRANCH  15  22
ENDBRANCH  14  17
ENDBRANCH   1  14
TORSDOF 5
ENDMDL
