MODEL 1
REMARK VINA RESULT:    -6.717      0.000      0.000
REMARK INTER + INTRA:          -9.699
REMARK INTER:                  -9.073
REMARK INTRA:                  -0.626
REMARK UNBOUND:                -0.626
REMARK  Name = 
REMARK  9 active torsions:
REMARK  status: ('A' for Active; 'I' for Inactive)
REMARK    1  A    between atoms: C_1  and  C_2
REMARK    2  A    between atoms: C_2  and  N_3
REMARK    3  A    between atoms: N_3  and  C_4
REMARK    4  A    between atoms: C_7  and  C_8
REMARK    5  A    between atoms: C_12  and  N_13
REMARK    6  A    between atoms: N_13  and  C_14
REMARK    7  A    between atoms: C_14  and  C_15
REMARK    8  A    between atoms: C_14  and  C_16
REMARK    9  A    between atoms: C_14  and  C_17
REMARK                            x       y       z     vdW  Elec       q    Type
REMARK                         _______ _______ _______ _____ _____    ______ ____
ROOT
ATOM      1  C   UNL     1      45.240   7.985  11.966  0.00  0.00    +0.000 A 
ATOM      2  N   UNL     1      45.731   8.805  12.926  0.00  0.00    +0.000 NA
ATOM      3  C   UNL     1      46.941   8.509  13.458  0.00  0.00    +0.000 A 
ATOM      4  C   UNL     1      47.696   7.411  13.095  0.00  0.00    +0.000 A 
ATOM      5  C   UNL     1      47.151   6.549  12.142  0.00  0.00    +0.000 A 
ATOM      6  C   UNL     1      45.920   6.811  11.537  0.00  0.00    +0.000 A 
ENDROOT
BRANCH   4   7
ATOM      7  C   UNL     1      49.053   7.121  13.618  0.00  0.00    +0.000 C 
ATOM      8  N   UNL     1      50.145   7.444  12.862  0.00  0.00    +0.000 N 
ATOM      9  O   UNL     1      49.211   6.577  14.706  0.00  0.00    +0.000 OA
ATOM     10  H   UNL     1      50.134   7.891  11.961  0.00  0.00    +0.000 HD
ATOM     11  H   UNL     1      51.047   7.201  13.255  0.00  0.00    +0.000 HD
ENDBRANCH   4   7
BRANCH   1  12
ATOM     12  N   UNL     1      43.978   8.282  11.384  0.00  0.00    +0.000 N 
ATOM     13  H   UNL     1      43.796   7.567  10.685  0.00  0.00    +0.000 HD
BRANCH  12  15
ATOM     14  C   UNL     1      42.457  10.013  10.599  0.00  0.00    +0.000 C 
ATOM     15  C   UNL     1      43.912   9.616  10.791  0.00  0.00    +0.000 C 
ENDBRANCH  12  15
ENDBRANCH   1  12
BRANCH   6  16
ATOM     16  N   UNL     1      45.410   6.027  10.514  0.00  0.00    +0.000 N 
ATOM     17  H   UNL     1      45.660   6.310   9.566  0.00  0.00    +0.000 HD
BRANCH  16  18
ATOM     18  C   UNL     1      44.819   4.670  10.569  0.00  0.00    +0.000 C 
ATOM     19  C   UNL     1      45.199   3.920  11.859  0.00  0.00    +0.000 C 
ATOM     20  C   UNL     1      43.297   4.775  10.383  0.00  0.00    +0.000 C 
BRANCH  18  21
ATOM     21  C   UNL     1      45.371   3.821   9.386  0.00  0.00    +0.000 A 
ATOM     22  N   UNL     1      45.883   4.481   8.320  0.00  0.00    +0.000 NA
ATOM     23  C   UNL     1      46.356   3.719   7.312  0.00  0.00    +0.000 A 
ATOM     24  C   UNL     1      46.337   2.344   7.324  0.00  0.00    +0.000 A 
ATOM     25  C   UNL     1      45.802   1.769   8.448  0.00  0.00    +0.000 A 
ATOM     26  N   UNL     1      45.319   2.476   9.485  0.00  0.00    +0.000 NA
ENDBRANCH  18  21
ENDBRANCH  16  18
ENDBRANCH   6  16
TORSDOF 6
ENDMDL
MODEL 2
REMARK VINA RESULT:    -6.426      3.084      7.225
REMARK INTER + INTRA:          -9.306
REMARK INTER:                  -8.202
REMARK INTRA:                  -1.104
REMARK UNBOUND:                -0.626
REMARK  Name = 
REMARK  9 active torsions:
REMARK  status: ('A' for Active; 'I' for Inactive)
REMARK    1  A    between atoms: C_1  and  C_2
REMARK    2  A    between atoms: C_2  and  N_3
REMARK    3  A    between atoms: N_3  and  C_4
REMARK    4  A    between atoms: C_7  and  C_8
REMARK    5  A    between atoms: C_12  and  N_13
REMARK    6  A    between atoms: N_13  and  C_14
REMARK    7  A    between atoms: C_14  and  C_15
REMARK    8  A    between atoms: C_14  and  C_16
REMARK    9  A    between atoms: C_14  and  C_17
REMARK                            x       y       z     vdW  Elec       q    Type
REMARK                         _______ _______ _______ _____ _____    ______ ____
ROOT
ATOM      1  C   UNL     1      46.097   4.756  13.657  0.00  0.00    +0.000 A 
ATOM      2  N   UNL     1      45.667   3.610  13.076  0.00  0.00    +0.000 NA
ATOM      3  C   UNL     1      45.336   3.648  11.764  0.00  0.00    +0.000 A 
ATOM      4  C   UNL     1      45.391   4.787  10.986  0.00  0.00    +0.000 A 
ATOM      5  C   UNL     1      45.787   5.970  11.613  0.00  0.00    +0.000 A 
ATOM      6  C   UNL     1      46.166   5.994  12.958  0.00  0.00    +0.000 A 
ENDROOT
BRANCH   4   7
ATOM      7  C   UNL     1      45.103   4.820   9.532  0.00  0.00    +0.000 C 
ATOM      8  N   UNL     1      43.881   4.409   9.080  0.00  0.00    +0.000 N 
ATOM      9  O   UNL     1      45.952   5.189   8.725  0.00  0.00    +0.000 OA
ATOM     10  H   UNL     1      43.114   4.089   9.648  0.00  0.00    +0.000 HD
ATOM     11  H   UNL     1      43.746   4.428   8.077  0.00  0.00    +0.000 HD
ENDBRANCH   4   7
BRANCH   1  12
ATOM     12  N   UNL     1      46.461   4.739  15.031  0.00  0.00    +0.000 N 
ATOM     13  H   UNL     1      46.907   5.630  15.233  0.00  0.00    +0.000 HD
BRANCH  12  15
ATOM     14  C   UNL     1      47.450   3.528  16.897  0.00  0.00    +0.000 C 
ATOM     15  C   UNL     1      47.341   3.628  15.384  0.00  0.00    +0.000 C 
ENDBRANCH  12  15
ENDBRANCH   1  12
BRANCH   6  16
ATOM     16  N   UNL     1      46.662   7.132  13.572  0.00  0.00    +0.000 N 
ATOM     17  H   UNL     1      46.076   7.538  14.302  0.00  0.00    +0.000 HD
BRANCH  16  18
ATOM     18  C   UNL     1      48.036   7.685  13.568  0.00  0.00    +0.000 C 
ATOM     19  C   UNL     1      48.985   6.883  12.659  0.00  0.00    +0.000 C 
ATOM     20  C   UNL     1      47.980   9.172  13.182  0.00  0.00    +0.000 C 
BRANCH  18  21
ATOM     21  C   UNL     1      48.627   7.603  15.005  0.00  0.00    +0.000 A 
ATOM     22  N   UNL     1      49.254   6.458  15.367  0.00  0.00    +0.000 NA
ATOM     23  C   UNL     1      49.758   6.417  16.617  0.00  0.00    +0.000 A 
ATOM     24  C   UNL     1      49.663   7.458  17.510  0.00  0.00    +0.000 A 
ATOM     25  C   UNL     1      49.015   8.577  17.050  0.00  0.00    +0.000 A 
ATOM     26  N   UNL     1      48.495   8.676  15.814  0.00  0.00    +0.000 NA
ENDBRANCH  18  21
ENDBRANCH  16  18
ENDBRANCH   6  16
TORSDOF 6
ENDMDL
MODEL 3
REMARK VINA RESULT:    -6.407      2.989      6.732
REMARK INTER + INTRA:          -9.281
REMARK INTER:                  -8.494
REMARK INTRA:                  -0.786
REMARK UNBOUND:                -0.626
REMARK  Name = 
REMARK  9 active torsions:
REMARK  status: ('A' for Active; 'I' for Inactive)
REMARK    1  A    between atoms: C_1  and  C_2
REMARK    2  A    between atoms: C_2  and  N_3
REMARK    3  A    between atoms: N_3  and  C_4
REMARK    4  A    between atoms: C_7  and  C_8
REMARK    5  A    between atoms: C_12  and  N_13
REMARK    6  A    between atoms: N_13  and  C_14
REMARK    7  A    between atoms: C_14  and  C_15
REMARK    8  A    between atoms: C_14  and  C_16
REMARK    9  A    between atoms: C_14  and  C_17
REMARK                            x       y       z     vdW  Elec       q    Type
REMARK                         _______ _______ _______ _____ _____    ______ ____
ROOT
ATOM      1  C   UNL     1      46.472   4.769  13.913  0.00  0.00    +0.000 A 
ATOM      2  N   UNL     1      46.296   3.464  13.592  0.00  0.00    +0.000 NA
ATOM      3  C   UNL     1      45.560   3.172  12.494  0.00  0.00    +0.000 A 
ATOM      4  C   UNL     1      44.962   4.123  11.690  0.00  0.00    +0.000 A 
ATOM      5  C   UNL     1      45.111   5.460  12.064  0.00  0.00    +0.000 A 
ATOM      6  C   UNL     1      45.877   5.829  13.172  0.00  0.00    +0.000 A 
ENDROOT
BRANCH   4   7
ATOM      7  C   UNL     1      44.219   3.815  10.444  0.00  0.00    +0.000 C 
ATOM      8  N   UNL     1      44.066   4.788   9.497  0.00  0.00    +0.000 N 
ATOM      9  O   UNL     1      43.721   2.709  10.259  0.00  0.00    +0.000 OA
ATOM     10  H   UNL     1      44.430   5.725   9.543  0.00  0.00    +0.000 HD
ATOM     11  H   UNL     1      43.529   4.533   8.677  0.00  0.00    +0.000 HD
ENDBRANCH   4   7
BRANCH   1  12
ATOM     12  N   UNL     1      47.249   5.100  15.055  0.00  0.00    +0.000 N 
ATOM     13  H   UNL     1      48.135   5.466  14.716  0.00  0.00    +0.000 HD
BRANCH  12  15
ATOM     14  C   UNL     1      47.172   4.401  17.385  0.00  0.00    +0.000 C 
ATOM     15  C   UNL     1      47.466   3.972  15.957  0.00  0.00    +0.000 C 
ENDBRANCH  12  15
ENDBRANCH   1  12
BRANCH   6  16
ATOM     16  N   UNL     1      46.125   7.152  13.499  0.00  0.00    +0.000 N 
ATOM     17  H   UNL     1      45.687   7.491  14.356  0.00  0.00    +0.000 HD
BRANCH  16  18
ATOM     18  C   UNL     1      47.165   8.074  12.985  0.00  0.00    +0.000 C 
ATOM     19  C   UNL     1      48.085   8.596  14.105  0.00  0.00    +0.000 C 
ATOM     20  C   UNL     1      47.950   7.374  11.865  0.00  0.00    +0.000 C 
BRANCH  18  21
ATOM     21  C   UNL     1      46.480   9.323  12.358  0.00  0.00    +0.000 A 
ATOM     22  N   UNL     1      45.126   9.340  12.302  0.00  0.00    +0.000 NA
ATOM     23  C   UNL     1      44.561  10.436  11.755  0.00  0.00    +0.000 A 
ATOM     24  C   UNL     1      45.282  11.501  11.268  0.00  0.00    +0.000 A 
ATOM     25  C   UNL     1      46.645  11.392  11.374  0.00  0.00    +0.000 A 
ATOM     26  N   UNL     1      47.264  10.326  11.911  0.00  0.00    +0.000 NA
ENDBRANCH  18  21
ENDBRANCH  16  18
ENDBRANCH   6  16
TORSDOF 6
ENDMDL
MODEL 4
REMARK VINA RESULT:    -6.338      2.951      3.890
REMARK INTER + INTRA:          -9.187
REMARK INTER:                  -8.513
REMARK INTRA:                  -0.674
REMARK UNBOUND:                -0.626
REMARK  Name = 
REMARK  9 active torsions:
REMARK  status: ('A' for Active; 'I' for Inactive)
REMARK    1  A    between atoms: C_1  and  C_2
REMARK    2  A    between atoms: C_2  and  N_3
REMARK    3  A    between atoms: N_3  and  C_4
REMARK    4  A    between atoms: C_7  and  C_8
REMARK    5  A    between atoms: C_12  and  N_13
REMARK    6  A    between atoms: N_13  and  C_14
REMARK    7  A    between atoms: C_14  and  C_15
REMARK    8  A    between atoms: C_14  and  C_16
REMARK    9  A    between atoms: C_14  and  C_17
REMARK                            x       y       z     vdW  Elec       q    Type
REMARK                         _______ _______ _______ _____ _____    ______ ____
ROOT
ATOM      1  C   UNL     1      48.163   6.145  13.994  0.00  0.00    +0.000 A 
ATOM      2  N   UNL     1      48.783   6.467  15.155  0.00  0.00    +0.000 NA
ATOM      3  C   UNL     1      48.496   5.732  16.255  0.00  0.00    +0.000 A 
ATOM      4  C   UNL     1      47.596   4.684  16.270  0.00  0.00    +0.000 A 
ATOM      5  C   UNL     1      46.928   4.399  15.077  0.00  0.00    +0.000 A 
ATOM      6  C   UNL     1      47.197   5.104  13.902  0.00  0.00    +0.000 A 
ENDROOT
BRANCH   4   7
ATOM      7  C   UNL     1      47.333   3.826  17.450  0.00  0.00    +0.000 C 
ATOM      8  N   UNL     1      48.049   4.024  18.596  0.00  0.00    +0.000 N 
ATOM      9  O   UNL     1      46.498   2.927  17.407  0.00  0.00    +0.000 OA
ATOM     10  H   UNL     1      48.753   4.728  18.744  0.00  0.00    +0.000 HD
ATOM     11  H   UNL     1      47.848   3.394  19.363  0.00  0.00    +0.000 HD
ENDBRANCH   4   7
BRANCH   1  12
ATOM     12  N   UNL     1      48.457   6.896  12.824  0.00  0.00    +0.000 N 
ATOM     13  H   UNL     1      49.420   6.690  12.571  0.00  0.00    +0.000 HD
BRANCH  12  15
ATOM     14  C   UNL     1      48.778   9.063  11.763  0.00  0.00    +0.000 C 
ATOM     15  C   UNL     1      48.261   8.334  12.992  0.00  0.00    +0.000 C 
ENDBRANCH  12  15
ENDBRANCH   1  12
BRANCH   6  16
ATOM     16  N   UNL     1      46.625   4.770  12.685  0.00  0.00    +0.000 N 
ATOM     17  H   UNL     1      47.106   4.047  12.148  0.00  0.00    +0.000 HD
BRANCH  16  18
ATOM     18  C   UNL     1      45.267   5.059  12.167  0.00  0.00    +0.000 C 
ATOM     19  C   UNL     1      44.163   4.529  13.101  0.00  0.00    +0.000 C 
ATOM     20  C   UNL     1      45.137   6.568  11.910  0.00  0.00    +0.000 C 
BRANCH  18  21
ATOM     21  C   UNL     1      45.074   4.339  10.802  0.00  0.00    +0.000 A 
ATOM     22  N   UNL     1      45.454   4.997   9.680  0.00  0.00    +0.000 NA
ATOM     23  C   UNL     1      45.277   4.347   8.512  0.00  0.00    +0.000 A 
ATOM     24  C   UNL     1      44.742   3.084   8.417  0.00  0.00    +0.000 A 
ATOM     25  C   UNL     1      44.392   2.498   9.607  0.00  0.00    +0.000 A 
ATOM     26  N   UNL     1      44.547   3.096  10.802  0.00  0.00    +0.000 NA
ENDBRANCH  18  21
ENDBRANCH  16  18
ENDBRANCH   6  16
TORSDOF 6
ENDMDL
MODEL 5
REMARK VINA RESULT:    -6.201      2.720      4.329
REMARK INTER + INTRA:          -9.002
REMARK INTER:                  -8.450
REMARK INTRA:                  -0.552
REMARK UNBOUND:                -0.626
REMARK  Name = 
REMARK  9 active torsions:
REMARK  status: ('A' for Active; 'I' for Inactive)
REMARK    1  A    between atoms: C_1  and  C_2
REMARK    2  A    between atoms: C_2  and  N_3
REMARK    3  A    between atoms: N_3  and  C_4
REMARK    4  A    between atoms: C_7  and  C_8
REMARK    5  A    between atoms: C_12  and  N_13
REMARK    6  A    between atoms: N_13  and  C_14
REMARK    7  A    between atoms: C_14  and  C_15
REMARK    8  A    between atoms: C_14  and  C_16
REMARK    9  A    between atoms: C_14  and  C_17
REMARK                            x       y       z     vdW  Elec       q    Type
REMARK                         _______ _______ _______ _____ _____    ______ ____
ROOT
ATOM      1  C   UNL     1      47.386   5.080  15.037  0.00  0.00    +0.000 A 
ATOM      2  N   UNL     1      48.361   5.905  15.489  0.00  0.00    +0.000 NA
ATOM      3  C   UNL     1      48.937   6.754  14.604  0.00  0.00    +0.000 A 
ATOM      4  C   UNL     1      48.605   6.815  13.265  0.00  0.00    +0.000 A 
ATOM      5  C   UNL     1      47.635   5.922  12.806  0.00  0.00    +0.000 A 
ATOM      6  C   UNL     1      46.986   5.039  13.672  0.00  0.00    +0.000 A 
ENDROOT
BRANCH   4   7
ATOM      7  C   UNL     1      49.177   7.792  12.307  0.00  0.00    +0.000 C 
ATOM      8  N   UNL     1      48.618   9.034  12.203  0.00  0.00    +0.000 N 
ATOM      9  O   UNL     1      50.128   7.496  11.590  0.00  0.00    +0.000 OA
ATOM     10  H   UNL     1      47.841   9.384  12.737  0.00  0.00    +0.000 HD
ATOM     11  H   UNL     1      49.031   9.653  11.515  0.00  0.00    +0.000 HD
ENDBRANCH   4   7
BRANCH   1  12
ATOM     12  N   UNL     1      46.759   4.189  15.949  0.00  0.00    +0.000 N 
ATOM     13  H   UNL     1      45.925   4.655  16.295  0.00  0.00    +0.000 HD
BRANCH  12  15
ATOM     14  C   UNL     1      48.423   2.557  16.651  0.00  0.00    +0.000 C 
ATOM     15  C   UNL     1      47.625   3.786  17.055  0.00  0.00    +0.000 C 
ENDBRANCH  12  15
ENDBRANCH   1  12
BRANCH   6  16
ATOM     16  N   UNL     1      45.948   4.219  13.259  0.00  0.00    +0.000 N 
ATOM     17  H   UNL     1      45.913   3.292  13.685  0.00  0.00    +0.000 HD
BRANCH  16  18
ATOM     18  C   UNL     1      44.701   4.563  12.536  0.00  0.00    +0.000 C 
ATOM     19  C   UNL     1      43.483   3.790  13.074  0.00  0.00    +0.000 C 
ATOM     20  C   UNL     1      44.494   6.085  12.586  0.00  0.00    +0.000 C 
BRANCH  18  21
ATOM     21  C   UNL     1      44.850   4.167  11.039  0.00  0.00    +0.000 A 
ATOM     22  N   UNL     1      44.463   2.921  10.673  0.00  0.00    +0.000 NA
ATOM     23  C   UNL     1      44.601   2.607   9.368  0.00  0.00    +0.000 A 
ATOM     24  C   UNL     1      45.104   3.473   8.426  0.00  0.00    +0.000 A 
ATOM     25  C   UNL     1      45.465   4.711   8.892  0.00  0.00    +0.000 A 
ATOM     26  N   UNL     1      45.348   5.082  10.180  0.00  0.00    +0.000 NA
ENDBRANCH  18  21
ENDBRANCH  16  18
ENDBRANCH   6  16
TORSDOF 6
ENDMDL
MODEL 6
REMARK VINA RESULT:    -6.105      2.662      6.471
REMARK INTER + INTRA:          -8.873
REMARK INTER:                  -8.759
REMARK INTRA:                  -0.114
REMARK UNBOUND:                -0.626
REMARK  Name = 
REMARK  9 active torsions:
REMARK  status: ('A' for Active; 'I' for Inactive)
REMARK    1  A    between atoms: C_1  and  C_2
REMARK    2  A    between atoms: C_2  and  N_3
REMARK    3  A    between atoms: N_3  and  C_4
REMARK    4  A    between atoms: C_7  and  C_8
REMARK    5  A    between atoms: C_12  and  N_13
REMARK    6  A    between atoms: N_13  and  C_14
REMARK    7  A    between atoms: C_14  and  C_15
REMARK    8  A    between atoms: C_14  and  C_16
REMARK    9  A    between atoms: C_14  and  C_17
REMARK                            x       y       z     vdW  Elec       q    Type
REMARK                         _______ _______ _______ _____ _____    ______ ____
ROOT
ATOM      1  C   UNL     1      43.928   3.522  10.359  0.00  0.00    +0.000 A 
ATOM      2  N   UNL     1      44.175   2.317   9.790  0.00  0.00    +0.000 NA
ATOM      3  C   UNL     1      45.033   2.271   8.744  0.00  0.00    +0.000 A 
ATOM      4  C   UNL     1      45.658   3.380   8.208  0.00  0.00    +0.000 A 
ATOM      5  C   UNL     1      45.352   4.620   8.773  0.00  0.00    +0.000 A 
ATOM      6  C   UNL     1      44.495   4.733   9.869  0.00  0.00    +0.000 A 
ENDROOT
BRANCH   4   7
ATOM      7  C   UNL     1      46.656   3.328   7.113  0.00  0.00    +0.000 C 
ATOM      8  N   UNL     1      47.561   2.305   7.078  0.00  0.00    +0.000 N 
ATOM      9  O   UNL     1      46.697   4.200   6.250  0.00  0.00    +0.000 OA
ATOM     10  H   UNL     1      47.620   1.540   7.729  0.00  0.00    +0.000 HD
ATOM     11  H   UNL     1      48.236   2.332   6.323  0.00  0.00    +0.000 HD
ENDBRANCH   4   7
BRANCH   1  12
ATOM     12  N   UNL     1      43.040   3.594  11.465  0.00  0.00    +0.000 N 
ATOM     13  H   UNL     1      42.877   4.580  11.653  0.00  0.00    +0.000 HD
BRANCH  12  15
ATOM     14  C   UNL     1      45.059   3.010  12.694  0.00  0.00    +0.000 C 
ATOM     15  C   UNL     1      43.542   2.915  12.658  0.00  0.00    +0.000 C 
ENDBRANCH  12  15
ENDBRANCH   1  12
BRANCH   6  16
ATOM     16  N   UNL     1      44.260   5.938  10.511  0.00  0.00    +0.000 N 
ATOM     17  H   UNL     1      43.312   6.308  10.437  0.00  0.00    +0.000 HD
BRANCH  16  18
ATOM     18  C   UNL     1      45.065   6.631  11.544  0.00  0.00    +0.000 C 
ATOM     19  C   UNL     1      44.657   6.222  12.972  0.00  0.00    +0.000 C 
ATOM     20  C   UNL     1      46.557   6.382  11.272  0.00  0.00    +0.000 C 
BRANCH  18  21
ATOM     21  C   UNL     1      44.826   8.165  11.439  0.00  0.00    +0.000 A 
ATOM     22  N   UNL     1      43.669   8.587  10.875  0.00  0.00    +0.000 NA
ATOM     23  C   UNL     1      43.489   9.922  10.799  0.00  0.00    +0.000 A 
ATOM     24  C   UNL     1      44.404  10.840  11.256  0.00  0.00    +0.000 A 
ATOM     25  C   UNL     1      45.542  10.316  11.815  0.00  0.00    +0.000 A 
ATOM     26  N   UNL     1      45.776   8.996  11.920  0.00  0.00    +0.000 NA
ENDBRANCH  18  21
ENDBRANCH  16  18
ENDBRANCH   6  16
TORSDOF 6
ENDMDL
MODEL 7
REMARK VINA RESULT:    -5.696      2.907      6.463
REMARK INTER + INTRA:          -8.320
REMARK INTER:                  -7.265
REMARK INTRA:                  -1.055
REMARK UNBOUND:                -0.626
REMARK  Name = 
REMARK  9 active torsions:
REMARK  status: ('A' for Active; 'I' for Inactive)
REMARK    1  A    between atoms: C_1  and  C_2
REMARK    2  A    between atoms: C_2  and  N_3
REMARK    3  A    between atoms: N_3  and  C_4
REMARK    4  A    between atoms: C_7  and  C_8
REMARK    5  A    between atoms: C_12  and  N_13
REMARK    6  A    between atoms: N_13  and  C_14
REMARK    7  A    between atoms: C_14  and  C_15
REMARK    8  A    between atoms: C_14  and  C_16
REMARK    9  A    between atoms: C_14  and  C_17
REMARK                            x       y       z     vdW  Elec       q    Type
REMARK                         _______ _______ _______ _____ _____    ______ ____
ROOT
ATOM      1  C   UNL     1      45.695   7.856  12.564  0.00  0.00    +0.000 A 
ATOM      2  N   UNL     1      44.859   7.544  11.544  0.00  0.00    +0.000 NA
ATOM      3  C   UNL     1      44.727   6.239  11.207  0.00  0.00    +0.000 A 
ATOM      4  C   UNL     1      45.408   5.209  11.825  0.00  0.00    +0.000 A 
ATOM      5  C   UNL     1      46.304   5.554  12.839  0.00  0.00    +0.000 A 
ATOM      6  C   UNL     1      46.467   6.878  13.251  0.00  0.00    +0.000 A 
ENDROOT
BRANCH   4   7
ATOM      7  C   UNL     1      45.212   3.773  11.513  0.00  0.00    +0.000 C 
ATOM      8  N   UNL     1      45.404   2.841  12.493  0.00  0.00    +0.000 N 
ATOM      9  O   UNL     1      44.903   3.406  10.383  0.00  0.00    +0.000 OA
ATOM     10  H   UNL     1      45.657   3.027  13.449  0.00  0.00    +0.000 HD
ATOM     11  H   UNL     1      45.283   1.873  12.220  0.00  0.00    +0.000 HD
ENDBRANCH   4   7
BRANCH   1  12
ATOM     12  N   UNL     1      45.841   9.218  12.944  0.00  0.00    +0.000 N 
ATOM     13  H   UNL     1      44.993   9.482  13.437  0.00  0.00    +0.000 HD
BRANCH  12  15
ATOM     14  C   UNL     1      47.576  10.381  11.693  0.00  0.00    +0.000 C 
ATOM     15  C   UNL     1      46.084  10.113  11.815  0.00  0.00    +0.000 C 
ENDBRANCH  12  15
ENDBRANCH   1  12
BRANCH   6  16
ATOM     16  N   UNL     1      47.270   7.231  14.324  0.00  0.00    +0.000 N 
ATOM     17  H   UNL     1      46.879   7.063  15.251  0.00  0.00    +0.000 HD
BRANCH  16  18
ATOM     18  C   UNL     1      48.723   7.524  14.361  0.00  0.00    +0.000 C 
ATOM     19  C   UNL     1      49.422   7.174  13.034  0.00  0.00    +0.000 C 
ATOM     20  C   UNL     1      48.930   8.993  14.759  0.00  0.00    +0.000 C 
BRANCH  18  21
ATOM     21  C   UNL     1      49.395   6.649  15.458  0.00  0.00    +0.000 A 
ATOM     22  N   UNL     1      48.633   5.714  16.077  0.00  0.00    +0.000 NA
ATOM     23  C   UNL     1      49.244   4.970  17.021  0.00  0.00    +0.000 A 
ATOM     24  C   UNL     1      50.566   5.118  17.370  0.00  0.00    +0.000 A 
ATOM     25  C   UNL     1      51.255   6.086  16.685  0.00  0.00    +0.000 A 
ATOM     26  N   UNL     1      50.700   6.857  15.733  0.00  0.00    +0.000 NA
ENDBRANCH  18  21
ENDBRANCH  16  18
ENDBRANCH   6  16
TORSDOF 6
ENDMDL
MODEL 8
REMARK VINA RESULT:    -5.487      2.784      5.281
REMARK INTER + INTRA:          -8.038
REMARK INTER:                  -7.867
REMARK INTRA:                  -0.171
REMARK UNBOUND:                -0.626
REMARK  Name = 
REMARK  9 active torsions:
REMARK  status: ('A' for Active; 'I' for Inactive)
REMARK    1  A    between atoms: C_1  and  C_2
REMARK    2  A    between atoms: C_2  and  N_3
REMARK    3  A    between atoms: N_3  and  C_4
REMARK    4  A    between atoms: C_7  and  C_8
REMARK    5  A    between atoms: C_12  and  N_13
REMARK    6  A    between atoms: N_13  and  C_14
REMARK    7  A    between atoms: C_14  and  C_15
REMARK    8  A    between atoms: C_14  and  C_16
REMARK    9  A    between atoms: C_14  and  C_17
REMARK                            x       y       z     vdW  Elec       q    Type
REMARK                         _______ _______ _______ _____ _____    ______ ____
ROOT
ATOM      1  C   UNL     1      48.489   5.930  15.748  0.00  0.00    +0.000 A 
ATOM      2  N   UNL     1      49.693   6.128  16.338  0.00  0.00    +0.000 NA
ATOM      3  C   UNL     1      50.574   6.953  15.725  0.00  0.00    +0.000 A 
ATOM      4  C   UNL     1      50.329   7.591  14.525  0.00  0.00    +0.000 A 
ATOM      5  C   UNL     1      49.104   7.336  13.906  0.00  0.00    +0.000 A 
ATOM      6  C   UNL     1      48.141   6.514  14.498  0.00  0.00    +0.000 A 
ENDROOT
BRANCH   4   7
ATOM      7  C   UNL     1      51.257   8.554  13.885  0.00  0.00    +0.000 C 
ATOM      8  N   UNL     1      52.224   8.091  13.038  0.00  0.00    +0.000 N 
ATOM      9  O   UNL     1      51.186   9.756  14.121  0.00  0.00    +0.000 OA
ATOM     10  H   UNL     1      52.374   7.133  12.773  0.00  0.00    +0.000 HD
ATOM     11  H   UNL     1      52.848   8.789  12.649  0.00  0.00    +0.000 HD
ENDBRANCH   4   7
BRANCH   1  12
ATOM     12  N   UNL     1      47.544   5.078  16.379  0.00  0.00    +0.000 N 
ATOM     13  H   UNL     1      47.436   5.407  17.335  0.00  0.00    +0.000 HD
BRANCH  12  15
ATOM     14  C   UNL     1      47.325   2.959  17.558  0.00  0.00    +0.000 C 
ATOM     15  C   UNL     1      47.926   3.668  16.355  0.00  0.00    +0.000 C 
ENDBRANCH  12  15
ENDBRANCH   1  12
BRANCH   6  16
ATOM     16  N   UNL     1      46.881   6.332  13.954  0.00  0.00    +0.000 N 
ATOM     17  H   UNL     1      46.181   5.921  14.573  0.00  0.00    +0.000 HD
BRANCH  16  18
ATOM     18  C   UNL     1      46.288   6.912  12.726  0.00  0.00    +0.000 C 
ATOM     19  C   UNL     1      45.770   8.345  12.949  0.00  0.00    +0.000 C 
ATOM     20  C   UNL     1      47.316   6.836  11.586  0.00  0.00    +0.000 C 
BRANCH  18  21
ATOM     21  C   UNL     1      45.059   6.060  12.297  0.00  0.00    +0.000 A 
ATOM     22  N   UNL     1      44.152   5.732  13.249  0.00  0.00    +0.000 NA
ATOM     23  C   UNL     1      43.097   4.996  12.847  0.00  0.00    +0.000 A 
ATOM     24  C   UNL     1      42.910   4.577  11.551  0.00  0.00    +0.000 A 
ATOM     25  C   UNL     1      43.878   4.962  10.659  0.00  0.00    +0.000 A 
ATOM     26  N   UNL     1      44.951   5.698  11.000  0.00  0.00    +0.000 NA
ENDBRANCH  18  21
ENDBRANCH  16  18
ENDBRANCH   6  16
TORSDOF 6
ENDMDL
MODEL 9
REMARK VINA RESULT:    -5.443      2.658      5.925
REMARK INTER + INTRA:          -7.978
REMARK INTER:                  -7.079
REMARK INTRA:                  -0.899
REMARK UNBOUND:                -0.626
REMARK  Name = 
REMARK  9 active torsions:
REMARK  status: ('A' for Active; 'I' for Inactive)
REMARK    1  A    between atoms: C_1  and  C_2
REMARK    2  A    between atoms: C_2  and  N_3
REMARK    3  A    between atoms: N_3  and  C_4
REMARK    4  A    between atoms: C_7  and  C_8
REMARK    5  A    between atoms: C_12  and  N_13
REMARK    6  A    between atoms: N_13  and  C_14
REMARK    7  A    between atoms: C_14  and  C_15
REMARK    8  A    between atoms: C_14  and  C_16
REMARK    9  A    between atoms: C_14  and  C_17
REMARK                            x       y       z     vdW  Elec       q    Type
REMARK                         _______ _______ _______ _____ _____    ______ ____
ROOT
ATOM      1  C   UNL     1      44.025   5.315  10.275  0.00  0.00    +0.000 A 
ATOM      2  N   UNL     1      43.543   4.192   9.688  0.00  0.00    +0.000 NA
ATOM      3  C   UNL     1      44.359   3.512   8.850  0.00  0.00    +0.000 A 
ATOM      4  C   UNL     1      45.648   3.902   8.541  0.00  0.00    +0.000 A 
ATOM      5  C   UNL     1      46.110   5.088   9.114  0.00  0.00    +0.000 A 
ATOM      6  C   UNL     1      45.326   5.824  10.006  0.00  0.00    +0.000 A 
ENDROOT
BRANCH   4   7
ATOM      7  C   UNL     1      46.574   3.123   7.684  0.00  0.00    +0.000 C 
ATOM      8  N   UNL     1      47.323   3.772   6.743  0.00  0.00    +0.000 N 
ATOM      9  O   UNL     1      46.662   1.904   7.790  0.00  0.00    +0.000 OA
ATOM     10  H   UNL     1      47.332   4.763   6.570  0.00  0.00    +0.000 HD
ATOM     11  H   UNL     1      47.920   3.189   6.168  0.00  0.00    +0.000 HD
ENDBRANCH   4   7
BRANCH   1  12
ATOM     12  N   UNL     1      43.190   6.039  11.168  0.00  0.00    +0.000 N 
ATOM     13  H   UNL     1      43.796   6.636  11.725  0.00  0.00    +0.000 HD
BRANCH  12  15
ATOM     14  C   UNL     1      43.196   4.738  13.225  0.00  0.00    +0.000 C 
ATOM     15  C   UNL     1      42.375   5.182  12.026  0.00  0.00    +0.000 C 
ENDBRANCH  12  15
ENDBRANCH   1  12
BRANCH   6  16
ATOM     16  N   UNL     1      45.802   6.944  10.667  0.00  0.00    +0.000 N 
ATOM     17  H   UNL     1      45.526   7.846  10.276  0.00  0.00    +0.000 HD
BRANCH  16  18
ATOM     18  C   UNL     1      46.388   7.065  12.023  0.00  0.00    +0.000 C 
ATOM     19  C   UNL     1      45.492   7.878  12.975  0.00  0.00    +0.000 C 
ATOM     20  C   UNL     1      46.692   5.660  12.566  0.00  0.00    +0.000 C 
BRANCH  18  21
ATOM     21  C   UNL     1      47.741   7.827  11.931  0.00  0.00    +0.000 A 
ATOM     22  N   UNL     1      47.701   9.175  11.801  0.00  0.00    +0.000 NA
ATOM     23  C   UNL     1      48.889   9.809  11.727  0.00  0.00    +0.000 A 
ATOM     24  C   UNL     1      50.101   9.161  11.776  0.00  0.00    +0.000 A 
ATOM     25  C   UNL     1      50.039   7.797  11.913  0.00  0.00    +0.000 A 
ATOM     26  N   UNL     1      48.885   7.112  11.994  0.00  0.00    +0.000 NA
ENDBRANCH  18  21
ENDBRANCH  16  18
ENDBRANCH   6  16
TORSDOF 6
ENDMDL
