MODEL 1
REMARK VINA RESULT:    -7.948      0.000      0.000
REMARK INTER + INTRA:         -11.205
REMARK INTER:                 -10.271
REMARK INTRA:                  -0.934
REMARK UNBOUND:                -0.934
REMARK  Name = 
REMARK  6 active torsions:
REMARK  status: ('A' for Active; 'I' for Inactive)
REMARK    1  A    between atoms: C_1  and  C_2
REMARK    2  A    between atoms: N_9  and  C_10
REMARK    3  A    between atoms: C_10  and  C_11
REMARK    4  A    between atoms: C_14  and  C_15
REMARK    5  A    between atoms: C_15  and  N_16
REMARK    6  A    between atoms: C_17  and  C_19
REMARK                            x       y       z     vdW  Elec       q    Type
REMARK                         _______ _______ _______ _____ _____    ______ ____
ROOT
ATOM      1  C   UNL     1      47.849   7.839  14.033  0.00  0.00    +0.000 A 
ATOM      2  C   UNL     1      48.024   6.636  13.389  0.00  0.00    +0.000 A 
ATOM      3  C   UNL     1      47.125   6.203  12.435  0.00  0.00    +0.000 A 
ATOM      4  C   UNL     1      46.045   6.963  12.060  0.00  0.00    +0.000 A 
ATOM      5  C   UNL     1      45.845   8.126  12.768  0.00  0.00    +0.000 A 
ATOM      6  C   UNL     1      46.805   8.637  13.623  0.00  0.00    +0.000 A 
ENDROOT
BRANCH   1   7
ATOM      7  C   UNL     1      48.748   8.216  15.165  0.00  0.00    +0.000 C 
BRANCH   7  16
ATOM      8  C   UNL     1      48.749   3.373  16.998  0.00  0.00    +0.000 C 
ATOM      9  C   UNL     1      48.734   4.341  18.091  0.00  0.00    +0.000 A 
ATOM     10  C   UNL     1      48.451   4.102  19.414  0.00  0.00    +0.000 A 
ATOM     11  C   UNL     1      48.561   5.295  20.098  0.00  0.00    +0.000 A 
ATOM     12  C   UNL     1      48.896   6.245  19.178  0.00  0.00    +0.000 A 
ATOM     13  N   UNL     1      49.003   5.694  17.921  0.00  0.00    +0.000 N 
ATOM     14  C   UNL     1      49.346   6.396  16.731  0.00  0.00    +0.000 C 
ATOM     15  O   UNL     1      50.343   6.073  16.109  0.00  0.00    +0.000 OA
ATOM     16  N   UNL     1      48.506   7.426  16.358  0.00  0.00    +0.000 N 
ATOM     17  H   UNL     1      47.684   7.675  16.869  0.00  0.00    +0.000 HD
ENDBRANCH   7  16
ENDBRANCH   1   7
BRANCH   4  18
ATOM     18  C   UNL     1      45.149   6.569  10.919  0.00  0.00    +0.000 C 
BRANCH  18  19
ATOM     19  N   UNL     1      45.522   5.294  10.308  0.00  0.00    +0.000 N 
ATOM     20  C   UNL     1      44.581   4.360   9.892  0.00  0.00    +0.000 C 
ATOM     21  O   UNL     1      43.378   4.577  10.028  0.00  0.00    +0.000 OA
ATOM     22  H   UNL     1      46.513   5.122  10.175  0.00  0.00    +0.000 HD
BRANCH  20  23
ATOM     23  C   UNL     1      45.044   3.104   9.263  0.00  0.00    +0.000 A 
ATOM     24  C   UNL     1      44.543   1.834   9.577  0.00  0.00    +0.000 A 
ATOM     25  O   UNL     1      45.144   0.876   8.800  0.00  0.00    +0.000 OA
ATOM     26  C   UNL     1      46.038   1.476   7.969  0.00  0.00    +0.000 A 
ATOM     27  N   UNL     1      46.836   0.872   7.057  0.00  0.00    +0.000 NA
ATOM     28  C   UNL     1      47.503   1.730   6.492  0.00  0.00    +0.000 A 
ATOM     29  N   UNL     1      48.188   2.595   5.907  0.00  0.00    +0.000 N 
ATOM     30  C   UNL     1      47.124   3.575   7.195  0.00  0.00    +0.000 A 
ATOM     31  O   UNL     1      46.934   4.750   7.588  0.00  0.00    +0.000 OA
ATOM     32  C   UNL     1      46.049   2.820   8.169  0.00  0.00    +0.000 A 
ATOM     33  H   UNL     1      48.647   1.591   5.311  0.00  0.00    +0.000 HD
ENDBRANCH  20  23
ENDBRANCH  18  19
ENDBRANCH   4  18
TORSDOF 5
ENDMDL
MODEL 2
REMARK VINA RESULT:    -7.309      1.757      9.545
REMARK INTER + INTRA:         -10.378
REMARK INTER:                  -9.478
REMARK INTRA:                  -0.900
REMARK UNBOUND:                -0.934
REMARK  Name = 
REMARK  6 active torsions:
REMARK  status: ('A' for Active; 'I' for Inactive)
REMARK    1  A    between atoms: C_1  and  C_2
REMARK    2  A    between atoms: N_9  and  C_10
REMARK    3  A    between atoms: C_10  and  C_11
REMARK    4  A    between atoms: C_14  and  C_15
REMARK    5  A    between atoms: C_15  and  N_16
REMARK    6  A    between atoms: C_17  and  C_19
REMARK                            x       y       z     vdW  Elec       q    Type
REMARK                         _______ _______ _______ _____ _____    ______ ____
ROOT
ATOM      1  C   UNL     1      45.793   6.884  11.567  0.00  0.00    +0.000 A 
ATOM      2  C   UNL     1      47.148   6.648  11.619  0.00  0.00    +0.000 A 
ATOM      3  C   UNL     1      47.959   7.345  12.492  0.00  0.00    +0.000 A 
ATOM      4  C   UNL     1      47.451   8.271  13.369  0.00  0.00    +0.000 A 
ATOM      5  C   UNL     1      46.108   8.548  13.251  0.00  0.00    +0.000 A 
ATOM      6  C   UNL     1      45.263   7.766  12.483  0.00  0.00    +0.000 A 
ENDROOT
BRANCH   1   7
ATOM      7  C   UNL     1      44.962   6.230  10.513  0.00  0.00    +0.000 C 
BRANCH   7  16
ATOM      8  C   UNL     1      45.097   1.323   8.865  0.00  0.00    +0.000 C 
ATOM      9  C   UNL     1      45.986   2.163   8.067  0.00  0.00    +0.000 A 
ATOM     10  C   UNL     1      46.971   1.750   7.203  0.00  0.00    +0.000 A 
ATOM     11  C   UNL     1      47.558   2.872   6.656  0.00  0.00    +0.000 A 
ATOM     12  C   UNL     1      46.931   3.951   7.205  0.00  0.00    +0.000 A 
ATOM     13  N   UNL     1      45.956   3.552   8.092  0.00  0.00    +0.000 N 
ATOM     14  C   UNL     1      45.104   4.416   8.837  0.00  0.00    +0.000 C 
ATOM     15  O   UNL     1      43.897   4.347   8.682  0.00  0.00    +0.000 OA
ATOM     16  N   UNL     1      45.721   5.299   9.700  0.00  0.00    +0.000 N 
ATOM     17  H   UNL     1      46.712   5.339   9.827  0.00  0.00    +0.000 HD
ENDBRANCH   7  16
ENDBRANCH   1   7
BRANCH   4  18
ATOM     18  C   UNL     1      48.301   8.922  14.424  0.00  0.00    +0.000 C 
BRANCH  18  19
ATOM     19  N   UNL     1      48.500   8.080  15.603  0.00  0.00    +0.000 N 
ATOM     20  C   UNL     1      48.250   8.528  16.893  0.00  0.00    +0.000 C 
ATOM     21  O   UNL     1      47.847   9.672  17.094  0.00  0.00    +0.000 OA
ATOM     22  H   UNL     1      48.812   7.128  15.438  0.00  0.00    +0.000 HD
BRANCH  20  23
ATOM     23  C   UNL     1      48.457   7.602  18.029  0.00  0.00    +0.000 A 
ATOM     24  C   UNL     1      48.594   8.008  19.362  0.00  0.00    +0.000 A 
ATOM     25  O   UNL     1      48.735   6.918  20.183  0.00  0.00    +0.000 OA
ATOM     26  C   UNL     1      48.695   5.787  19.429  0.00  0.00    +0.000 A 
ATOM     27  N   UNL     1      48.808   4.511  19.867  0.00  0.00    +0.000 NA
ATOM     28  C   UNL     1      48.721   3.757  18.905  0.00  0.00    +0.000 A 
ATOM     29  N   UNL     1      48.631   2.980  17.932  0.00  0.00    +0.000 N 
ATOM     30  C   UNL     1      48.488   4.756  17.176  0.00  0.00    +0.000 A 
ATOM     31  O   UNL     1      48.340   5.318  16.065  0.00  0.00    +0.000 OA
ATOM     32  C   UNL     1      48.526   6.093  18.117  0.00  0.00    +0.000 A 
ATOM     33  H   UNL     1      48.799   2.112  18.823  0.00  0.00    +0.000 HD
ENDBRANCH  20  23
ENDBRANCH  18  19
ENDBRANCH   4  18
TORSDOF 5
ENDMDL
MODEL 3
REMARK VINA RESULT:    -7.227      2.682      9.098
REMARK INTER + INTRA:         -10.273
REMARK INTER:                  -9.528
REMARK INTRA:                  -0.744
REMARK UNBOUND:                -0.934
REMARK  Name = 
REMARK  6 active torsions:
REMARK  status: ('A' for Active; 'I' for Inactive)
REMARK    1  A    between atoms: C_1  and  C_2
REMARK    2  A    between atoms: N_9  and  C_10
REMARK    3  A    between atoms: C_10  and  C_11
REMARK    4  A    between atoms: C_14  and  C_15
REMARK    5  A    between atoms: C_15  and  N_16
REMARK    6  A    between atoms: C_17  and  C_19
REMARK                            x       y       z     vdW  Elec       q    Type
REMARK                         _______ _______ _______ _____ _____    ______ ____
ROOT
ATOM      1  C   UNL     1      46.713   7.459  12.989  0.00  0.00    +0.000 A 
ATOM      2  C   UNL     1      47.173   6.241  13.434  0.00  0.00    +0.000 A 
ATOM      3  C   UNL     1      48.086   6.159  14.466  0.00  0.00    +0.000 A 
ATOM      4  C   UNL     1      48.546   7.278  15.116  0.00  0.00    +0.000 A 
ATOM      5  C   UNL     1      48.134   8.488  14.608  0.00  0.00    +0.000 A 
ATOM      6  C   UNL     1      47.120   8.583  13.672  0.00  0.00    +0.000 A 
ENDROOT
BRANCH   1   7
ATOM      7  C   UNL     1      45.844   7.530  11.776  0.00  0.00    +0.000 C 
BRANCH   7  16
ATOM      8  C   UNL     1      43.597   2.867  11.625  0.00  0.00    +0.000 C 
ATOM      9  C   UNL     1      44.268   3.161  10.362  0.00  0.00    +0.000 A 
ATOM     10  C   UNL     1      44.573   2.278   9.354  0.00  0.00    +0.000 A 
ATOM     11  C   UNL     1      45.196   2.981   8.344  0.00  0.00    +0.000 A 
ATOM     12  C   UNL     1      45.274   4.278   8.758  0.00  0.00    +0.000 A 
ATOM     13  N   UNL     1      44.718   4.428  10.008  0.00  0.00    +0.000 N 
ATOM     14  C   UNL     1      44.622   5.647  10.736  0.00  0.00    +0.000 C 
ATOM     15  O   UNL     1      43.524   6.074  11.049  0.00  0.00    +0.000 OA
ATOM     16  N   UNL     1      45.810   6.281  11.039  0.00  0.00    +0.000 N 
ATOM     17  H   UNL     1      46.706   5.916  10.786  0.00  0.00    +0.000 HD
ENDBRANCH   7  16
ENDBRANCH   1   7
BRANCH   4  18
ATOM     18  C   UNL     1      49.420   7.189  16.335  0.00  0.00    +0.000 C 
BRANCH  18  19
ATOM     19  N   UNL     1      50.042   5.876  16.504  0.00  0.00    +0.000 N 
ATOM     20  C   UNL     1      49.464   4.867  17.263  0.00  0.00    +0.000 C 
ATOM     21  O   UNL     1      48.389   5.047  17.834  0.00  0.00    +0.000 OA
ATOM     22  H   UNL     1      50.917   5.718  16.016  0.00  0.00    +0.000 HD
BRANCH  20  23
ATOM     23  C   UNL     1      50.150   3.560  17.364  0.00  0.00    +0.000 A 
ATOM     24  C   UNL     1      49.587   2.341  16.965  0.00  0.00    +0.000 A 
ATOM     25  O   UNL     1      50.482   1.317  17.148  0.00  0.00    +0.000 OA
ATOM     26  C   UNL     1      51.635   1.823  17.661  0.00  0.00    +0.000 A 
ATOM     27  N   UNL     1      52.753   1.133  17.988  0.00  0.00    +0.000 NA
ATOM     28  C   UNL     1      53.588   1.920  18.416  0.00  0.00    +0.000 A 
ATOM     29  N   UNL     1      54.448   2.713  18.851  0.00  0.00    +0.000 N 
ATOM     30  C   UNL     1      52.902   3.809  18.454  0.00  0.00    +0.000 A 
ATOM     31  O   UNL     1      52.537   5.008  18.502  0.00  0.00    +0.000 OA
ATOM     32  C   UNL     1      51.537   3.168  17.824  0.00  0.00    +0.000 A 
ATOM     33  H   UNL     1      55.118   1.659  18.975  0.00  0.00    +0.000 HD
ENDBRANCH  20  23
ENDBRANCH  18  19
ENDBRANCH   4  18
TORSDOF 5
ENDMDL
MODEL 4
REMARK VINA RESULT:    -7.206      2.234     10.447
REMARK INTER + INTRA:         -10.246
REMARK INTER:                  -9.309
REMARK INTRA:                  -0.937
REMARK UNBOUND:                -0.934
REMARK  Name = 
REMARK  6 active torsions:
REMARK  status: ('A' for Active; 'I' for Inactive)
REMARK    1  A    between atoms: C_1  and  C_2
REMARK    2  A    between atoms: N_9  and  C_10
REMARK    3  A    between atoms: C_10  and  C_11
REMARK    4  A    between atoms: C_14  and  C_15
REMARK    5  A    between atoms: C_15  and  N_16
REMARK    6  A    between atoms: C_17  and  C_19
REMARK                            x       y       z     vdW  Elec       q    Type
REMARK                         _______ _______ _______ _____ _____    ______ ____
ROOT
ATOM      1  C   UNL     1      45.766   5.543  11.600  0.00  0.00    +0.000 A 
ATOM      2  C   UNL     1      45.307   4.390  12.195  0.00  0.00    +0.000 A 
ATOM      3  C   UNL     1      45.811   3.967  13.408  0.00  0.00    +0.000 A 
ATOM      4  C   UNL     1      46.759   4.690  14.090  0.00  0.00    +0.000 A 
ATOM      5  C   UNL     1      47.259   5.797  13.445  0.00  0.00    +0.000 A 
ATOM      6  C   UNL     1      46.670   6.307  12.301  0.00  0.00    +0.000 A 
ENDROOT
BRANCH   1   7
ATOM      7  C   UNL     1      45.316   5.899  10.221  0.00  0.00    +0.000 C 
BRANCH   7  16
ATOM      8  C   UNL     1      45.894   1.066   8.452  0.00  0.00    +0.000 C 
ATOM      9  C   UNL     1      46.344   2.039   7.460  0.00  0.00    +0.000 A 
ATOM     10  C   UNL     1      47.102   1.798   6.340  0.00  0.00    +0.000 A 
ATOM     11  C   UNL     1      47.288   2.997   5.683  0.00  0.00    +0.000 A 
ATOM     12  C   UNL     1      46.653   3.951   6.421  0.00  0.00    +0.000 A 
ATOM     13  N   UNL     1      46.064   3.398   7.536  0.00  0.00    +0.000 N 
ATOM     14  C   UNL     1      45.313   4.104   8.518  0.00  0.00    +0.000 C 
ATOM     15  O   UNL     1      44.147   3.805   8.710  0.00  0.00    +0.000 OA
ATOM     16  N   UNL     1      45.973   5.108   9.197  0.00  0.00    +0.000 N 
ATOM     17  H   UNL     1      46.933   5.337   9.038  0.00  0.00    +0.000 HD
ENDBRANCH   7  16
ENDBRANCH   1   7
BRANCH   4  18
ATOM     18  C   UNL     1      47.201   4.318  15.478  0.00  0.00    +0.000 C 
BRANCH  18  19
ATOM     19  N   UNL     1      47.704   5.456  16.246  0.00  0.00    +0.000 N 
ATOM     20  C   UNL     1      48.988   5.493  16.774  0.00  0.00    +0.000 C 
ATOM     21  O   UNL     1      49.761   4.551  16.613  0.00  0.00    +0.000 OA
ATOM     22  H   UNL     1      47.075   6.244  16.362  0.00  0.00    +0.000 HD
BRANCH  20  23
ATOM     23  C   UNL     1      49.424   6.694  17.521  0.00  0.00    +0.000 A 
ATOM     24  C   UNL     1      50.563   7.446  17.209  0.00  0.00    +0.000 A 
ATOM     25  O   UNL     1      50.678   8.517  18.059  0.00  0.00    +0.000 OA
ATOM     26  C   UNL     1      49.638   8.502  18.935  0.00  0.00    +0.000 A 
ATOM     27  N   UNL     1      49.400   9.384  19.933  0.00  0.00    +0.000 NA
ATOM     28  C   UNL     1      48.371   9.054  20.511  0.00  0.00    +0.000 A 
ATOM     29  N   UNL     1      47.323   8.729  21.106  0.00  0.00    +0.000 N 
ATOM     30  C   UNL     1      47.567   7.383  19.736  0.00  0.00    +0.000 A 
ATOM     31  O   UNL     1      47.014   6.346  19.299  0.00  0.00    +0.000 OA
ATOM     32  C   UNL     1      48.823   7.443  18.690  0.00  0.00    +0.000 A 
ATOM     33  H   UNL     1      47.603   9.736  21.802  0.00  0.00    +0.000 HD
ENDBRANCH  20  23
ENDBRANCH  18  19
ENDBRANCH   4  18
TORSDOF 5
ENDMDL
MODEL 5
REMARK VINA RESULT:    -7.192      1.663      2.378
REMARK INTER + INTRA:         -10.228
REMARK INTER:                  -9.229
REMARK INTRA:                  -0.999
REMARK UNBOUND:                -0.934
REMARK  Name = 
REMARK  6 active torsions:
REMARK  status: ('A' for Active; 'I' for Inactive)
REMARK    1  A    between atoms: C_1  and  C_2
REMARK    2  A    between atoms: N_9  and  C_10
REMARK    3  A    between atoms: C_10  and  C_11
REMARK    4  A    between atoms: C_14  and  C_15
REMARK    5  A    between atoms: C_15  and  N_16
REMARK    6  A    between atoms: C_17  and  C_19
REMARK                            x       y       z     vdW  Elec       q    Type
REMARK                         _______ _______ _______ _____ _____    ______ ____
ROOT
ATOM      1  C   UNL     1      49.165   7.779  14.953  0.00  0.00    +0.000 A 
ATOM      2  C   UNL     1      48.189   8.737  15.099  0.00  0.00    +0.000 A 
ATOM      3  C   UNL     1      47.190   8.885  14.158  0.00  0.00    +0.000 A 
ATOM      4  C   UNL     1      47.103   8.064  13.060  0.00  0.00    +0.000 A 
ATOM      5  C   UNL     1      48.129   7.164  12.892  0.00  0.00    +0.000 A 
ATOM      6  C   UNL     1      49.055   6.912  13.889  0.00  0.00    +0.000 A 
ENDROOT
BRANCH   1   7
ATOM      7  C   UNL     1      50.318   7.738  15.902  0.00  0.00    +0.000 C 
BRANCH   7  16
ATOM      8  C   UNL     1      48.110   3.661  18.208  0.00  0.00    +0.000 C 
ATOM      9  C   UNL     1      48.860   4.460  19.173  0.00  0.00    +0.000 A 
ATOM     10  C   UNL     1      48.791   4.394  20.544  0.00  0.00    +0.000 A 
ATOM     11  C   UNL     1      49.674   5.318  21.062  0.00  0.00    +0.000 A 
ATOM     12  C   UNL     1      50.257   5.943  20.000  0.00  0.00    +0.000 A 
ATOM     13  N   UNL     1      49.771   5.445  18.811  0.00  0.00    +0.000 N 
ATOM     14  C   UNL     1      50.167   5.863  17.510  0.00  0.00    +0.000 C 
ATOM     15  O   UNL     1      50.667   5.056  16.746  0.00  0.00    +0.000 OA
ATOM     16  N   UNL     1      49.957   7.192  17.197  0.00  0.00    +0.000 N 
ATOM     17  H   UNL     1      49.535   7.843  17.827  0.00  0.00    +0.000 HD
ENDBRANCH   7  16
ENDBRANCH   1   7
BRANCH   4  18
ATOM     18  C   UNL     1      45.937   8.118  12.114  0.00  0.00    +0.000 C 
BRANCH  18  19
ATOM     19  N   UNL     1      45.607   6.818  11.532  0.00  0.00    +0.000 N 
ATOM     20  C   UNL     1      44.689   5.950  12.111  0.00  0.00    +0.000 C 
ATOM     21  O   UNL     1      44.113   6.251  13.156  0.00  0.00    +0.000 OA
ATOM     22  H   UNL     1      46.064   6.577  10.659  0.00  0.00    +0.000 HD
BRANCH  20  23
ATOM     23  C   UNL     1      44.397   4.662  11.444  0.00  0.00    +0.000 A 
ATOM     24  C   UNL     1      43.588   3.658  11.990  0.00  0.00    +0.000 A 
ATOM     25  O   UNL     1      43.480   2.604  11.118  0.00  0.00    +0.000 OA
ATOM     26  C   UNL     1      44.197   2.880   9.997  0.00  0.00    +0.000 A 
ATOM     27  N   UNL     1      44.347   2.088   8.909  0.00  0.00    +0.000 NA
ATOM     28  C   UNL     1      45.058   2.668   8.097  0.00  0.00    +0.000 A 
ATOM     29  N   UNL     1      45.780   3.250   7.261  0.00  0.00    +0.000 N 
ATOM     30  C   UNL     1      45.671   4.461   8.768  0.00  0.00    +0.000 A 
ATOM     31  O   UNL     1      46.088   5.589   9.126  0.00  0.00    +0.000 OA
ATOM     32  C   UNL     1      44.786   4.101  10.094  0.00  0.00    +0.000 A 
ATOM     33  H   UNL     1      45.592   2.194   6.610  0.00  0.00    +0.000 HD
ENDBRANCH  20  23
ENDBRANCH  18  19
ENDBRANCH   4  18
TORSDOF 5
ENDMDL
MODEL 6
REMARK VINA RESULT:    -7.097      4.403      6.001
REMARK INTER + INTRA:         -10.105
REMARK INTER:                  -9.170
REMARK INTRA:                  -0.935
REMARK UNBOUND:                -0.934
REMARK  Name = 
REMARK  6 active torsions:
REMARK  status: ('A' for Active; 'I' for Inactive)
REMARK    1  A    between atoms: C_1  and  C_2
REMARK    2  A    between atoms: N_9  and  C_10
REMARK    3  A    between atoms: C_10  and  C_11
REMARK    4  A    between atoms: C_14  and  C_15
REMARK    5  A    between atoms: C_15  and  N_16
REMARK    6  A    between atoms: C_17  and  C_19
REMARK                            x       y       z     vdW  Elec       q    Type
REMARK                         _______ _______ _______ _____ _____    ______ ____
ROOT
ATOM      1  C   UNL     1      49.989   9.043  11.880  0.00  0.00    +0.000 A 
ATOM      2  C   UNL     1      49.605   7.727  11.766  0.00  0.00    +0.000 A 
ATOM      3  C   UNL     1      48.298   7.345  11.989  0.00  0.00    +0.000 A 
ATOM      4  C   UNL     1      47.319   8.258  12.296  0.00  0.00    +0.000 A 
ATOM      5  C   UNL     1      47.735   9.557  12.480  0.00  0.00    +0.000 A 
ATOM      6  C   UNL     1      49.006   9.976  12.127  0.00  0.00    +0.000 A 
ENDROOT
BRANCH   1   7
ATOM      7  C   UNL     1      51.433   9.410  11.782  0.00  0.00    +0.000 C 
BRANCH   7  16
ATOM      8  C   UNL     1      52.356   6.574   7.549  0.00  0.00    +0.000 C 
ATOM      9  C   UNL     1      53.439   6.428   8.517  0.00  0.00    +0.000 A 
ATOM     10  C   UNL     1      54.428   5.474   8.525  0.00  0.00    +0.000 A 
ATOM     11  C   UNL     1      55.244   5.713   9.612  0.00  0.00    +0.000 A 
ATOM     12  C   UNL     1      54.731   6.799  10.257  0.00  0.00    +0.000 A 
ATOM     13  N   UNL     1      53.606   7.265   9.615  0.00  0.00    +0.000 N 
ATOM     14  C   UNL     1      52.825   8.388  10.011  0.00  0.00    +0.000 C 
ATOM     15  O   UNL     1      52.703   9.332   9.250  0.00  0.00    +0.000 OA
ATOM     16  N   UNL     1      52.251   8.329  11.265  0.00  0.00    +0.000 N 
ATOM     17  H   UNL     1      52.349   7.544  11.876  0.00  0.00    +0.000 HD
ENDBRANCH   7  16
ENDBRANCH   1   7
BRANCH   4  18
ATOM     18  C   UNL     1      45.869   7.873  12.391  0.00  0.00    +0.000 C 
BRANCH  18  19
ATOM     19  N   UNL     1      45.571   6.593  11.750  0.00  0.00    +0.000 N 
ATOM     20  C   UNL     1      44.584   5.735  12.217  0.00  0.00    +0.000 C 
ATOM     21  O   UNL     1      43.915   6.026  13.208  0.00  0.00    +0.000 OA
ATOM     22  H   UNL     1      46.105   6.361  10.919  0.00  0.00    +0.000 HD
BRANCH  20  23
ATOM     23  C   UNL     1      44.331   4.468  11.496  0.00  0.00    +0.000 A 
ATOM     24  C   UNL     1      43.557   3.415  11.998  0.00  0.00    +0.000 A 
ATOM     25  O   UNL     1      43.480   2.397  11.081  0.00  0.00    +0.000 OA
ATOM     26  C   UNL     1      44.184   2.745   9.972  0.00  0.00    +0.000 A 
ATOM     27  N   UNL     1      44.356   2.007   8.850  0.00  0.00    +0.000 NA
ATOM     28  C   UNL     1      45.044   2.645   8.063  0.00  0.00    +0.000 A 
ATOM     29  N   UNL     1      45.744   3.286   7.251  0.00  0.00    +0.000 N 
ATOM     30  C   UNL     1      45.601   4.426   8.810  0.00  0.00    +0.000 A 
ATOM     31  O   UNL     1      45.982   5.549   9.216  0.00  0.00    +0.000 OA
ATOM     32  C   UNL     1      44.733   3.979  10.121  0.00  0.00    +0.000 A 
ATOM     33  H   UNL     1      45.587   2.253   6.555  0.00  0.00    +0.000 HD
ENDBRANCH  20  23
ENDBRANCH  18  19
ENDBRANCH   4  18
TORSDOF 5
ENDMDL
MODEL 7
REMARK VINA RESULT:    -6.889      2.305      9.431
REMARK INTER + INTRA:          -9.837
REMARK INTER:                  -9.052
REMARK INTRA:                  -0.785
REMARK UNBOUND:                -0.934
REMARK  Name = 
REMARK  6 active torsions:
REMARK  status: ('A' for Active; 'I' for Inactive)
REMARK    1  A    between atoms: C_1  and  C_2
REMARK    2  A    between atoms: N_9  and  C_10
REMARK    3  A    between atoms: C_10  and  C_11
REMARK    4  A    between atoms: C_14  and  C_15
REMARK    5  A    between atoms: C_15  and  N_16
REMARK    6  A    between atoms: C_17  and  C_19
REMARK                            x       y       z     vdW  Elec       q    Type
REMARK                         _______ _______ _______ _____ _____    ______ ____
ROOT
ATOM      1  C   UNL     1      45.984   6.805  11.971  0.00  0.00    +0.000 A 
ATOM      2  C   UNL     1      46.815   5.858  12.524  0.00  0.00    +0.000 A 
ATOM      3  C   UNL     1      47.730   6.198  13.500  0.00  0.00    +0.000 A 
ATOM      4  C   UNL     1      47.828   7.478  13.986  0.00  0.00    +0.000 A 
ATOM      5  C   UNL     1      47.044   8.424  13.369  0.00  0.00    +0.000 A 
ATOM      6  C   UNL     1      46.030   8.078  12.492  0.00  0.00    +0.000 A 
ENDROOT
BRANCH   1   7
ATOM      7  C   UNL     1      45.110   6.445  10.814  0.00  0.00    +0.000 C 
BRANCH   7  16
ATOM      8  C   UNL     1      44.921   1.535   9.181  0.00  0.00    +0.000 C 
ATOM      9  C   UNL     1      45.718   2.354   8.272  0.00  0.00    +0.000 A 
ATOM     10  C   UNL     1      46.574   1.918   7.289  0.00  0.00    +0.000 A 
ATOM     11  C   UNL     1      47.111   3.026   6.667  0.00  0.00    +0.000 A 
ATOM     12  C   UNL     1      46.584   4.119   7.288  0.00  0.00    +0.000 A 
ATOM     13  N   UNL     1      45.724   3.744   8.295  0.00  0.00    +0.000 N 
ATOM     14  C   UNL     1      44.994   4.627   9.140  0.00  0.00    +0.000 C 
ATOM     15  O   UNL     1      43.776   4.586   9.143  0.00  0.00    +0.000 OA
ATOM     16  N   UNL     1      45.737   5.497   9.913  0.00  0.00    +0.000 N 
ATOM     17  H   UNL     1      46.736   5.514   9.911  0.00  0.00    +0.000 HD
ENDBRANCH   7  16
ENDBRANCH   1   7
BRANCH   4  18
ATOM     18  C   UNL     1      48.713   7.823  15.151  0.00  0.00    +0.000 C 
BRANCH  18  19
ATOM     19  N   UNL     1      49.496   6.688  15.636  0.00  0.00    +0.000 N 
ATOM     20  C   UNL     1      49.250   6.077  16.859  0.00  0.00    +0.000 C 
ATOM     21  O   UNL     1      48.348   6.480  17.593  0.00  0.00    +0.000 OA
ATOM     22  H   UNL     1      50.226   6.339  15.023  0.00  0.00    +0.000 HD
BRANCH  20  23
ATOM     23  C   UNL     1      50.076   4.919  17.264  0.00  0.00    +0.000 A 
ATOM     24  C   UNL     1      49.574   3.630  17.483  0.00  0.00    +0.000 A 
ATOM     25  O   UNL     1      50.590   2.768  17.809  0.00  0.00    +0.000 OA
ATOM     26  C   UNL     1      51.766   3.451  17.813  0.00  0.00    +0.000 A 
ATOM     27  N   UNL     1      52.995   2.957  18.095  0.00  0.00    +0.000 NA
ATOM     28  C   UNL     1      53.814   3.863  17.995  0.00  0.00    +0.000 A 
ATOM     29  N   UNL     1      54.657   4.777  17.894  0.00  0.00    +0.000 N 
ATOM     30  C   UNL     1      52.955   5.612  17.502  0.00  0.00    +0.000 A 
ATOM     31  O   UNL     1      52.483   6.733  17.195  0.00  0.00    +0.000 OA
ATOM     32  C   UNL     1      51.563   4.755  17.493  0.00  0.00    +0.000 A 
ATOM     33  H   UNL     1      55.446   3.861  18.231  0.00  0.00    +0.000 HD
ENDBRANCH  20  23
ENDBRANCH  18  19
ENDBRANCH   4  18
TORSDOF 5
ENDMDL
MODEL 8
REMARK VINA RESULT:    -6.261      2.438      9.495
REMARK INTER + INTRA:          -9.024
REMARK INTER:                  -8.227
REMARK INTRA:                  -0.797
REMARK UNBOUND:                -0.934
REMARK  Name = 
REMARK  6 active torsions:
REMARK  status: ('A' for Active; 'I' for Inactive)
REMARK    1  A    between atoms: C_1  and  C_2
REMARK    2  A    between atoms: N_9  and  C_10
REMARK    3  A    between atoms: C_10  and  C_11
REMARK    4  A    between atoms: C_14  and  C_15
REMARK    5  A    between atoms: C_15  and  N_16
REMARK    6  A    between atoms: C_17  and  C_19
REMARK                            x       y       z     vdW  Elec       q    Type
REMARK                         _______ _______ _______ _____ _____    ______ ____
ROOT
ATOM      1  C   UNL     1      45.792   5.694  11.681  0.00  0.00    +0.000 A 
ATOM      2  C   UNL     1      45.023   4.796  12.386  0.00  0.00    +0.000 A 
ATOM      3  C   UNL     1      45.408   4.359  13.637  0.00  0.00    +0.000 A 
ATOM      4  C   UNL     1      46.546   4.823  14.248  0.00  0.00    +0.000 A 
ATOM      5  C   UNL     1      47.340   5.660  13.498  0.00  0.00    +0.000 A 
ATOM      6  C   UNL     1      46.903   6.212  12.307  0.00  0.00    +0.000 A 
ENDROOT
BRANCH   1   7
ATOM      7  C   UNL     1      45.435   6.035  10.272  0.00  0.00    +0.000 C 
BRANCH   7  16
ATOM      8  C   UNL     1      45.662   1.140   8.597  0.00  0.00    +0.000 C 
ATOM      9  C   UNL     1      46.273   2.048   7.630  0.00  0.00    +0.000 A 
ATOM     10  C   UNL     1      47.080   1.717   6.569  0.00  0.00    +0.000 A 
ATOM     11  C   UNL     1      47.426   2.881   5.914  0.00  0.00    +0.000 A 
ATOM     12  C   UNL     1      46.836   3.905   6.596  0.00  0.00    +0.000 A 
ATOM     13  N   UNL     1      46.120   3.429   7.672  0.00  0.00    +0.000 N 
ATOM     14  C   UNL     1      45.375   4.220   8.591  0.00  0.00    +0.000 C 
ATOM     15  O   UNL     1      44.176   4.038   8.704  0.00  0.00    +0.000 OA
ATOM     16  N   UNL     1      46.081   5.168   9.305  0.00  0.00    +0.000 N 
ATOM     17  H   UNL     1      47.067   5.301   9.212  0.00  0.00    +0.000 HD
ENDBRANCH   7  16
ENDBRANCH   1   7
BRANCH   4  18
ATOM     18  C   UNL     1      46.892   4.469  15.667  0.00  0.00    +0.000 C 
BRANCH  18  19
ATOM     19  N   UNL     1      48.328   4.525  15.941  0.00  0.00    +0.000 N 
ATOM     20  C   UNL     1      48.902   5.520  16.720  0.00  0.00    +0.000 C 
ATOM     21  O   UNL     1      48.211   6.409  17.214  0.00  0.00    +0.000 OA
ATOM     22  H   UNL     1      48.897   3.780  15.553  0.00  0.00    +0.000 HD
BRANCH  20  23
ATOM     23  C   UNL     1      50.361   5.489  16.966  0.00  0.00    +0.000 A 
ATOM     24  C   UNL     1      51.000   4.571  17.809  0.00  0.00    +0.000 A 
ATOM     25  O   UNL     1      52.357   4.774  17.799  0.00  0.00    +0.000 OA
ATOM     26  C   UNL     1      52.644   5.809  16.964  0.00  0.00    +0.000 A 
ATOM     27  N   UNL     1      53.867   6.321  16.691  0.00  0.00    +0.000 NA
ATOM     28  C   UNL     1      53.738   7.241  15.894  0.00  0.00    +0.000 A 
ATOM     29  N   UNL     1      53.618   8.181  15.080  0.00  0.00    +0.000 N 
ATOM     30  C   UNL     1      51.813   7.563  15.410  0.00  0.00    +0.000 A 
ATOM     31  O   UNL     1      50.634   7.815  15.066  0.00  0.00    +0.000 OA
ATOM     32  C   UNL     1      51.507   6.306  16.410  0.00  0.00    +0.000 A 
ATOM     33  H   UNL     1      54.865   8.237  15.216  0.00  0.00    +0.000 HD
ENDBRANCH  20  23
ENDBRANCH  18  19
ENDBRANCH   4  18
TORSDOF 5
ENDMDL
MODEL 9
REMARK VINA RESULT:    -6.251      3.646      5.743
REMARK INTER + INTRA:          -9.012
REMARK INTER:                  -8.322
REMARK INTRA:                  -0.689
REMARK UNBOUND:                -0.934
REMARK  Name = 
REMARK  6 active torsions:
REMARK  status: ('A' for Active; 'I' for Inactive)
REMARK    1  A    between atoms: C_1  and  C_2
REMARK    2  A    between atoms: N_9  and  C_10
REMARK    3  A    between atoms: C_10  and  C_11
REMARK    4  A    between atoms: C_14  and  C_15
REMARK    5  A    between atoms: C_15  and  N_16
REMARK    6  A    between atoms: C_17  and  C_19
REMARK                            x       y       z     vdW  Elec       q    Type
REMARK                         _______ _______ _______ _____ _____    ______ ____
ROOT
ATOM      1  C   UNL     1      49.704   5.260  17.869  0.00  0.00    +0.000 A 
ATOM      2  C   UNL     1      50.516   6.281  17.432  0.00  0.00    +0.000 A 
ATOM      3  C   UNL     1      50.182   7.029  16.321  0.00  0.00    +0.000 A 
ATOM      4  C   UNL     1      49.016   6.817  15.629  0.00  0.00    +0.000 A 
ATOM      5  C   UNL     1      48.254   5.745  16.035  0.00  0.00    +0.000 A 
ATOM      6  C   UNL     1      48.503   5.077  17.221  0.00  0.00    +0.000 A 
ENDROOT
BRANCH   1   7
ATOM      7  C   UNL     1      50.158   4.369  18.978  0.00  0.00    +0.000 C 
BRANCH   7  16
ATOM      8  C   UNL     1      53.109   0.211  18.071  0.00  0.00    +0.000 C 
ATOM      9  C   UNL     1      53.868   1.441  17.866  0.00  0.00    +0.000 A 
ATOM     10  C   UNL     1      55.232   1.571  17.756  0.00  0.00    +0.000 A 
ATOM     11  C   UNL     1      55.520   2.906  17.562  0.00  0.00    +0.000 A 
ATOM     12  C   UNL     1      54.330   3.570  17.572  0.00  0.00    +0.000 A 
ATOM     13  N   UNL     1      53.283   2.698  17.768  0.00  0.00    +0.000 N 
ATOM     14  C   UNL     1      51.905   3.050  17.824  0.00  0.00    +0.000 C 
ATOM     15  O   UNL     1      51.130   2.574  17.012  0.00  0.00    +0.000 OA
ATOM     16  N   UNL     1      51.533   3.933  18.818  0.00  0.00    +0.000 N 
ATOM     17  H   UNL     1      52.175   4.309  19.485  0.00  0.00    +0.000 HD
ENDBRANCH   7  16
ENDBRANCH   1   7
BRANCH   4  18
ATOM     18  C   UNL     1      48.572   7.723  14.515  0.00  0.00    +0.000 C 
BRANCH  18  19
ATOM     19  N   UNL     1      47.260   7.371  13.974  0.00  0.00    +0.000 N 
ATOM     20  C   UNL     1      46.990   7.362  12.612  0.00  0.00    +0.000 C 
ATOM     21  O   UNL     1      47.862   7.660  11.796  0.00  0.00    +0.000 OA
ATOM     22  H   UNL     1      46.545   7.104  14.643  0.00  0.00    +0.000 HD
BRANCH  20  23
ATOM     23  C   UNL     1      45.641   6.972  12.148  0.00  0.00    +0.000 A 
ATOM     24  C   UNL     1      44.739   7.842  11.523  0.00  0.00    +0.000 A 
ATOM     25  O   UNL     1      43.590   7.176  11.179  0.00  0.00    +0.000 OA
ATOM     26  C   UNL     1      43.702   5.875  11.557  0.00  0.00    +0.000 A 
ATOM     27  N   UNL     1      42.777   4.898  11.401  0.00  0.00    +0.000 NA
ATOM     28  C   UNL     1      43.228   3.855  11.858  0.00  0.00    +0.000 A 
ATOM     29  N   UNL     1      43.678   2.785  12.319  0.00  0.00    +0.000 N 
ATOM     30  C   UNL     1      45.069   4.097  12.630  0.00  0.00    +0.000 A 
ATOM     31  O   UNL     1      46.217   4.179  13.128  0.00  0.00    +0.000 OA
ATOM     32  C   UNL     1      44.904   5.650  12.148  0.00  0.00    +0.000 A 
ATOM     33  H   UNL     1      42.557   2.352  11.959  0.00  0.00    +0.000 HD
ENDBRANCH  20  23
ENDBRANCH  18  19
ENDBRANCH   4  18
TORSDOF 5
ENDMDL
