MODEL 1
REMARK VINA RESULT:    -8.142      0.000      0.000
REMARK INTER + INTRA:         -11.351
REMARK INTER:                 -10.522
REMARK INTRA:                  -0.829
REMARK UNBOUND:                -0.829
REMARK  Name = 
REMARK  7 active torsions:
REMARK  status: ('A' for Active; 'I' for Inactive)
REMARK    1  A    between atoms: C_1  and  C_2
REMARK    2  A    between atoms: C_2  and  N_3
REMARK    3  A    between atoms: C_2  and  C_17
REMARK    4  A    between atoms: C_4  and  C_6
REMARK    5  A    between atoms: N_12  and  C_13
REMARK    6  A    between atoms: C_20  and  C_21
REMARK    7  A    between atoms: C_21  and  C_22
REMARK                            x       y       z     vdW  Elec       q    Type
REMARK                         _______ _______ _______ _____ _____    ______ ____
ROOT
ATOM      1  C   UNL     1      47.380   8.220  12.041  0.00  0.00    +0.000 C 
ATOM      2  C   UNL     1      46.694   7.219  12.978  0.00  0.00    +0.000 C 
ENDROOT
BRANCH   2   3
ATOM      3  C   UNL     1      46.017   6.078  12.235  0.00  0.00    +0.000 A 
ATOM      4  C   UNL     1      45.473   6.317  10.964  0.00  0.00    +0.000 A 
ATOM      5  C   UNL     1      44.974   5.267  10.190  0.00  0.00    +0.000 A 
ATOM      6  C   UNL     1      45.008   3.951  10.668  0.00  0.00    +0.000 A 
ATOM      7  C   UNL     1      45.456   3.722  11.973  0.00  0.00    +0.000 A 
ATOM      8  C   UNL     1      45.933   4.777  12.755  0.00  0.00    +0.000 A 
BRANCH   6   9
ATOM      9  C   UNL     1      44.610   2.793   9.780  0.00  0.00    +0.000 C 
BRANCH   9  10
ATOM     10  C   UNL     1      45.570   2.487   8.645  0.00  0.00    +0.000 A 
ATOM     11  C   UNL     1      45.883   3.450   7.685  0.00  0.00    +0.000 A 
ATOM     12  C   UNL     1      46.684   3.097   6.601  0.00  0.00    +0.000 A 
ATOM     13  C   UNL     1      47.153   1.795   6.497  0.00  0.00    +0.000 A 
ATOM     14  C   UNL     1      46.811   0.900   7.495  0.00  0.00    +0.000 A 
ATOM     15  N   UNL     1      46.033   1.213   8.557  0.00  0.00    +0.000 NA
ENDBRANCH   9  10
ENDBRANCH   6   9
ENDBRANCH   2   3
BRANCH   2  16
ATOM     16  N   UNL     1      47.637   6.691  13.935  0.00  0.00    +0.000 N 
ATOM     17  C   UNL     1      48.232   7.466  14.898  0.00  0.00    +0.000 C 
ATOM     18  O   UNL     1      47.889   8.622  15.131  0.00  0.00    +0.000 OA
ATOM     19  H   UNL     1      48.084   5.822  13.668  0.00  0.00    +0.000 HD
BRANCH  17  20
ATOM     20  C   UNL     1      49.278   6.801  15.692  0.00  0.00    +0.000 A 
ATOM     21  C   UNL     1      50.557   7.332  15.753  0.00  0.00    +0.000 A 
ATOM     22  S   UNL     1      51.604   6.467  16.787  0.00  0.00    +0.000 S 
ATOM     23  C   UNL     1      50.396   5.323  17.148  0.00  0.00    +0.000 A 
ATOM     24  N   UNL     1      50.640   4.289  17.994  0.00  0.00    +0.000 NA
ATOM     25  C   UNL     1      49.647   3.475  18.146  0.00  0.00    +0.000 A 
ATOM     26  N   UNL     1      48.420   3.584  17.526  0.00  0.00    +0.000 N 
ATOM     27  C   UNL     1      47.384   2.598  17.753  0.00  0.00    +0.000 C 
ATOM     28  C   UNL     1      48.130   4.641  16.670  0.00  0.00    +0.000 A 
ATOM     29  O   UNL     1      47.035   4.775  16.128  0.00  0.00    +0.000 OA
ATOM     30  C   UNL     1      49.216   5.589  16.482  0.00  0.00    +0.000 A 
ENDBRANCH  17  20
ENDBRANCH   2  16
TORSDOF 5
ENDMDL
MODEL 2
REMARK VINA RESULT:    -7.901      1.950      2.333
REMARK INTER + INTRA:         -11.039
REMARK INTER:                  -9.980
REMARK INTRA:                  -1.059
REMARK UNBOUND:                -0.829
REMARK  Name = 
REMARK  7 active torsions:
REMARK  status: ('A' for Active; 'I' for Inactive)
REMARK    1  A    between atoms: C_1  and  C_2
REMARK    2  A    between atoms: C_2  and  N_3
REMARK    3  A    between atoms: C_2  and  C_17
REMARK    4  A    between atoms: C_4  and  C_6
REMARK    5  A    between atoms: N_12  and  C_13
REMARK    6  A    between atoms: C_20  and  C_21
REMARK    7  A    between atoms: C_21  and  C_22
REMARK                            x       y       z     vdW  Elec       q    Type
REMARK                         _______ _______ _______ _____ _____    ______ ____
ROOT
ATOM      1  C   UNL     1      49.413   7.419  13.143  0.00  0.00    +0.000 C 
ATOM      2  C   UNL     1      48.012   7.772  13.655  0.00  0.00    +0.000 C 
ENDROOT
BRANCH   2   3
ATOM      3  C   UNL     1      46.909   6.998  12.949  0.00  0.00    +0.000 A 
ATOM      4  C   UNL     1      46.018   7.687  12.113  0.00  0.00    +0.000 A 
ATOM      5  C   UNL     1      45.087   6.995  11.335  0.00  0.00    +0.000 A 
ATOM      6  C   UNL     1      45.025   5.596  11.374  0.00  0.00    +0.000 A 
ATOM      7  C   UNL     1      45.841   4.912  12.280  0.00  0.00    +0.000 A 
ATOM      8  C   UNL     1      46.757   5.608  13.075  0.00  0.00    +0.000 A 
BRANCH   6   9
ATOM      9  C   UNL     1      44.125   4.833  10.428  0.00  0.00    +0.000 C 
BRANCH   9  10
ATOM     10  C   UNL     1      44.843   3.961   9.413  0.00  0.00    +0.000 A 
ATOM     11  C   UNL     1      44.831   2.570   9.519  0.00  0.00    +0.000 A 
ATOM     12  C   UNL     1      45.591   1.811   8.630  0.00  0.00    +0.000 A 
ATOM     13  C   UNL     1      46.345   2.455   7.660  0.00  0.00    +0.000 A 
ATOM     14  C   UNL     1      46.296   3.837   7.609  0.00  0.00    +0.000 A 
ATOM     15  N   UNL     1      45.571   4.599   8.460  0.00  0.00    +0.000 NA
ENDBRANCH   9  10
ENDBRANCH   6   9
ENDBRANCH   2   3
BRANCH   2  16
ATOM     16  N   UNL     1      47.923   7.563  15.081  0.00  0.00    +0.000 N 
ATOM     17  C   UNL     1      48.593   8.344  15.989  0.00  0.00    +0.000 C 
ATOM     18  O   UNL     1      49.182   9.376  15.678  0.00  0.00    +0.000 OA
ATOM     19  H   UNL     1      47.622   6.639  15.365  0.00  0.00    +0.000 HD
BRANCH  17  20
ATOM     20  C   UNL     1      48.511   7.899  17.390  0.00  0.00    +0.000 A 
ATOM     21  C   UNL     1      48.277   8.815  18.404  0.00  0.00    +0.000 A 
ATOM     22  S   UNL     1      48.131   8.099  19.947  0.00  0.00    +0.000 S 
ATOM     23  C   UNL     1      48.430   6.545  19.317  0.00  0.00    +0.000 A 
ATOM     24  N   UNL     1      48.446   5.453  20.124  0.00  0.00    +0.000 NA
ATOM     25  C   UNL     1      48.724   4.344  19.519  0.00  0.00    +0.000 A 
ATOM     26  N   UNL     1      48.999   4.212  18.175  0.00  0.00    +0.000 N 
ATOM     27  C   UNL     1      49.321   2.919  17.607  0.00  0.00    +0.000 C 
ATOM     28  C   UNL     1      48.970   5.307  17.317  0.00  0.00    +0.000 A 
ATOM     29  O   UNL     1      49.184   5.210  16.110  0.00  0.00    +0.000 OA
ATOM     30  C   UNL     1      48.647   6.573  17.954  0.00  0.00    +0.000 A 
ENDBRANCH  17  20
ENDBRANCH   2  16
TORSDOF 5
ENDMDL
MODEL 3
REMARK VINA RESULT:    -7.854      2.931      3.746
REMARK INTER + INTRA:         -10.979
REMARK INTER:                  -9.986
REMARK INTRA:                  -0.993
REMARK UNBOUND:                -0.829
REMARK  Name = 
REMARK  7 active torsions:
REMARK  status: ('A' for Active; 'I' for Inactive)
REMARK    1  A    between atoms: C_1  and  C_2
REMARK    2  A    between atoms: C_2  and  N_3
REMARK    3  A    between atoms: C_2  and  C_17
REMARK    4  A    between atoms: C_4  and  C_6
REMARK    5  A    between atoms: N_12  and  C_13
REMARK    6  A    between atoms: C_20  and  C_21
REMARK    7  A    between atoms: C_21  and  C_22
REMARK                            x       y       z     vdW  Elec       q    Type
REMARK                         _______ _______ _______ _____ _____    ______ ____
ROOT
ATOM      1  C   UNL     1      47.168   4.431  15.864  0.00  0.00    +0.000 C 
ATOM      2  C   UNL     1      47.623   5.156  14.592  0.00  0.00    +0.000 C 
ENDROOT
BRANCH   2   3
ATOM      3  C   UNL     1      46.662   4.973  13.427  0.00  0.00    +0.000 A 
ATOM      4  C   UNL     1      46.562   5.983  12.459  0.00  0.00    +0.000 A 
ATOM      5  C   UNL     1      45.804   5.792  11.301  0.00  0.00    +0.000 A 
ATOM      6  C   UNL     1      45.129   4.584  11.083  0.00  0.00    +0.000 A 
ATOM      7  C   UNL     1      45.144   3.615  12.091  0.00  0.00    +0.000 A 
ATOM      8  C   UNL     1      45.884   3.817  13.259  0.00  0.00    +0.000 A 
BRANCH   6   9
ATOM      9  C   UNL     1      44.431   4.312   9.769  0.00  0.00    +0.000 C 
BRANCH   9  10
ATOM     10  C   UNL     1      45.239   3.517   8.759  0.00  0.00    +0.000 A 
ATOM     11  C   UNL     1      45.413   2.140   8.897  0.00  0.00    +0.000 A 
ATOM     12  C   UNL     1      46.250   1.466   8.010  0.00  0.00    +0.000 A 
ATOM     13  C   UNL     1      46.894   2.178   7.008  0.00  0.00    +0.000 A 
ATOM     14  C   UNL     1      46.662   3.539   6.927  0.00  0.00    +0.000 A 
ATOM     15  N   UNL     1      45.858   4.221   7.776  0.00  0.00    +0.000 NA
ENDBRANCH   9  10
ENDBRANCH   6   9
ENDBRANCH   2   3
BRANCH   2  16
ATOM     16  N   UNL     1      47.819   6.563  14.850  0.00  0.00    +0.000 N 
ATOM     17  C   UNL     1      48.966   7.062  15.415  0.00  0.00    +0.000 C 
ATOM     18  O   UNL     1      49.975   6.384  15.589  0.00  0.00    +0.000 OA
ATOM     19  H   UNL     1      46.971   7.114  14.906  0.00  0.00    +0.000 HD
BRANCH  17  20
ATOM     20  C   UNL     1      48.937   8.496  15.746  0.00  0.00    +0.000 A 
ATOM     21  C   UNL     1      49.374   9.437  14.827  0.00  0.00    +0.000 A 
ATOM     22  S   UNL     1      49.186  11.048  15.360  0.00  0.00    +0.000 S 
ATOM     23  C   UNL     1      48.562  10.538  16.860  0.00  0.00    +0.000 A 
ATOM     24  N   UNL     1      48.189  11.438  17.806  0.00  0.00    +0.000 NA
ATOM     25  C   UNL     1      47.770  10.912  18.911  0.00  0.00    +0.000 A 
ATOM     26  N   UNL     1      47.690   9.561  19.174  0.00  0.00    +0.000 N 
ATOM     27  C   UNL     1      47.226   9.083  20.460  0.00  0.00    +0.000 C 
ATOM     28  C   UNL     1      48.043   8.613  18.220  0.00  0.00    +0.000 A 
ATOM     29  O   UNL     1      47.954   7.404  18.422  0.00  0.00    +0.000 OA
ATOM     30  C   UNL     1      48.507   9.162  16.957  0.00  0.00    +0.000 A 
ENDBRANCH  17  20
ENDBRANCH   2  16
TORSDOF 5
ENDMDL
MODEL 4
REMARK VINA RESULT:    -7.765      1.876      2.808
REMARK INTER + INTRA:         -10.863
REMARK INTER:                  -9.846
REMARK INTRA:                  -1.017
REMARK UNBOUND:                -0.829
REMARK  Name = 
REMARK  7 active torsions:
REMARK  status: ('A' for Active; 'I' for Inactive)
REMARK    1  A    between atoms: C_1  and  C_2
REMARK    2  A    between atoms: C_2  and  N_3
REMARK    3  A    between atoms: C_2  and  C_17
REMARK    4  A    between atoms: C_4  and  C_6
REMARK    5  A    between atoms: N_12  and  C_13
REMARK    6  A    between atoms: C_20  and  C_21
REMARK    7  A    between atoms: C_21  and  C_22
REMARK                            x       y       z     vdW  Elec       q    Type
REMARK                         _______ _______ _______ _____ _____    ______ ____
ROOT
ATOM      1  C   UNL     1      48.906   7.815  12.902  0.00  0.00    +0.000 C 
ATOM      2  C   UNL     1      47.716   7.297  13.717  0.00  0.00    +0.000 C 
ENDROOT
BRANCH   2   3
ATOM      3  C   UNL     1      46.688   6.564  12.869  0.00  0.00    +0.000 A 
ATOM      4  C   UNL     1      45.956   7.281  11.912  0.00  0.00    +0.000 A 
ATOM      5  C   UNL     1      45.111   6.623  11.015  0.00  0.00    +0.000 A 
ATOM      6  C   UNL     1      44.980   5.228  11.054  0.00  0.00    +0.000 A 
ATOM      7  C   UNL     1      45.629   4.520  12.070  0.00  0.00    +0.000 A 
ATOM      8  C   UNL     1      46.456   5.184  12.981  0.00  0.00    +0.000 A 
BRANCH   6   9
ATOM      9  C   UNL     1      44.187   4.494   9.995  0.00  0.00    +0.000 C 
BRANCH   9  10
ATOM     10  C   UNL     1      45.013   3.677   9.018  0.00  0.00    +0.000 A 
ATOM     11  C   UNL     1      45.157   2.298   9.171  0.00  0.00    +0.000 A 
ATOM     12  C   UNL     1      46.009   1.601   8.316  0.00  0.00    +0.000 A 
ATOM     13  C   UNL     1      46.700   2.294   7.332  0.00  0.00    +0.000 A 
ATOM     14  C   UNL     1      46.496   3.659   7.234  0.00  0.00    +0.000 A 
ATOM     15  N   UNL     1      45.677   4.362   8.051  0.00  0.00    +0.000 NA
ENDBRANCH   9  10
ENDBRANCH   6   9
ENDBRANCH   2   3
BRANCH   2  16
ATOM     16  N   UNL     1      48.167   6.442  14.790  0.00  0.00    +0.000 N 
ATOM     17  C   UNL     1      48.651   6.931  15.977  0.00  0.00    +0.000 C 
ATOM     18  O   UNL     1      48.583   8.118  16.288  0.00  0.00    +0.000 OA
ATOM     19  H   UNL     1      48.419   5.500  14.515  0.00  0.00    +0.000 HD
BRANCH  17  20
ATOM     20  C   UNL     1      49.207   5.926  16.897  0.00  0.00    +0.000 A 
ATOM     21  C   UNL     1      48.368   5.174  17.704  0.00  0.00    +0.000 A 
ATOM     22  S   UNL     1      49.190   4.006  18.639  0.00  0.00    +0.000 S 
ATOM     23  C   UNL     1      50.702   4.503  18.035  0.00  0.00    +0.000 A 
ATOM     24  N   UNL     1      51.850   3.900  18.436  0.00  0.00    +0.000 NA
ATOM     25  C   UNL     1      52.927   4.404  17.927  0.00  0.00    +0.000 A 
ATOM     26  N   UNL     1      52.977   5.468  17.052  0.00  0.00    +0.000 N 
ATOM     27  C   UNL     1      54.245   5.967  16.562  0.00  0.00    +0.000 C 
ATOM     28  C   UNL     1      51.819   6.095  16.605  0.00  0.00    +0.000 A 
ATOM     29  O   UNL     1      51.836   7.028  15.804  0.00  0.00    +0.000 OA
ATOM     30  C   UNL     1      50.583   5.550  17.142  0.00  0.00    +0.000 A 
ENDBRANCH  17  20
ENDBRANCH   2  16
TORSDOF 5
ENDMDL
MODEL 5
REMARK VINA RESULT:    -7.463      2.319      4.296
REMARK INTER + INTRA:         -10.473
REMARK INTER:                  -9.466
REMARK INTRA:                  -1.008
REMARK UNBOUND:                -0.829
REMARK  Name = 
REMARK  7 active torsions:
REMARK  status: ('A' for Active; 'I' for Inactive)
REMARK    1  A    between atoms: C_1  and  C_2
REMARK    2  A    between atoms: C_2  and  N_3
REMARK    3  A    between atoms: C_2  and  C_17
REMARK    4  A    between atoms: C_4  and  C_6
REMARK    5  A    between atoms: N_12  and  C_13
REMARK    6  A    between atoms: C_20  and  C_21
REMARK    7  A    between atoms: C_21  and  C_22
REMARK                            x       y       z     vdW  Elec       q    Type
REMARK                         _______ _______ _______ _____ _____    ______ ____
ROOT
ATOM      1  C   UNL     1      47.027   3.911  16.297  0.00  0.00    +0.000 C 
ATOM      2  C   UNL     1      47.540   4.632  15.046  0.00  0.00    +0.000 C 
ENDROOT
BRANCH   2   3
ATOM      3  C   UNL     1      46.589   4.521  13.864  0.00  0.00    +0.000 A 
ATOM      4  C   UNL     1      46.113   5.694  13.258  0.00  0.00    +0.000 A 
ATOM      5  C   UNL     1      45.357   5.637  12.084  0.00  0.00    +0.000 A 
ATOM      6  C   UNL     1      45.060   4.405  11.487  0.00  0.00    +0.000 A 
ATOM      7  C   UNL     1      45.446   3.231  12.142  0.00  0.00    +0.000 A 
ATOM      8  C   UNL     1      46.183   3.289  13.329  0.00  0.00    +0.000 A 
BRANCH   6   9
ATOM      9  C   UNL     1      44.374   4.341  10.141  0.00  0.00    +0.000 C 
BRANCH   9  10
ATOM     10  C   UNL     1      45.146   3.615   9.054  0.00  0.00    +0.000 A 
ATOM     11  C   UNL     1      45.287   2.227   9.072  0.00  0.00    +0.000 A 
ATOM     12  C   UNL     1      46.093   1.611   8.117  0.00  0.00    +0.000 A 
ATOM     13  C   UNL     1      46.740   2.390   7.168  0.00  0.00    +0.000 A 
ATOM     14  C   UNL     1      46.541   3.758   7.206  0.00  0.00    +0.000 A 
ATOM     15  N   UNL     1      45.768   4.384   8.123  0.00  0.00    +0.000 NA
ENDBRANCH   9  10
ENDBRANCH   6   9
ENDBRANCH   2   3
BRANCH   2  16
ATOM     16  N   UNL     1      47.808   6.021  15.332  0.00  0.00    +0.000 N 
ATOM     17  C   UNL     1      48.932   6.439  15.998  0.00  0.00    +0.000 C 
ATOM     18  O   UNL     1      49.874   5.693  16.253  0.00  0.00    +0.000 OA
ATOM     19  H   UNL     1      46.998   6.629  15.318  0.00  0.00    +0.000 HD
BRANCH  17  20
ATOM     20  C   UNL     1      48.973   7.871  16.337  0.00  0.00    +0.000 A 
ATOM     21  C   UNL     1      49.048   8.276  17.661  0.00  0.00    +0.000 A 
ATOM     22  S   UNL     1      49.170   9.969  17.848  0.00  0.00    +0.000 S 
ATOM     23  C   UNL     1      49.073  10.219  16.167  0.00  0.00    +0.000 A 
ATOM     24  N   UNL     1      49.120  11.470  15.641  0.00  0.00    +0.000 NA
ATOM     25  C   UNL     1      48.997  11.516  14.355  0.00  0.00    +0.000 A 
ATOM     26  N   UNL     1      48.822  10.426  13.528  0.00  0.00    +0.000 N 
ATOM     27  C   UNL     1      48.671  10.597  12.097  0.00  0.00    +0.000 C 
ATOM     28  C   UNL     1      48.790   9.130  14.032  0.00  0.00    +0.000 A 
ATOM     29  O   UNL     1      48.663   8.141  13.312  0.00  0.00    +0.000 OA
ATOM     30  C   UNL     1      48.940   9.032  15.474  0.00  0.00    +0.000 A 
ENDBRANCH  17  20
ENDBRANCH   2  16
TORSDOF 5
ENDMDL
MODEL 6
REMARK VINA RESULT:    -7.407      4.452      7.632
REMARK INTER + INTRA:         -10.401
REMARK INTER:                  -9.269
REMARK INTRA:                  -1.132
REMARK UNBOUND:                -0.829
REMARK  Name = 
REMARK  7 active torsions:
REMARK  status: ('A' for Active; 'I' for Inactive)
REMARK    1  A    between atoms: C_1  and  C_2
REMARK    2  A    between atoms: C_2  and  N_3
REMARK    3  A    between atoms: C_2  and  C_17
REMARK    4  A    between atoms: C_4  and  C_6
REMARK    5  A    between atoms: N_12  and  C_13
REMARK    6  A    between atoms: C_20  and  C_21
REMARK    7  A    between atoms: C_21  and  C_22
REMARK                            x       y       z     vdW  Elec       q    Type
REMARK                         _______ _______ _______ _____ _____    ______ ____
ROOT
ATOM      1  C   UNL     1      46.451   8.878  13.598  0.00  0.00    +0.000 C 
ATOM      2  C   UNL     1      46.813   8.467  12.167  0.00  0.00    +0.000 C 
ENDROOT
BRANCH   2   3
ATOM      3  C   UNL     1      48.306   8.550  11.883  0.00  0.00    +0.000 A 
ATOM      4  C   UNL     1      49.032   7.365  11.694  0.00  0.00    +0.000 A 
ATOM      5  C   UNL     1      50.368   7.402  11.288  0.00  0.00    +0.000 A 
ATOM      6  C   UNL     1      51.011   8.627  11.062  0.00  0.00    +0.000 A 
ATOM      7  C   UNL     1      50.321   9.810  11.347  0.00  0.00    +0.000 A 
ATOM      8  C   UNL     1      48.991   9.771  11.775  0.00  0.00    +0.000 A 
BRANCH   6   9
ATOM      9  C   UNL     1      52.406   8.675  10.481  0.00  0.00    +0.000 C 
BRANCH   9  10
ATOM     10  C   UNL     1      52.815   7.454   9.677  0.00  0.00    +0.000 A 
ATOM     11  C   UNL     1      53.625   6.462  10.232  0.00  0.00    +0.000 A 
ATOM     12  C   UNL     1      54.065   5.412   9.429  0.00  0.00    +0.000 A 
ATOM     13  C   UNL     1      53.691   5.375   8.093  0.00  0.00    +0.000 A 
ATOM     14  C   UNL     1      52.876   6.386   7.619  0.00  0.00    +0.000 A 
ATOM     15  N   UNL     1      52.436   7.420   8.374  0.00  0.00    +0.000 NA
ENDBRANCH   9  10
ENDBRANCH   6   9
ENDBRANCH   2   3
BRANCH   2  16
ATOM     16  N   UNL     1      46.334   7.135  11.883  0.00  0.00    +0.000 N 
ATOM     17  C   UNL     1      45.036   6.874  11.524  0.00  0.00    +0.000 C 
ATOM     18  O   UNL     1      44.226   7.757  11.252  0.00  0.00    +0.000 OA
ATOM     19  H   UNL     1      46.890   6.383  12.272  0.00  0.00    +0.000 HD
BRANCH  17  20
ATOM     20  C   UNL     1      44.681   5.449  11.419  0.00  0.00    +0.000 A 
ATOM     21  C   UNL     1      44.001   4.818  12.449  0.00  0.00    +0.000 A 
ATOM     22  S   UNL     1      43.607   3.192  12.108  0.00  0.00    +0.000 S 
ATOM     23  C   UNL     1      44.379   3.263  10.593  0.00  0.00    +0.000 A 
ATOM     24  N   UNL     1      44.409   2.183   9.771  0.00  0.00    +0.000 NA
ATOM     25  C   UNL     1      45.062   2.365   8.669  0.00  0.00    +0.000 A 
ATOM     26  N   UNL     1      45.704   3.529   8.302  0.00  0.00    +0.000 N 
ATOM     27  C   UNL     1      46.428   3.614   7.051  0.00  0.00    +0.000 C 
ATOM     28  C   UNL     1      45.674   4.660   9.111  0.00  0.00    +0.000 A 
ATOM     29  O   UNL     1      46.215   5.718   8.793  0.00  0.00    +0.000 OA
ATOM     30  C   UNL     1      44.937   4.503  10.354  0.00  0.00    +0.000 A 
ENDBRANCH  17  20
ENDBRANCH   2  16
TORSDOF 5
ENDMDL
MODEL 7
REMARK VINA RESULT:    -7.356      2.575      3.106
REMARK INTER + INTRA:         -10.335
REMARK INTER:                 -10.327
REMARK INTRA:                  -0.008
REMARK UNBOUND:                -0.829
REMARK  Name = 
REMARK  7 active torsions:
REMARK  status: ('A' for Active; 'I' for Inactive)
REMARK    1  A    between atoms: C_1  and  C_2
REMARK    2  A    between atoms: C_2  and  N_3
REMARK    3  A    between atoms: C_2  and  C_17
REMARK    4  A    between atoms: C_4  and  C_6
REMARK    5  A    between atoms: N_12  and  C_13
REMARK    6  A    between atoms: C_20  and  C_21
REMARK    7  A    between atoms: C_21  and  C_22
REMARK                            x       y       z     vdW  Elec       q    Type
REMARK                         _______ _______ _______ _____ _____    ______ ____
ROOT
ATOM      1  C   UNL     1      49.285   7.275  13.064  0.00  0.00    +0.000 C 
ATOM      2  C   UNL     1      47.885   7.442  13.667  0.00  0.00    +0.000 C 
ENDROOT
BRANCH   2   3
ATOM      3  C   UNL     1      46.813   6.686  12.897  0.00  0.00    +0.000 A 
ATOM      4  C   UNL     1      46.117   7.343  11.871  0.00  0.00    +0.000 A 
ATOM      5  C   UNL     1      45.231   6.645  11.046  0.00  0.00    +0.000 A 
ATOM      6  C   UNL     1      45.021   5.272  11.227  0.00  0.00    +0.000 A 
ATOM      7  C   UNL     1      45.635   4.635  12.310  0.00  0.00    +0.000 A 
ATOM      8  C   UNL     1      46.503   5.340  13.149  0.00  0.00    +0.000 A 
BRANCH   6   9
ATOM      9  C   UNL     1      44.182   4.480  10.249  0.00  0.00    +0.000 C 
BRANCH   9  10
ATOM     10  C   UNL     1      44.965   3.701   9.207  0.00  0.00    +0.000 A 
ATOM     11  C   UNL     1      45.109   2.317   9.298  0.00  0.00    +0.000 A 
ATOM     12  C   UNL     1      45.924   1.654   8.382  0.00  0.00    +0.000 A 
ATOM     13  C   UNL     1      46.576   2.385   7.399  0.00  0.00    +0.000 A 
ATOM     14  C   UNL     1      46.373   3.753   7.364  0.00  0.00    +0.000 A 
ATOM     15  N   UNL     1      45.591   4.423   8.242  0.00  0.00    +0.000 NA
ENDBRANCH   9  10
ENDBRANCH   6   9
ENDBRANCH   2   3
BRANCH   2  16
ATOM     16  N   UNL     1      47.876   7.034  15.051  0.00  0.00    +0.000 N 
ATOM     17  C   UNL     1      49.006   6.626  15.714  0.00  0.00    +0.000 C 
ATOM     18  O   UNL     1      50.134   6.735  15.240  0.00  0.00    +0.000 OA
ATOM     19  H   UNL     1      46.973   6.749  15.412  0.00  0.00    +0.000 HD
BRANCH  17  20
ATOM     20  C   UNL     1      48.791   6.103  17.072  0.00  0.00    +0.000 A 
ATOM     21  C   UNL     1      49.054   4.773  17.361  0.00  0.00    +0.000 A 
ATOM     22  S   UNL     1      48.824   4.375  19.005  0.00  0.00    +0.000 S 
ATOM     23  C   UNL     1      48.314   5.957  19.376  0.00  0.00    +0.000 A 
ATOM     24  N   UNL     1      47.960   6.301  20.640  0.00  0.00    +0.000 NA
ATOM     25  C   UNL     1      47.555   7.522  20.770  0.00  0.00    +0.000 A 
ATOM     26  N   UNL     1      47.460   8.447  19.752  0.00  0.00    +0.000 N 
ATOM     27  C   UNL     1      46.969   9.785  20.008  0.00  0.00    +0.000 C 
ATOM     28  C   UNL     1      47.834   8.133  18.450  0.00  0.00    +0.000 A 
ATOM     29  O   UNL     1      47.784   8.948  17.530  0.00  0.00    +0.000 OA
ATOM     30  C   UNL     1      48.309   6.773  18.262  0.00  0.00    +0.000 A 
ENDBRANCH  17  20
ENDBRANCH   2  16
TORSDOF 5
ENDMDL
MODEL 8
REMARK VINA RESULT:    -7.072      1.713      2.489
REMARK INTER + INTRA:          -9.968
REMARK INTER:                  -8.602
REMARK INTRA:                  -1.366
REMARK UNBOUND:                -0.829
REMARK  Name = 
REMARK  7 active torsions:
REMARK  status: ('A' for Active; 'I' for Inactive)
REMARK    1  A    between atoms: C_1  and  C_2
REMARK    2  A    between atoms: C_2  and  N_3
REMARK    3  A    between atoms: C_2  and  C_17
REMARK    4  A    between atoms: C_4  and  C_6
REMARK    5  A    between atoms: N_12  and  C_13
REMARK    6  A    between atoms: C_20  and  C_21
REMARK    7  A    between atoms: C_21  and  C_22
REMARK                            x       y       z     vdW  Elec       q    Type
REMARK                         _______ _______ _______ _____ _____    ______ ____
ROOT
ATOM      1  C   UNL     1      50.303   8.368  11.732  0.00  0.00    +0.000 C 
ATOM      2  C   UNL     1      49.464   8.150  12.996  0.00  0.00    +0.000 C 
ENDROOT
BRANCH   2   3
ATOM      3  C   UNL     1      48.125   7.485  12.713  0.00  0.00    +0.000 A 
ATOM      4  C   UNL     1      47.088   8.247  12.156  0.00  0.00    +0.000 A 
ATOM      5  C   UNL     1      45.897   7.643  11.747  0.00  0.00    +0.000 A 
ATOM      6  C   UNL     1      45.715   6.260  11.884  0.00  0.00    +0.000 A 
ATOM      7  C   UNL     1      46.705   5.514  12.531  0.00  0.00    +0.000 A 
ATOM      8  C   UNL     1      47.887   6.123  12.960  0.00  0.00    +0.000 A 
BRANCH   6   9
ATOM      9  C   UNL     1      44.494   5.578  11.309  0.00  0.00    +0.000 C 
BRANCH   9  10
ATOM     10  C   UNL     1      44.780   4.497  10.282  0.00  0.00    +0.000 A 
ATOM     11  C   UNL     1      45.416   4.797   9.076  0.00  0.00    +0.000 A 
ATOM     12  C   UNL     1      45.563   3.798   8.116  0.00  0.00    +0.000 A 
ATOM     13  C   UNL     1      45.074   2.526   8.377  0.00  0.00    +0.000 A 
ATOM     14  C   UNL     1      44.467   2.302   9.600  0.00  0.00    +0.000 A 
ATOM     15  N   UNL     1      44.307   3.253  10.550  0.00  0.00    +0.000 NA
ENDBRANCH   9  10
ENDBRANCH   6   9
ENDBRANCH   2   3
BRANCH   2  16
ATOM     16  N   UNL     1      50.200   7.379  13.970  0.00  0.00    +0.000 N 
ATOM     17  C   UNL     1      50.771   7.939  15.084  0.00  0.00    +0.000 C 
ATOM     18  O   UNL     1      50.562   9.099  15.430  0.00  0.00    +0.000 OA
ATOM     19  H   UNL     1      50.554   6.490  13.638  0.00  0.00    +0.000 HD
BRANCH  17  20
ATOM     20  C   UNL     1      51.610   7.037  15.889  0.00  0.00    +0.000 A 
ATOM     21  C   UNL     1      52.984   7.213  15.936  0.00  0.00    +0.000 A 
ATOM     22  S   UNL     1      53.774   6.123  16.986  0.00  0.00    +0.000 S 
ATOM     23  C   UNL     1      52.310   5.344  17.372  0.00  0.00    +0.000 A 
ATOM     24  N   UNL     1      52.279   4.300  18.239  0.00  0.00    +0.000 NA
ATOM     25  C   UNL     1      51.107   3.779  18.410  0.00  0.00    +0.000 A 
ATOM     26  N   UNL     1      49.948   4.196  17.790  0.00  0.00    +0.000 N 
ATOM     27  C   UNL     1      48.690   3.523  18.039  0.00  0.00    +0.000 C 
ATOM     28  C   UNL     1      49.941   5.276  16.914  0.00  0.00    +0.000 A 
ATOM     29  O   UNL     1      48.916   5.684  16.371  0.00  0.00    +0.000 OA
ATOM     30  C   UNL     1      51.237   5.900  16.704  0.00  0.00    +0.000 A 
ENDBRANCH  17  20
ENDBRANCH   2  16
TORSDOF 5
ENDMDL
MODEL 9
REMARK VINA RESULT:    -6.874      2.599      3.639
REMARK INTER + INTRA:          -9.713
REMARK INTER:                  -8.343
REMARK INTRA:                  -1.370
REMARK UNBOUND:                -0.829
REMARK  Name = 
REMARK  7 active torsions:
REMARK  status: ('A' for Active; 'I' for Inactive)
REMARK    1  A    between atoms: C_1  and  C_2
REMARK    2  A    between atoms: C_2  and  N_3
REMARK    3  A    between atoms: C_2  and  C_17
REMARK    4  A    between atoms: C_4  and  C_6
REMARK    5  A    between atoms: N_12  and  C_13
REMARK    6  A    between atoms: C_20  and  C_21
REMARK    7  A    between atoms: C_21  and  C_22
REMARK                            x       y       z     vdW  Elec       q    Type
REMARK                         _______ _______ _______ _____ _____    ______ ____
ROOT
ATOM      1  C   UNL     1      50.601   8.238  12.897  0.00  0.00    +0.000 C 
ATOM      2  C   UNL     1      49.346   8.566  13.714  0.00  0.00    +0.000 C 
ENDROOT
BRANCH   2   3
ATOM      3  C   UNL     1      48.055   8.262  12.970  0.00  0.00    +0.000 A 
ATOM      4  C   UNL     1      47.886   6.999  12.383  0.00  0.00    +0.000 A 
ATOM      5  C   UNL     1      46.663   6.630  11.819  0.00  0.00    +0.000 A 
ATOM      6  C   UNL     1      45.577   7.516  11.829  0.00  0.00    +0.000 A 
ATOM      7  C   UNL     1      45.771   8.810  12.322  0.00  0.00    +0.000 A 
ATOM      8  C   UNL     1      47.003   9.186  12.865  0.00  0.00    +0.000 A 
BRANCH   6   9
ATOM      9  C   UNL     1      44.210   7.073  11.357  0.00  0.00    +0.000 C 
BRANCH   9  10
ATOM     10  C   UNL     1      43.880   5.613  11.609  0.00  0.00    +0.000 A 
ATOM     11  C   UNL     1      43.574   5.152  12.890  0.00  0.00    +0.000 A 
ATOM     12  C   UNL     1      43.382   3.787  13.096  0.00  0.00    +0.000 A 
ATOM     13  C   UNL     1      43.501   2.914  12.024  0.00  0.00    +0.000 A 
ATOM     14  C   UNL     1      43.794   3.447  10.782  0.00  0.00    +0.000 A 
ATOM     15  N   UNL     1      43.988   4.767  10.552  0.00  0.00    +0.000 NA
ENDBRANCH   9  10
ENDBRANCH   6   9
ENDBRANCH   2   3
BRANCH   2  16
ATOM     16  N   UNL     1      49.362   7.865  14.976  0.00  0.00    +0.000 N 
ATOM     17  C   UNL     1      48.829   8.390  16.125  0.00  0.00    +0.000 C 
ATOM     18  O   UNL     1      48.153   9.416  16.140  0.00  0.00    +0.000 OA
ATOM     19  H   UNL     1      50.058   7.133  15.054  0.00  0.00    +0.000 HD
BRANCH  17  20
ATOM     20  C   UNL     1      49.066   7.608  17.349  0.00  0.00    +0.000 A 
ATOM     21  C   UNL     1      49.529   8.228  18.500  0.00  0.00    +0.000 A 
ATOM     22  S   UNL     1      49.660   7.173  19.835  0.00  0.00    +0.000 S 
ATOM     23  C   UNL     1      49.152   5.840  18.905  0.00  0.00    +0.000 A 
ATOM     24  N   UNL     1      49.043   4.603  19.454  0.00  0.00    +0.000 NA
ATOM     25  C   UNL     1      48.685   3.678  18.625  0.00  0.00    +0.000 A 
ATOM     26  N   UNL     1      48.428   3.862  17.283  0.00  0.00    +0.000 N 
ATOM     27  C   UNL     1      48.055   2.745  16.439  0.00  0.00    +0.000 C 
ATOM     28  C   UNL     1      48.510   5.119  16.694  0.00  0.00    +0.000 A 
ATOM     29  O   UNL     1      48.258   5.313  15.506  0.00  0.00    +0.000 OA
ATOM     30  C   UNL     1      48.896   6.192  17.595  0.00  0.00    +0.000 A 
ENDBRANCH  17  20
ENDBRANCH   2  16
TORSDOF 5
ENDMDL
