MODEL 1
REMARK VINA RESULT:    -7.199      0.000      0.000
REMARK INTER + INTRA:         -11.435
REMARK INTER:                 -10.355
REMARK INTRA:                  -1.079
REMARK UNBOUND:                -1.079
REMARK  Name = 
REMARK  8 active torsions:
REMARK  status: ('A' for Active; 'I' for Inactive)
REMARK    1  A    between atoms: N_1  and  C_2
REMARK    2  A    between atoms: C_2  and  C_3
REMARK    3  A    between atoms: C_2  and  C_18
REMARK    4  A    between atoms: C_3  and  C_4
REMARK    5  A    between atoms: C_7  and  C_8
REMARK    6  A    between atoms: C_8  and  C_9
REMARK    7  A    between atoms: C_9  and  C_10
REMARK    8  A    between atoms: C_10  and  N_11
REMARK                            x       y       z     vdW  Elec       q    Type
REMARK                         _______ _______ _______ _____ _____    ______ ____
ROOT
ATOM      1  C   UNL     1      47.113   6.917  13.632  0.00  0.00    +0.000 C 
ENDROOT
BRANCH   1   2
ATOM      2  C   UNL     1      46.224   6.158  12.665  0.00  0.00    +0.000 A 
ATOM      3  C   UNL     1      46.366   6.260  11.277  0.00  0.00    +0.000 A 
ATOM      4  C   UNL     1      45.565   5.504  10.421  0.00  0.00    +0.000 A 
ATOM      5  C   UNL     1      44.611   4.613  10.935  0.00  0.00    +0.000 A 
ATOM      6  C   UNL     1      44.472   4.497  12.320  0.00  0.00    +0.000 A 
ATOM      7  C   UNL     1      45.273   5.260  13.175  0.00  0.00    +0.000 A 
BRANCH   5   8
ATOM      8  C   UNL     1      43.805   3.749   9.996  0.00  0.00    +0.000 C 
BRANCH   8   9
ATOM      9  C   UNL     1      44.541   3.577   8.664  0.00  0.00    +0.000 C 
BRANCH   9  10
ATOM     10  C   UNL     1      45.422   2.322   8.608  0.00  0.00    +0.000 C 
BRANCH  10  11
ATOM     11  N   UNL     1      46.746   2.530   8.014  0.00  0.00    +0.000 NA
ATOM     12  C   UNL     1      47.164   1.439   7.122  0.00  0.00    +0.000 C 
ATOM     13  C   UNL     1      47.788   2.150   5.934  0.00  0.00    +0.000 C 
ATOM     14  N   UNL     1      46.979   3.368   5.834  0.00  0.00    +0.000 NA
ATOM     15  C   UNL     1      46.808   3.760   7.228  0.00  0.00    +0.000 C 
ATOM     16  H   UNL     1      46.056   3.108   5.488  0.00  0.00    +0.000 HD
ENDBRANCH  10  11
ENDBRANCH   9  10
ENDBRANCH   8   9
ENDBRANCH   5   8
ENDBRANCH   1   2
BRANCH   1  17
ATOM     17  C   UNL     1      48.466   6.276  14.035  0.00  0.00    +0.000 C 
BRANCH  17  18
ATOM     18  C   UNL     1      48.588   6.197  15.549  0.00  0.00    +0.000 A 
ATOM     19  C   UNL     1      48.985   7.223  16.394  0.00  0.00    +0.000 A 
ATOM     20  S   UNL     1      48.977   6.782  18.045  0.00  0.00    +0.000 S 
ATOM     21  C   UNL     1      48.398   5.221  17.689  0.00  0.00    +0.000 A 
ATOM     22  N   UNL     1      48.128   4.324  18.675  0.00  0.00    +0.000 NA
ATOM     23  C   UNL     1      47.673   3.191  18.250  0.00  0.00    +0.000 A 
ATOM     24  N   UNL     1      47.474   2.869  16.932  0.00  0.00    +0.000 N 
ATOM     25  C   UNL     1      47.739   3.738  15.898  0.00  0.00    +0.000 A 
ATOM     26  O   UNL     1      47.545   3.423  14.730  0.00  0.00    +0.000 OA
ATOM     27  C   UNL     1      48.241   5.032  16.330  0.00  0.00    +0.000 A 
ATOM     28  H   UNL     1      47.113   1.965  16.667  0.00  0.00    +0.000 HD
ENDBRANCH  17  18
BRANCH  17  29
ATOM     29  N   UNL     1      49.619   7.002  13.492  0.00  0.00    +0.000 NA
ATOM     30  H   UNL     1      50.143   7.443  14.244  0.00  0.00    +0.000 HD
ATOM     31  H   UNL     1      49.311   7.725  12.847  0.00  0.00    +0.000 HD
ENDBRANCH  17  29
ENDBRANCH   1  17
TORSDOF 8
ENDMDL
MODEL 2
REMARK VINA RESULT:    -6.750      1.921      2.643
REMARK INTER + INTRA:         -10.789
REMARK INTER:                  -9.589
REMARK INTRA:                  -1.200
REMARK UNBOUND:                -1.079
REMARK  Name = 
REMARK  8 active torsions:
REMARK  status: ('A' for Active; 'I' for Inactive)
REMARK    1  A    between atoms: N_1  and  C_2
REMARK    2  A    between atoms: C_2  and  C_3
REMARK    3  A    between atoms: C_2  and  C_18
REMARK    4  A    between atoms: C_3  and  C_4
REMARK    5  A    between atoms: C_7  and  C_8
REMARK    6  A    between atoms: C_8  and  C_9
REMARK    7  A    between atoms: C_9  and  C_10
REMARK    8  A    between atoms: C_10  and  N_11
REMARK                            x       y       z     vdW  Elec       q    Type
REMARK                         _______ _______ _______ _____ _____    ______ ____
ROOT
ATOM      1  C   UNL     1      48.512   7.530  13.474  0.00  0.00    +0.000 C 
ENDROOT
BRANCH   1   2
ATOM      2  C   UNL     1      47.213   6.766  13.305  0.00  0.00    +0.000 A 
ATOM      3  C   UNL     1      47.066   5.436  13.712  0.00  0.00    +0.000 A 
ATOM      4  C   UNL     1      45.838   4.785  13.590  0.00  0.00    +0.000 A 
ATOM      5  C   UNL     1      44.720   5.455  13.071  0.00  0.00    +0.000 A 
ATOM      6  C   UNL     1      44.857   6.788  12.674  0.00  0.00    +0.000 A 
ATOM      7  C   UNL     1      46.091   7.436  12.793  0.00  0.00    +0.000 A 
BRANCH   5   8
ATOM      8  C   UNL     1      43.384   4.759  13.015  0.00  0.00    +0.000 C 
BRANCH   8   9
ATOM      9  C   UNL     1      43.047   4.364  11.574  0.00  0.00    +0.000 C 
BRANCH   9  10
ATOM     10  C   UNL     1      43.672   3.032  11.141  0.00  0.00    +0.000 C 
BRANCH  10  11
ATOM     11  N   UNL     1      44.858   3.161  10.290  0.00  0.00    +0.000 NA
ATOM     12  C   UNL     1      44.867   2.228   9.154  0.00  0.00    +0.000 C 
ATOM     13  C   UNL     1      45.354   3.069   7.987  0.00  0.00    +0.000 C 
ATOM     14  N   UNL     1      44.789   4.387   8.289  0.00  0.00    +0.000 NA
ATOM     15  C   UNL     1      44.989   4.504   9.729  0.00  0.00    +0.000 C 
ATOM     16  H   UNL     1      43.783   4.342   8.136  0.00  0.00    +0.000 HD
ENDBRANCH  10  11
ENDBRANCH   9  10
ENDBRANCH   8   9
ENDBRANCH   5   8
ENDBRANCH   1   2
BRANCH   1  17
ATOM     17  C   UNL     1      49.458   7.114  14.630  0.00  0.00    +0.000 C 
BRANCH  17  18
ATOM     18  C   UNL     1      48.968   7.687  15.950  0.00  0.00    +0.000 A 
ATOM     19  C   UNL     1      48.693   9.021  16.214  0.00  0.00    +0.000 A 
ATOM     20  S   UNL     1      48.132   9.296  17.805  0.00  0.00    +0.000 S 
ATOM     21  C   UNL     1      48.193   7.636  18.179  0.00  0.00    +0.000 A 
ATOM     22  N   UNL     1      47.798   7.169  19.394  0.00  0.00    +0.000 NA
ATOM     23  C   UNL     1      47.879   5.885  19.520  0.00  0.00    +0.000 A 
ATOM     24  N   UNL     1      48.331   5.028  18.549  0.00  0.00    +0.000 N 
ATOM     25  C   UNL     1      48.749   5.452  17.308  0.00  0.00    +0.000 A 
ATOM     26  O   UNL     1      49.141   4.659  16.459  0.00  0.00    +0.000 OA
ATOM     27  C   UNL     1      48.662   6.889  17.116  0.00  0.00    +0.000 A 
ATOM     28  H   UNL     1      48.368   4.033  18.711  0.00  0.00    +0.000 HD
ENDBRANCH  17  18
BRANCH  17  29
ATOM     29  N   UNL     1      50.845   7.533  14.403  0.00  0.00    +0.000 NA
ATOM     30  H   UNL     1      51.058   8.358  14.958  0.00  0.00    +0.000 HD
ATOM     31  H   UNL     1      50.992   7.758  13.423  0.00  0.00    +0.000 HD
ENDBRANCH  17  29
ENDBRANCH   1  17
TORSDOF 8
ENDMDL
MODEL 3
REMARK VINA RESULT:    -6.708      1.990      2.858
REMARK INTER + INTRA:         -10.728
REMARK INTER:                 -10.513
REMARK INTRA:                  -0.215
REMARK UNBOUND:                -1.079
REMARK  Name = 
REMARK  8 active torsions:
REMARK  status: ('A' for Active; 'I' for Inactive)
REMARK    1  A    between atoms: N_1  and  C_2
REMARK    2  A    between atoms: C_2  and  C_3
REMARK    3  A    between atoms: C_2  and  C_18
REMARK    4  A    between atoms: C_3  and  C_4
REMARK    5  A    between atoms: C_7  and  C_8
REMARK    6  A    between atoms: C_8  and  C_9
REMARK    7  A    between atoms: C_9  and  C_10
REMARK    8  A    between atoms: C_10  and  N_11
REMARK                            x       y       z     vdW  Elec       q    Type
REMARK                         _______ _______ _______ _____ _____    ______ ____
ROOT
ATOM      1  C   UNL     1      47.684   3.665  15.142  0.00  0.00    +0.000 C 
ENDROOT
BRANCH   1   2
ATOM      2  C   UNL     1      46.790   4.177  14.028  0.00  0.00    +0.000 A 
ATOM      3  C   UNL     1      46.717   5.532  13.688  0.00  0.00    +0.000 A 
ATOM      4  C   UNL     1      45.924   5.957  12.621  0.00  0.00    +0.000 A 
ATOM      5  C   UNL     1      45.197   5.032  11.857  0.00  0.00    +0.000 A 
ATOM      6  C   UNL     1      45.275   3.676  12.184  0.00  0.00    +0.000 A 
ATOM      7  C   UNL     1      46.067   3.254  13.257  0.00  0.00    +0.000 A 
BRANCH   5   8
ATOM      8  C   UNL     1      44.404   5.501  10.662  0.00  0.00    +0.000 C 
BRANCH   8   9
ATOM      9  C   UNL     1      44.336   4.399   9.601  0.00  0.00    +0.000 C 
BRANCH   9  10
ATOM     10  C   UNL     1      45.511   4.423   8.615  0.00  0.00    +0.000 C 
BRANCH  10  11
ATOM     11  N   UNL     1      45.555   3.288   7.688  0.00  0.00    +0.000 NA
ATOM     12  C   UNL     1      46.894   3.035   7.138  0.00  0.00    +0.000 C 
ATOM     13  C   UNL     1      47.034   1.523   7.184  0.00  0.00    +0.000 C 
ATOM     14  N   UNL     1      46.289   1.173   8.396  0.00  0.00    +0.000 NA
ATOM     15  C   UNL     1      45.121   2.044   8.322  0.00  0.00    +0.000 C 
ATOM     16  H   UNL     1      46.832   1.479   9.201  0.00  0.00    +0.000 HD
ENDBRANCH  10  11
ENDBRANCH   9  10
ENDBRANCH   8   9
ENDBRANCH   5   8
ENDBRANCH   1   2
BRANCH   1  17
ATOM     17  C   UNL     1      47.352   4.088  16.597  0.00  0.00    +0.000 C 
BRANCH  17  18
ATOM     18  C   UNL     1      48.607   4.553  17.316  0.00  0.00    +0.000 A 
ATOM     19  C   UNL     1      48.783   5.772  17.954  0.00  0.00    +0.000 A 
ATOM     20  S   UNL     1      50.320   5.940  18.682  0.00  0.00    +0.000 S 
ATOM     21  C   UNL     1      50.784   4.373  18.209  0.00  0.00    +0.000 A 
ATOM     22  N   UNL     1      51.996   3.859  18.552  0.00  0.00    +0.000 NA
ATOM     23  C   UNL     1      52.194   2.649  18.141  0.00  0.00    +0.000 A 
ATOM     24  N   UNL     1      51.299   1.912  17.409  0.00  0.00    +0.000 N 
ATOM     25  C   UNL     1      50.066   2.390  17.030  0.00  0.00    +0.000 A 
ATOM     26  O   UNL     1      49.285   1.703  16.380  0.00  0.00    +0.000 OA
ATOM     27  C   UNL     1      49.792   3.743  17.482  0.00  0.00    +0.000 A 
ATOM     28  H   UNL     1      51.516   0.970  17.120  0.00  0.00    +0.000 HD
ENDBRANCH  17  18
BRANCH  17  29
ATOM     29  N   UNL     1      46.721   3.011  17.367  0.00  0.00    +0.000 NA
ATOM     30  H   UNL     1      45.710   3.049  17.262  0.00  0.00    +0.000 HD
ATOM     31  H   UNL     1      46.946   3.101  18.354  0.00  0.00    +0.000 HD
ENDBRANCH  17  29
ENDBRANCH   1  17
TORSDOF 8
ENDMDL
MODEL 4
REMARK VINA RESULT:    -6.595      3.334      7.803
REMARK INTER + INTRA:         -10.566
REMARK INTER:                  -9.493
REMARK INTRA:                  -1.073
REMARK UNBOUND:                -1.079
REMARK  Name = 
REMARK  8 active torsions:
REMARK  status: ('A' for Active; 'I' for Inactive)
REMARK    1  A    between atoms: N_1  and  C_2
REMARK    2  A    between atoms: C_2  and  C_3
REMARK    3  A    between atoms: C_2  and  C_18
REMARK    4  A    between atoms: C_3  and  C_4
REMARK    5  A    between atoms: C_7  and  C_8
REMARK    6  A    between atoms: C_8  and  C_9
REMARK    7  A    between atoms: C_9  and  C_10
REMARK    8  A    between atoms: C_10  and  N_11
REMARK                            x       y       z     vdW  Elec       q    Type
REMARK                         _______ _______ _______ _____ _____    ______ ____
ROOT
ATOM      1  C   UNL     1      47.357   7.177  11.474  0.00  0.00    +0.000 C 
ENDROOT
BRANCH   1   2
ATOM      2  C   UNL     1      48.178   7.172  12.749  0.00  0.00    +0.000 A 
ATOM      3  C   UNL     1      47.786   6.467  13.891  0.00  0.00    +0.000 A 
ATOM      4  C   UNL     1      48.596   6.442  15.027  0.00  0.00    +0.000 A 
ATOM      5  C   UNL     1      49.829   7.111  15.042  0.00  0.00    +0.000 A 
ATOM      6  C   UNL     1      50.232   7.808  13.900  0.00  0.00    +0.000 A 
ATOM      7  C   UNL     1      49.415   7.835  12.765  0.00  0.00    +0.000 A 
BRANCH   5   8
ATOM      8  C   UNL     1      50.724   7.013  16.252  0.00  0.00    +0.000 C 
BRANCH   8   9
ATOM      9  C   UNL     1      50.111   6.076  17.296  0.00  0.00    +0.000 C 
BRANCH   9  10
ATOM     10  C   UNL     1      50.912   4.785  17.509  0.00  0.00    +0.000 C 
BRANCH  10  11
ATOM     11  N   UNL     1      50.101   3.607  17.829  0.00  0.00    +0.000 NA
ATOM     12  C   UNL     1      48.691   3.745  17.437  0.00  0.00    +0.000 C 
ATOM     13  C   UNL     1      48.341   2.396  16.833  0.00  0.00    +0.000 C 
ATOM     14  N   UNL     1      49.598   2.000  16.193  0.00  0.00    +0.000 NA
ATOM     15  C   UNL     1      50.601   2.401  17.173  0.00  0.00    +0.000 C 
ATOM     16  H   UNL     1      49.736   2.590  15.375  0.00  0.00    +0.000 HD
ENDBRANCH  10  11
ENDBRANCH   9  10
ENDBRANCH   8   9
ENDBRANCH   5   8
ENDBRANCH   1   2
BRANCH   1  17
ATOM     17  C   UNL     1      45.826   6.957  11.591  0.00  0.00    +0.000 C 
BRANCH  17  18
ATOM     18  C   UNL     1      45.399   5.747  10.776  0.00  0.00    +0.000 A 
ATOM     19  C   UNL     1      45.714   5.500   9.448  0.00  0.00    +0.000 A 
ATOM     20  S   UNL     1      45.084   4.022   8.866  0.00  0.00    +0.000 S 
ATOM     21  C   UNL     1      44.409   3.642  10.382  0.00  0.00    +0.000 A 
ATOM     22  N   UNL     1      43.751   2.470  10.590  0.00  0.00    +0.000 NA
ATOM     23  C   UNL     1      43.317   2.313  11.798  0.00  0.00    +0.000 A 
ATOM     24  N   UNL     1      43.469   3.225  12.811  0.00  0.00    +0.000 N 
ATOM     25  C   UNL     1      44.119   4.427  12.649  0.00  0.00    +0.000 A 
ATOM     26  O   UNL     1      44.244   5.218  13.577  0.00  0.00    +0.000 OA
ATOM     27  C   UNL     1      44.637   4.641  11.308  0.00  0.00    +0.000 A 
ATOM     28  H   UNL     1      43.106   3.040  13.734  0.00  0.00    +0.000 HD
ENDBRANCH  17  18
BRANCH  17  29
ATOM     29  N   UNL     1      45.054   8.129  11.164  0.00  0.00    +0.000 NA
ATOM     30  H   UNL     1      44.063   7.980  11.341  0.00  0.00    +0.000 HD
ATOM     31  H   UNL     1      45.182   8.296  10.170  0.00  0.00    +0.000 HD
ENDBRANCH  17  29
ENDBRANCH   1  17
TORSDOF 8
ENDMDL
MODEL 5
REMARK VINA RESULT:    -6.404      2.788      3.673
REMARK INTER + INTRA:         -10.291
REMARK INTER:                  -9.231
REMARK INTRA:                  -1.060
REMARK UNBOUND:                -1.079
REMARK  Name = 
REMARK  8 active torsions:
REMARK  status: ('A' for Active; 'I' for Inactive)
REMARK    1  A    between atoms: N_1  and  C_2
REMARK    2  A    between atoms: C_2  and  C_3
REMARK    3  A    between atoms: C_2  and  C_18
REMARK    4  A    between atoms: C_3  and  C_4
REMARK    5  A    between atoms: C_7  and  C_8
REMARK    6  A    between atoms: C_8  and  C_9
REMARK    7  A    between atoms: C_9  and  C_10
REMARK    8  A    between atoms: C_10  and  N_11
REMARK                            x       y       z     vdW  Elec       q    Type
REMARK                         _______ _______ _______ _____ _____    ______ ____
ROOT
ATOM      1  C   UNL     1      48.376   7.457  13.208  0.00  0.00    +0.000 C 
ENDROOT
BRANCH   1   2
ATOM      2  C   UNL     1      47.025   6.769  13.170  0.00  0.00    +0.000 A 
ATOM      3  C   UNL     1      45.910   7.340  12.548  0.00  0.00    +0.000 A 
ATOM      4  C   UNL     1      44.698   6.651  12.487  0.00  0.00    +0.000 A 
ATOM      5  C   UNL     1      44.577   5.365  13.034  0.00  0.00    +0.000 A 
ATOM      6  C   UNL     1      45.691   4.784  13.645  0.00  0.00    +0.000 A 
ATOM      7  C   UNL     1      46.902   5.479  13.710  0.00  0.00    +0.000 A 
BRANCH   5   8
ATOM      8  C   UNL     1      43.281   4.606  12.893  0.00  0.00    +0.000 C 
BRANCH   8   9
ATOM      9  C   UNL     1      43.034   4.238  11.428  0.00  0.00    +0.000 C 
BRANCH   9  10
ATOM     10  C   UNL     1      43.757   2.958  10.986  0.00  0.00    +0.000 C 
BRANCH  10  11
ATOM     11  N   UNL     1      44.956   3.182  10.175  0.00  0.00    +0.000 NA
ATOM     12  C   UNL     1      45.154   2.166   9.132  0.00  0.00    +0.000 C 
ATOM     13  C   UNL     1      45.580   2.964   7.912  0.00  0.00    +0.000 C 
ATOM     14  N   UNL     1      44.821   4.208   8.067  0.00  0.00    +0.000 NA
ATOM     15  C   UNL     1      44.927   4.477   9.497  0.00  0.00    +0.000 C 
ATOM     16  H   UNL     1      43.840   4.006   7.880  0.00  0.00    +0.000 HD
ENDBRANCH  10  11
ENDBRANCH   9  10
ENDBRANCH   8   9
ENDBRANCH   5   8
ENDBRANCH   1   2
BRANCH   1  17
ATOM     17  C   UNL     1      48.725   8.313  14.453  0.00  0.00    +0.000 C 
BRANCH  17  18
ATOM     18  C   UNL     1      49.497   7.486  15.468  0.00  0.00    +0.000 A 
ATOM     19  C   UNL     1      48.952   6.733  16.498  0.00  0.00    +0.000 A 
ATOM     20  S   UNL     1      50.124   5.907  17.428  0.00  0.00    +0.000 S 
ATOM     21  C   UNL     1      51.395   6.492  16.458  0.00  0.00    +0.000 A 
ATOM     22  N   UNL     1      52.685   6.128  16.687  0.00  0.00    +0.000 NA
ATOM     23  C   UNL     1      53.534   6.633  15.853  0.00  0.00    +0.000 A 
ATOM     24  N   UNL     1      53.214   7.477  14.821  0.00  0.00    +0.000 N 
ATOM     25  C   UNL     1      51.925   7.881  14.553  0.00  0.00    +0.000 A 
ATOM     26  O   UNL     1      51.670   8.632  13.619  0.00  0.00    +0.000 OA
ATOM     27  C   UNL     1      50.933   7.326  15.458  0.00  0.00    +0.000 A 
ATOM     28  H   UNL     1      53.926   7.836  14.203  0.00  0.00    +0.000 HD
ENDBRANCH  17  18
BRANCH  17  29
ATOM     29  N   UNL     1      47.537   8.885  15.095  0.00  0.00    +0.000 NA
ATOM     30  H   UNL     1      46.775   8.212  15.089  0.00  0.00    +0.000 HD
ATOM     31  H   UNL     1      47.233   9.720  14.600  0.00  0.00    +0.000 HD
ENDBRANCH  17  29
ENDBRANCH   1  17
TORSDOF 8
ENDMDL
MODEL 6
REMARK VINA RESULT:    -6.344      3.084      4.853
REMARK INTER + INTRA:         -10.205
REMARK INTER:                  -9.212
REMARK INTRA:                  -0.993
REMARK UNBOUND:                -1.079
REMARK  Name = 
REMARK  8 active torsions:
REMARK  status: ('A' for Active; 'I' for Inactive)
REMARK    1  A    between atoms: N_1  and  C_2
REMARK    2  A    between atoms: C_2  and  C_3
REMARK    3  A    between atoms: C_2  and  C_18
REMARK    4  A    between atoms: C_3  and  C_4
REMARK    5  A    between atoms: C_7  and  C_8
REMARK    6  A    between atoms: C_8  and  C_9
REMARK    7  A    between atoms: C_9  and  C_10
REMARK    8  A    between atoms: C_10  and  N_11
REMARK                            x       y       z     vdW  Elec       q    Type
REMARK                         _______ _______ _______ _____ _____    ______ ____
ROOT
ATOM      1  C   UNL     1      47.892   6.434  13.980  0.00  0.00    +0.000 C 
ENDROOT
BRANCH   1   2
ATOM      2  C   UNL     1      46.818   5.836  13.092  0.00  0.00    +0.000 A 
ATOM      3  C   UNL     1      46.410   6.439  11.898  0.00  0.00    +0.000 A 
ATOM      4  C   UNL     1      45.458   5.829  11.080  0.00  0.00    +0.000 A 
ATOM      5  C   UNL     1      44.901   4.590  11.431  0.00  0.00    +0.000 A 
ATOM      6  C   UNL     1      45.314   3.976  12.616  0.00  0.00    +0.000 A 
ATOM      7  C   UNL     1      46.265   4.593  13.436  0.00  0.00    +0.000 A 
BRANCH   5   8
ATOM      8  C   UNL     1      43.929   3.911  10.499  0.00  0.00    +0.000 C 
BRANCH   8   9
ATOM      9  C   UNL     1      44.405   4.032   9.049  0.00  0.00    +0.000 C 
BRANCH   9  10
ATOM     10  C   UNL     1      44.946   2.718   8.469  0.00  0.00    +0.000 C 
BRANCH  10  11
ATOM     11  N   UNL     1      46.375   2.736   8.143  0.00  0.00    +0.000 NA
ATOM     12  C   UNL     1      46.847   1.492   7.517  0.00  0.00    +0.000 C 
ATOM     13  C   UNL     1      47.761   1.963   6.400  0.00  0.00    +0.000 C 
ATOM     14  N   UNL     1      47.116   3.205   5.965  0.00  0.00    +0.000 NA
ATOM     15  C   UNL     1      46.715   3.821   7.225  0.00  0.00    +0.000 C 
ATOM     16  H   UNL     1      46.258   2.960   5.473  0.00  0.00    +0.000 HD
ENDBRANCH  10  11
ENDBRANCH   9  10
ENDBRANCH   8   9
ENDBRANCH   5   8
ENDBRANCH   1   2
BRANCH   1  17
ATOM     17  C   UNL     1      47.935   7.977  14.135  0.00  0.00    +0.000 C 
BRANCH  17  18
ATOM     18  C   UNL     1      49.136   8.552  13.401  0.00  0.00    +0.000 A 
ATOM     19  C   UNL     1      50.458   8.166  13.563  0.00  0.00    +0.000 A 
ATOM     20  S   UNL     1      51.541   9.014  12.548  0.00  0.00    +0.000 S 
ATOM     21  C   UNL     1      50.273   9.891  11.826  0.00  0.00    +0.000 A 
ATOM     22  N   UNL     1      50.510  10.782  10.826  0.00  0.00    +0.000 NA
ATOM     23  C   UNL     1      49.446  11.352  10.362  0.00  0.00    +0.000 A 
ATOM     24  N   UNL     1      48.172  11.123  10.815  0.00  0.00    +0.000 N 
ATOM     25  C   UNL     1      47.882  10.238  11.828  0.00  0.00    +0.000 A 
ATOM     26  O   UNL     1      46.731  10.051  12.206  0.00  0.00    +0.000 OA
ATOM     27  C   UNL     1      49.048   9.562  12.371  0.00  0.00    +0.000 A 
ATOM     28  H   UNL     1      47.382  11.601  10.407  0.00  0.00    +0.000 HD
ENDBRANCH  17  18
BRANCH  17  29
ATOM     29  N   UNL     1      47.973   8.402  15.538  0.00  0.00    +0.000 NA
ATOM     30  H   UNL     1      47.277   7.893  16.078  0.00  0.00    +0.000 HD
ATOM     31  H   UNL     1      47.774   9.396  15.613  0.00  0.00    +0.000 HD
ENDBRANCH  17  29
ENDBRANCH   1  17
TORSDOF 8
ENDMDL
MODEL 7
REMARK VINA RESULT:    -6.318      2.868      8.076
REMARK INTER + INTRA:         -10.167
REMARK INTER:                  -9.600
REMARK INTRA:                  -0.567
REMARK UNBOUND:                -1.079
REMARK  Name = 
REMARK  8 active torsions:
REMARK  status: ('A' for Active; 'I' for Inactive)
REMARK    1  A    between atoms: N_1  and  C_2
REMARK    2  A    between atoms: C_2  and  C_3
REMARK    3  A    between atoms: C_2  and  C_18
REMARK    4  A    between atoms: C_3  and  C_4
REMARK    5  A    between atoms: C_7  and  C_8
REMARK    6  A    between atoms: C_8  and  C_9
REMARK    7  A    between atoms: C_9  and  C_10
REMARK    8  A    between atoms: C_10  and  N_11
REMARK                            x       y       z     vdW  Elec       q    Type
REMARK                         _______ _______ _______ _____ _____    ______ ____
ROOT
ATOM      1  C   UNL     1      46.796   6.640  11.590  0.00  0.00    +0.000 C 
ENDROOT
BRANCH   1   2
ATOM      2  C   UNL     1      47.708   6.787  12.792  0.00  0.00    +0.000 A 
ATOM      3  C   UNL     1      47.471   6.121  13.999  0.00  0.00    +0.000 A 
ATOM      4  C   UNL     1      48.364   6.238  15.065  0.00  0.00    +0.000 A 
ATOM      5  C   UNL     1      49.527   7.013  14.943  0.00  0.00    +0.000 A 
ATOM      6  C   UNL     1      49.775   7.671  13.736  0.00  0.00    +0.000 A 
ATOM      7  C   UNL     1      48.876   7.556  12.671  0.00  0.00    +0.000 A 
BRANCH   5   8
ATOM      8  C   UNL     1      50.517   7.069  16.079  0.00  0.00    +0.000 C 
BRANCH   8   9
ATOM      9  C   UNL     1      50.006   6.258  17.273  0.00  0.00    +0.000 C 
BRANCH   9  10
ATOM     10  C   UNL     1      50.783   4.956  17.509  0.00  0.00    +0.000 C 
BRANCH  10  11
ATOM     11  N   UNL     1      49.960   3.820  17.934  0.00  0.00    +0.000 NA
ATOM     12  C   UNL     1      48.522   4.122  17.971  0.00  0.00    +0.000 C 
ATOM     13  C   UNL     1      47.870   2.891  17.368  0.00  0.00    +0.000 C 
ATOM     14  N   UNL     1      48.852   2.471  16.365  0.00  0.00    +0.000 NA
ATOM     15  C   UNL     1      50.123   2.665  17.055  0.00  0.00    +0.000 C 
ATOM     16  H   UNL     1      48.830   3.142  15.599  0.00  0.00    +0.000 HD
ENDBRANCH  10  11
ENDBRANCH   9  10
ENDBRANCH   8   9
ENDBRANCH   5   8
ENDBRANCH   1   2
BRANCH   1  17
ATOM     17  C   UNL     1      45.265   6.594  11.836  0.00  0.00    +0.000 C 
BRANCH  17  18
ATOM     18  C   UNL     1      44.746   5.173  11.696  0.00  0.00    +0.000 A 
ATOM     19  C   UNL     1      44.048   4.455  12.656  0.00  0.00    +0.000 A 
ATOM     20  S   UNL     1      43.596   2.891  12.139  0.00  0.00    +0.000 S 
ATOM     21  C   UNL     1      44.276   3.138  10.598  0.00  0.00    +0.000 A 
ATOM     22  N   UNL     1      44.199   2.185   9.629  0.00  0.00    +0.000 NA
ATOM     23  C   UNL     1      44.740   2.528   8.506  0.00  0.00    +0.000 A 
ATOM     24  N   UNL     1      45.360   3.727   8.266  0.00  0.00    +0.000 N 
ATOM     25  C   UNL     1      45.470   4.718   9.214  0.00  0.00    +0.000 A 
ATOM     26  O   UNL     1      46.025   5.783   8.967  0.00  0.00    +0.000 OA
ATOM     27  C   UNL     1      44.863   4.383  10.491  0.00  0.00    +0.000 A 
ATOM     28  H   UNL     1      45.762   3.933   7.364  0.00  0.00    +0.000 HD
ENDBRANCH  17  18
BRANCH  17  29
ATOM     29  N   UNL     1      44.521   7.476  10.930  0.00  0.00    +0.000 NA
ATOM     30  H   UNL     1      44.154   8.275  11.441  0.00  0.00    +0.000 HD
ATOM     31  H   UNL     1      43.742   6.977  10.510  0.00  0.00    +0.000 HD
ENDBRANCH  17  29
ENDBRANCH   1  17
TORSDOF 8
ENDMDL
MODEL 8
REMARK VINA RESULT:    -6.308      2.936      3.970
REMARK INTER + INTRA:         -10.153
REMARK INTER:                  -9.556
REMARK INTRA:                  -0.597
REMARK UNBOUND:                -1.079
REMARK  Name = 
REMARK  8 active torsions:
REMARK  status: ('A' for Active; 'I' for Inactive)
REMARK    1  A    between atoms: N_1  and  C_2
REMARK    2  A    between atoms: C_2  and  C_3
REMARK    3  A    between atoms: C_2  and  C_18
REMARK    4  A    between atoms: C_3  and  C_4
REMARK    5  A    between atoms: C_7  and  C_8
REMARK    6  A    between atoms: C_8  and  C_9
REMARK    7  A    between atoms: C_9  and  C_10
REMARK    8  A    between atoms: C_10  and  N_11
REMARK                            x       y       z     vdW  Elec       q    Type
REMARK                         _______ _______ _______ _____ _____    ______ ____
ROOT
ATOM      1  C   UNL     1      47.736   6.376  13.685  0.00  0.00    +0.000 C 
ENDROOT
BRANCH   1   2
ATOM      2  C   UNL     1      46.715   5.660  12.822  0.00  0.00    +0.000 A 
ATOM      3  C   UNL     1      46.309   6.151  11.577  0.00  0.00    +0.000 A 
ATOM      4  C   UNL     1      45.408   5.435  10.788  0.00  0.00    +0.000 A 
ATOM      5  C   UNL     1      44.903   4.200  11.219  0.00  0.00    +0.000 A 
ATOM      6  C   UNL     1      45.315   3.697  12.456  0.00  0.00    +0.000 A 
ATOM      7  C   UNL     1      46.213   4.420  13.247  0.00  0.00    +0.000 A 
BRANCH   5   8
ATOM      8  C   UNL     1      43.988   3.405  10.321  0.00  0.00    +0.000 C 
BRANCH   8   9
ATOM      9  C   UNL     1      44.508   3.420   8.880  0.00  0.00    +0.000 C 
BRANCH   9  10
ATOM     10  C   UNL     1      45.328   2.177   8.510  0.00  0.00    +0.000 C 
BRANCH  10  11
ATOM     11  N   UNL     1      46.670   2.461   7.995  0.00  0.00    +0.000 NA
ATOM     12  C   UNL     1      47.196   1.402   7.121  0.00  0.00    +0.000 C 
ATOM     13  C   UNL     1      47.848   2.157   5.975  0.00  0.00    +0.000 C 
ATOM     14  N   UNL     1      46.982   3.331   5.836  0.00  0.00    +0.000 NA
ATOM     15  C   UNL     1      46.711   3.700   7.221  0.00  0.00    +0.000 C 
ATOM     16  H   UNL     1      46.096   3.025   5.437  0.00  0.00    +0.000 HD
ENDBRANCH  10  11
ENDBRANCH   9  10
ENDBRANCH   8   9
ENDBRANCH   5   8
ENDBRANCH   1   2
BRANCH   1  17
ATOM     17  C   UNL     1      47.732   7.927  13.685  0.00  0.00    +0.000 C 
BRANCH  17  18
ATOM     18  C   UNL     1      48.963   8.463  12.972  0.00  0.00    +0.000 A 
ATOM     19  C   UNL     1      48.973   9.214  11.806  0.00  0.00    +0.000 A 
ATOM     20  S   UNL     1      50.542   9.668  11.306  0.00  0.00    +0.000 S 
ATOM     21  C   UNL     1      51.257   8.915  12.655  0.00  0.00    +0.000 A 
ATOM     22  N   UNL     1      52.600   8.964  12.864  0.00  0.00    +0.000 NA
ATOM     23  C   UNL     1      52.990   8.367  13.943  0.00  0.00    +0.000 A 
ATOM     24  N   UNL     1      52.164   7.717  14.823  0.00  0.00    +0.000 N 
ATOM     25  C   UNL     1      50.801   7.634  14.653  0.00  0.00    +0.000 A 
ATOM     26  O   UNL     1      50.088   7.051  15.461  0.00  0.00    +0.000 OA
ATOM     27  C   UNL     1      50.314   8.304  13.458  0.00  0.00    +0.000 A 
ATOM     28  H   UNL     1      52.533   7.272  15.650  0.00  0.00    +0.000 HD
ENDBRANCH  17  18
BRANCH  17  29
ATOM     29  N   UNL     1      47.670   8.491  15.038  0.00  0.00    +0.000 NA
ATOM     30  H   UNL     1      47.597   7.746  15.726  0.00  0.00    +0.000 HD
ATOM     31  H   UNL     1      46.861   9.098  15.133  0.00  0.00    +0.000 HD
ENDBRANCH  17  29
ENDBRANCH   1  17
TORSDOF 8
ENDMDL
MODEL 9
REMARK VINA RESULT:    -6.256      3.336      8.488
REMARK INTER + INTRA:         -10.078
REMARK INTER:                  -9.637
REMARK INTRA:                  -0.441
REMARK UNBOUND:                -1.079
REMARK  Name = 
REMARK  8 active torsions:
REMARK  status: ('A' for Active; 'I' for Inactive)
REMARK    1  A    between atoms: N_1  and  C_2
REMARK    2  A    between atoms: C_2  and  C_3
REMARK    3  A    between atoms: C_2  and  C_18
REMARK    4  A    between atoms: C_3  and  C_4
REMARK    5  A    between atoms: C_7  and  C_8
REMARK    6  A    between atoms: C_8  and  C_9
REMARK    7  A    between atoms: C_9  and  C_10
REMARK    8  A    between atoms: C_10  and  N_11
REMARK                            x       y       z     vdW  Elec       q    Type
REMARK                         _______ _______ _______ _____ _____    ______ ____
ROOT
ATOM      1  C   UNL     1      46.763   5.833  13.165  0.00  0.00    +0.000 C 
ENDROOT
BRANCH   1   2
ATOM      2  C   UNL     1      47.448   5.576  14.493  0.00  0.00    +0.000 A 
ATOM      3  C   UNL     1      48.382   6.462  15.039  0.00  0.00    +0.000 A 
ATOM      4  C   UNL     1      48.950   6.218  16.290  0.00  0.00    +0.000 A 
ATOM      5  C   UNL     1      48.583   5.087  17.034  0.00  0.00    +0.000 A 
ATOM      6  C   UNL     1      47.640   4.205  16.500  0.00  0.00    +0.000 A 
ATOM      7  C   UNL     1      47.077   4.450  15.244  0.00  0.00    +0.000 A 
BRANCH   5   8
ATOM      8  C   UNL     1      49.151   4.878  18.416  0.00  0.00    +0.000 C 
BRANCH   8   9
ATOM      9  C   UNL     1      50.666   5.099  18.409  0.00  0.00    +0.000 C 
BRANCH   9  10
ATOM     10  C   UNL     1      51.469   3.866  18.845  0.00  0.00    +0.000 C 
BRANCH  10  11
ATOM     11  N   UNL     1      51.900   2.997  17.747  0.00  0.00    +0.000 NA
ATOM     12  C   UNL     1      53.109   2.220  18.057  0.00  0.00    +0.000 C 
ATOM     13  C   UNL     1      52.812   0.837  17.506  0.00  0.00    +0.000 C 
ATOM     14  N   UNL     1      51.369   0.710  17.730  0.00  0.00    +0.000 NA
ATOM     15  C   UNL     1      50.868   2.033  17.372  0.00  0.00    +0.000 C 
ATOM     16  H   UNL     1      51.212   0.599  18.730  0.00  0.00    +0.000 HD
ENDBRANCH  10  11
ENDBRANCH   9  10
ENDBRANCH   8   9
ENDBRANCH   5   8
ENDBRANCH   1   2
BRANCH   1  17
ATOM     17  C   UNL     1      45.213   5.885  13.140  0.00  0.00    +0.000 C 
BRANCH  17  18
ATOM     18  C   UNL     1      44.653   4.691  12.384  0.00  0.00    +0.000 A 
ATOM     19  C   UNL     1      43.846   3.692  12.910  0.00  0.00    +0.000 A 
ATOM     20  S   UNL     1      43.380   2.520  11.757  0.00  0.00    +0.000 S 
ATOM     21  C   UNL     1      44.202   3.334  10.507  0.00  0.00    +0.000 A 
ATOM     22  N   UNL     1      44.173   2.876   9.227  0.00  0.00    +0.000 NA
ATOM     23  C   UNL     1      44.823   3.613   8.387  0.00  0.00    +0.000 A 
ATOM     24  N   UNL     1      45.508   4.756   8.711  0.00  0.00    +0.000 N 
ATOM     25  C   UNL     1      45.573   5.255   9.992  0.00  0.00    +0.000 A 
ATOM     26  O   UNL     1      46.190   6.283  10.249  0.00  0.00    +0.000 OA
ATOM     27  C   UNL     1      44.844   4.465  10.970  0.00  0.00    +0.000 A 
ATOM     28  H   UNL     1      45.995   5.288   8.006  0.00  0.00    +0.000 HD
ENDBRANCH  17  18
BRANCH  17  29
ATOM     29  N   UNL     1      44.699   7.123  12.544  0.00  0.00    +0.000 NA
ATOM     30  H   UNL     1      44.070   7.590  13.193  0.00  0.00    +0.000 HD
ATOM     31  H   UNL     1      44.188   6.919  11.690  0.00  0.00    +0.000 HD
ENDBRANCH  17  29
ENDBRANCH   1  17
TORSDOF 8
ENDMDL
