MODEL 1
REMARK VINA RESULT:    -8.429      0.000      0.000
REMARK INTER + INTRA:         -11.833
REMARK INTER:                 -11.140
REMARK INTRA:                  -0.694
REMARK UNBOUND:                -0.694
REMARK  Name = 
REMARK  6 active torsions:
REMARK  status: ('A' for Active; 'I' for Inactive)
REMARK    1  A    between atoms: C_2  and  C_4
REMARK    2  A    between atoms: C_7  and  C_8
REMARK    3  A    between atoms: C_8  and  N_9
REMARK    4  A    between atoms: N_9  and  C_10
REMARK    5  A    between atoms: C_13  and  C_14
REMARK    6  A    between atoms: C_18  and  O_19
REMARK                            x       y       z     vdW  Elec       q    Type
REMARK                         _______ _______ _______ _____ _____    ______ ____
ROOT
ATOM      1  N   UNL     1      43.771   4.414  11.635  0.00  0.00    +0.000 N 
ATOM      2  H   UNL     1      43.734   3.421  11.849  0.00  0.00    +0.000 HD
ENDROOT
BRANCH   1   3
ATOM      3  C   UNL     1      44.918   4.954  12.248  0.00  0.00    +0.000 A 
ATOM      4  N   UNL     1      45.100   6.292  12.249  0.00  0.00    +0.000 NA
ATOM      5  C   UNL     1      46.197   6.789  12.871  0.00  0.00    +0.000 A 
ATOM      6  C   UNL     1      47.137   6.013  13.530  0.00  0.00    +0.000 A 
ATOM      7  C   UNL     1      46.936   4.631  13.543  0.00  0.00    +0.000 A 
ATOM      8  C   UNL     1      45.826   4.098  12.891  0.00  0.00    +0.000 A 
BRANCH   6   9
ATOM      9  C   UNL     1      48.330   6.581  14.200  0.00  0.00    +0.000 C 
ATOM     10  N   UNL     1      48.254   6.923  15.521  0.00  0.00    +0.000 N 
ATOM     11  O   UNL     1      49.374   6.752  13.579  0.00  0.00    +0.000 OA
ATOM     12  H   UNL     1      47.449   6.834  16.120  0.00  0.00    +0.000 HD
ATOM     13  H   UNL     1      49.094   7.314  15.934  0.00  0.00    +0.000 HD
ENDBRANCH   6   9
BRANCH   8  14
ATOM     14  O   UNL     1      45.629   2.742  12.858  0.00  0.00    +0.000 OA
ATOM     15  H   UNL     1      44.693   2.556  13.044  0.00  0.00    +0.000 HD
ENDBRANCH   8  14
ENDBRANCH   1   3
BRANCH   1  16
ATOM     16  C   UNL     1      43.687   4.709  10.211  0.00  0.00    +0.000 C 
BRANCH  16  20
ATOM     17  C   UNL     1      46.441   2.457   7.748  0.00  0.00    +0.000 A 
ATOM     18  C   UNL     1      45.604   1.780   8.641  0.00  0.00    +0.000 A 
ATOM     19  C   UNL     1      44.719   2.498   9.452  0.00  0.00    +0.000 A 
ATOM     20  C   UNL     1      44.675   3.899   9.398  0.00  0.00    +0.000 A 
ATOM     21  C   UNL     1      45.519   4.566   8.494  0.00  0.00    +0.000 A 
ATOM     22  C   UNL     1      46.402   3.853   7.683  0.00  0.00    +0.000 A 
BRANCH  17  24
ATOM     23  N   UNL     1      48.481   2.428   6.422  0.00  0.00    +0.000 N 
ATOM     24  C   UNL     1      47.387   1.737   6.856  0.00  0.00    +0.000 C 
ATOM     25  O   UNL     1      47.222   0.561   6.556  0.00  0.00    +0.000 OA
ATOM     26  H   UNL     1      49.175   1.893   5.914  0.00  0.00    +0.000 HD
ATOM     27  H   UNL     1      48.780   3.290   6.856  0.00  0.00    +0.000 HD
ENDBRANCH  17  24
ENDBRANCH  16  20
ENDBRANCH   1  16
TORSDOF 6
ENDMDL
MODEL 2
REMARK VINA RESULT:    -8.252      1.612      6.566
REMARK INTER + INTRA:         -11.599
REMARK INTER:                 -10.964
REMARK INTRA:                  -0.635
REMARK UNBOUND:                -0.694
REMARK  Name = 
REMARK  6 active torsions:
REMARK  status: ('A' for Active; 'I' for Inactive)
REMARK    1  A    between atoms: C_2  and  C_4
REMARK    2  A    between atoms: C_7  and  C_8
REMARK    3  A    between atoms: C_8  and  N_9
REMARK    4  A    between atoms: N_9  and  C_10
REMARK    5  A    between atoms: C_13  and  C_14
REMARK    6  A    between atoms: C_18  and  O_19
REMARK                            x       y       z     vdW  Elec       q    Type
REMARK                         _______ _______ _______ _____ _____    ______ ____
ROOT
ATOM      1  N   UNL     1      43.928   4.907   9.956  0.00  0.00    +0.000 N 
ATOM      2  H   UNL     1      43.138   5.188   9.380  0.00  0.00    +0.000 HD
ENDROOT
BRANCH   1   3
ATOM      3  C   UNL     1      44.781   4.107   9.173  0.00  0.00    +0.000 A 
ATOM      4  N   UNL     1      45.578   4.693   8.253  0.00  0.00    +0.000 NA
ATOM      5  C   UNL     1      46.411   3.904   7.532  0.00  0.00    +0.000 A 
ATOM      6  C   UNL     1      46.519   2.532   7.693  0.00  0.00    +0.000 A 
ATOM      7  C   UNL     1      45.708   1.932   8.658  0.00  0.00    +0.000 A 
ATOM      8  C   UNL     1      44.828   2.722   9.395  0.00  0.00    +0.000 A 
BRANCH   6   9
ATOM      9  C   UNL     1      47.437   1.692   6.890  0.00  0.00    +0.000 C 
ATOM     10  N   UNL     1      48.576   2.247   6.379  0.00  0.00    +0.000 N 
ATOM     11  O   UNL     1      47.178   0.512   6.675  0.00  0.00    +0.000 OA
ATOM     12  H   UNL     1      48.881   3.202   6.486  0.00  0.00    +0.000 HD
ATOM     13  H   UNL     1      49.170   1.634   5.831  0.00  0.00    +0.000 HD
ENDBRANCH   6   9
BRANCH   8  14
ATOM     14  O   UNL     1      43.995   2.150  10.321  0.00  0.00    +0.000 OA
ATOM     15  H   UNL     1      44.157   1.192  10.342  0.00  0.00    +0.000 HD
ENDBRANCH   8  14
ENDBRANCH   1   3
BRANCH   1  16
ATOM     16  C   UNL     1      44.611   6.024  10.594  0.00  0.00    +0.000 C 
BRANCH  16  20
ATOM     17  C   UNL     1      46.780   4.835  14.146  0.00  0.00    +0.000 A 
ATOM     18  C   UNL     1      47.351   5.762  13.267  0.00  0.00    +0.000 A 
ATOM     19  C   UNL     1      46.665   6.145  12.110  0.00  0.00    +0.000 A 
ATOM     20  C   UNL     1      45.414   5.589  11.803  0.00  0.00    +0.000 A 
ATOM     21  C   UNL     1      44.851   4.662  12.695  0.00  0.00    +0.000 A 
ATOM     22  C   UNL     1      45.531   4.279  13.851  0.00  0.00    +0.000 A 
BRANCH  17  24
ATOM     23  N   UNL     1      47.548   5.328  16.401  0.00  0.00    +0.000 N 
ATOM     24  C   UNL     1      47.464   4.410  15.394  0.00  0.00    +0.000 C 
ATOM     25  O   UNL     1      47.896   3.274  15.538  0.00  0.00    +0.000 OA
ATOM     26  H   UNL     1      47.908   4.990  17.285  0.00  0.00    +0.000 HD
ATOM     27  H   UNL     1      46.980   6.164  16.416  0.00  0.00    +0.000 HD
ENDBRANCH  17  24
ENDBRANCH  16  20
ENDBRANCH   1  16
TORSDOF 6
ENDMDL
MODEL 3
REMARK VINA RESULT:    -8.102      1.380      1.885
REMARK INTER + INTRA:         -11.401
REMARK INTER:                 -10.744
REMARK INTRA:                  -0.657
REMARK UNBOUND:                -0.694
REMARK  Name = 
REMARK  6 active torsions:
REMARK  status: ('A' for Active; 'I' for Inactive)
REMARK    1  A    between atoms: C_2  and  C_4
REMARK    2  A    between atoms: C_7  and  C_8
REMARK    3  A    between atoms: C_8  and  N_9
REMARK    4  A    between atoms: N_9  and  C_10
REMARK    5  A    between atoms: C_13  and  C_14
REMARK    6  A    between atoms: C_18  and  O_19
REMARK                            x       y       z     vdW  Elec       q    Type
REMARK                         _______ _______ _______ _____ _____    ______ ____
ROOT
ATOM      1  N   UNL     1      44.384   5.931  10.697  0.00  0.00    +0.000 N 
ATOM      2  H   UNL     1      43.767   6.703  10.935  0.00  0.00    +0.000 HD
ENDROOT
BRANCH   1   3
ATOM      3  C   UNL     1      45.092   5.561  11.857  0.00  0.00    +0.000 A 
ATOM      4  N   UNL     1      44.492   4.772  12.774  0.00  0.00    +0.000 NA
ATOM      5  C   UNL     1      45.204   4.405  13.867  0.00  0.00    +0.000 A 
ATOM      6  C   UNL     1      46.521   4.767  14.096  0.00  0.00    +0.000 A 
ATOM      7  C   UNL     1      47.145   5.567  13.136  0.00  0.00    +0.000 A 
ATOM      8  C   UNL     1      46.424   5.973  12.015  0.00  0.00    +0.000 A 
BRANCH   6   9
ATOM      9  C   UNL     1      47.277   4.354  15.301  0.00  0.00    +0.000 C 
ATOM     10  N   UNL     1      47.525   5.272  16.282  0.00  0.00    +0.000 N 
ATOM     11  O   UNL     1      47.687   3.204  15.418  0.00  0.00    +0.000 OA
ATOM     12  H   UNL     1      47.243   6.240  16.285  0.00  0.00    +0.000 HD
ATOM     13  H   UNL     1      48.051   4.944  17.084  0.00  0.00    +0.000 HD
ENDBRANCH   6   9
BRANCH   8  14
ATOM     14  O   UNL     1      47.004   6.789  11.079  0.00  0.00    +0.000 OA
ATOM     15  H   UNL     1      46.420   7.550  10.920  0.00  0.00    +0.000 HD
ENDBRANCH   8  14
ENDBRANCH   1   3
BRANCH   1  16
ATOM     16  C   UNL     1      43.703   4.815  10.057  0.00  0.00    +0.000 C 
BRANCH  16  20
ATOM     17  C   UNL     1      46.379   2.284   7.783  0.00  0.00    +0.000 A 
ATOM     18  C   UNL     1      45.495   1.705   8.701  0.00  0.00    +0.000 A 
ATOM     19  C   UNL     1      44.635   2.514   9.450  0.00  0.00    +0.000 A 
ATOM     20  C   UNL     1      44.662   3.909   9.312  0.00  0.00    +0.000 A 
ATOM     21  C   UNL     1      45.551   4.477   8.385  0.00  0.00    +0.000 A 
ATOM     22  C   UNL     1      46.410   3.674   7.634  0.00  0.00    +0.000 A 
BRANCH  17  24
ATOM     23  N   UNL     1      48.401   2.092   6.443  0.00  0.00    +0.000 N 
ATOM     24  C   UNL     1      47.300   1.466   6.954  0.00  0.00    +0.000 C 
ATOM     25  O   UNL     1      47.112   0.270   6.768  0.00  0.00    +0.000 OA
ATOM     26  H   UNL     1      49.078   1.500   5.982  0.00  0.00    +0.000 HD
ATOM     27  H   UNL     1      48.720   2.987   6.790  0.00  0.00    +0.000 HD
ENDBRANCH  17  24
ENDBRANCH  16  20
ENDBRANCH   1  16
TORSDOF 6
ENDMDL
MODEL 4
REMARK VINA RESULT:    -7.800      1.770      2.053
REMARK INTER + INTRA:         -11.002
REMARK INTER:                 -10.928
REMARK INTRA:                  -0.074
REMARK UNBOUND:                -0.694
REMARK  Name = 
REMARK  6 active torsions:
REMARK  status: ('A' for Active; 'I' for Inactive)
REMARK    1  A    between atoms: C_2  and  C_4
REMARK    2  A    between atoms: C_7  and  C_8
REMARK    3  A    between atoms: C_8  and  N_9
REMARK    4  A    between atoms: N_9  and  C_10
REMARK    5  A    between atoms: C_13  and  C_14
REMARK    6  A    between atoms: C_18  and  O_19
REMARK                            x       y       z     vdW  Elec       q    Type
REMARK                         _______ _______ _______ _____ _____    ______ ____
ROOT
ATOM      1  N   UNL     1      43.659   5.299  10.535  0.00  0.00    +0.000 N 
ATOM      2  H   UNL     1      42.731   5.619  10.797  0.00  0.00    +0.000 HD
ENDROOT
BRANCH   1   3
ATOM      3  C   UNL     1      44.594   5.902  11.398  0.00  0.00    +0.000 A 
ATOM      4  N   UNL     1      45.541   5.138  11.985  0.00  0.00    +0.000 NA
ATOM      5  C   UNL     1      46.447   5.747  12.788  0.00  0.00    +0.000 A 
ATOM      6  C   UNL     1      46.482   7.111  13.030  0.00  0.00    +0.000 A 
ATOM      7  C   UNL     1      45.513   7.900  12.406  0.00  0.00    +0.000 A 
ATOM      8  C   UNL     1      44.559   7.292  11.593  0.00  0.00    +0.000 A 
BRANCH   6   9
ATOM      9  C   UNL     1      47.482   7.751  13.914  0.00  0.00    +0.000 C 
ATOM     10  N   UNL     1      47.171   8.930  14.532  0.00  0.00    +0.000 N 
ATOM     11  O   UNL     1      48.584   7.239  14.086  0.00  0.00    +0.000 OA
ATOM     12  H   UNL     1      46.305   9.439  14.454  0.00  0.00    +0.000 HD
ATOM     13  H   UNL     1      47.891   9.333  15.122  0.00  0.00    +0.000 HD
ENDBRANCH   6   9
BRANCH   8  14
ATOM     14  O   UNL     1      43.575   8.040  11.001  0.00  0.00    +0.000 OA
ATOM     15  H   UNL     1      42.730   7.856  11.444  0.00  0.00    +0.000 HD
ENDBRANCH   8  14
ENDBRANCH   1   3
BRANCH   1  16
ATOM     16  C   UNL     1      43.781   3.849  10.476  0.00  0.00    +0.000 C 
BRANCH  16  20
ATOM     17  C   UNL     1      46.552   2.623   7.386  0.00  0.00    +0.000 A 
ATOM     18  C   UNL     1      46.035   1.668   8.267  0.00  0.00    +0.000 A 
ATOM     19  C   UNL     1      45.149   2.053   9.278  0.00  0.00    +0.000 A 
ATOM     20  C   UNL     1      44.787   3.399   9.437  0.00  0.00    +0.000 A 
ATOM     21  C   UNL     1      45.310   4.348   8.543  0.00  0.00    +0.000 A 
ATOM     22  C   UNL     1      46.193   3.967   7.532  0.00  0.00    +0.000 A 
BRANCH  17  24
ATOM     23  N   UNL     1      47.463   3.041   5.169  0.00  0.00    +0.000 N 
ATOM     24  C   UNL     1      47.484   2.259   6.288  0.00  0.00    +0.000 C 
ATOM     25  O   UNL     1      48.271   1.326   6.392  0.00  0.00    +0.000 OA
ATOM     26  H   UNL     1      48.181   2.855   4.481  0.00  0.00    +0.000 HD
ATOM     27  H   UNL     1      47.030   3.954   5.158  0.00  0.00    +0.000 HD
ENDBRANCH  17  24
ENDBRANCH  16  20
ENDBRANCH   1  16
TORSDOF 6
ENDMDL
MODEL 5
REMARK VINA RESULT:    -7.760      1.828      6.640
REMARK INTER + INTRA:         -10.949
REMARK INTER:                 -10.353
REMARK INTRA:                  -0.596
REMARK UNBOUND:                -0.694
REMARK  Name = 
REMARK  6 active torsions:
REMARK  status: ('A' for Active; 'I' for Inactive)
REMARK    1  A    between atoms: C_2  and  C_4
REMARK    2  A    between atoms: C_7  and  C_8
REMARK    3  A    between atoms: C_8  and  N_9
REMARK    4  A    between atoms: N_9  and  C_10
REMARK    5  A    between atoms: C_13  and  C_14
REMARK    6  A    between atoms: C_18  and  O_19
REMARK                            x       y       z     vdW  Elec       q    Type
REMARK                         _______ _______ _______ _____ _____    ______ ____
ROOT
ATOM      1  N   UNL     1      43.759   4.762   9.915  0.00  0.00    +0.000 N 
ATOM      2  H   UNL     1      44.046   5.672   9.566  0.00  0.00    +0.000 HD
ENDROOT
BRANCH   1   3
ATOM      3  C   UNL     1      44.570   3.782   9.311  0.00  0.00    +0.000 A 
ATOM      4  N   UNL     1      44.253   2.477   9.460  0.00  0.00    +0.000 NA
ATOM      5  C   UNL     1      45.032   1.555   8.845  0.00  0.00    +0.000 A 
ATOM      6  C   UNL     1      46.124   1.863   8.050  0.00  0.00    +0.000 A 
ATOM      7  C   UNL     1      46.438   3.214   7.883  0.00  0.00    +0.000 A 
ATOM      8  C   UNL     1      45.662   4.178   8.523  0.00  0.00    +0.000 A 
BRANCH   6   9
ATOM      9  C   UNL     1      46.962   0.835   7.390  0.00  0.00    +0.000 C 
ATOM     10  N   UNL     1      46.753  -0.484   7.680  0.00  0.00    +0.000 N 
ATOM     11  O   UNL     1      47.841   1.159   6.599  0.00  0.00    +0.000 OA
ATOM     12  H   UNL     1      46.068  -0.859   8.317  0.00  0.00    +0.000 HD
ATOM     13  H   UNL     1      47.356  -1.150   7.209  0.00  0.00    +0.000 HD
ENDBRANCH   6   9
BRANCH   8  14
ATOM     14  O   UNL     1      45.974   5.507   8.405  0.00  0.00    +0.000 OA
ATOM     15  H   UNL     1      46.044   5.731   7.461  0.00  0.00    +0.000 HD
ENDBRANCH   8  14
ENDBRANCH   1   3
BRANCH   1  16
ATOM     16  C   UNL     1      43.735   4.674  11.369  0.00  0.00    +0.000 C 
BRANCH  16  20
ATOM     17  C   UNL     1      47.326   6.118  13.306  0.00  0.00    +0.000 A 
ATOM     18  C   UNL     1      46.774   6.845  12.246  0.00  0.00    +0.000 A 
ATOM     19  C   UNL     1      45.621   6.382  11.603  0.00  0.00    +0.000 A 
ATOM     20  C   UNL     1      45.019   5.177  11.994  0.00  0.00    +0.000 A 
ATOM     21  C   UNL     1      45.581   4.458  13.062  0.00  0.00    +0.000 A 
ATOM     22  C   UNL     1      46.730   4.917  13.707  0.00  0.00    +0.000 A 
BRANCH  17  24
ATOM     23  N   UNL     1      49.356   7.457  13.377  0.00  0.00    +0.000 N 
ATOM     24  C   UNL     1      48.540   6.577  14.028  0.00  0.00    +0.000 C 
ATOM     25  O   UNL     1      48.782   6.221  15.174  0.00  0.00    +0.000 OA
ATOM     26  H   UNL     1      50.112   7.851  13.921  0.00  0.00    +0.000 HD
ATOM     27  H   UNL     1      49.054   7.966  12.557  0.00  0.00    +0.000 HD
ENDBRANCH  17  24
ENDBRANCH  16  20
ENDBRANCH   1  16
TORSDOF 6
ENDMDL
MODEL 6
REMARK VINA RESULT:    -7.636      1.658      1.843
REMARK INTER + INTRA:         -10.785
REMARK INTER:                 -10.372
REMARK INTRA:                  -0.413
REMARK UNBOUND:                -0.694
REMARK  Name = 
REMARK  6 active torsions:
REMARK  status: ('A' for Active; 'I' for Inactive)
REMARK    1  A    between atoms: C_2  and  C_4
REMARK    2  A    between atoms: C_7  and  C_8
REMARK    3  A    between atoms: C_8  and  N_9
REMARK    4  A    between atoms: N_9  and  C_10
REMARK    5  A    between atoms: C_13  and  C_14
REMARK    6  A    between atoms: C_18  and  O_19
REMARK                            x       y       z     vdW  Elec       q    Type
REMARK                         _______ _______ _______ _____ _____    ______ ____
ROOT
ATOM      1  N   UNL     1      44.376   3.336  11.838  0.00  0.00    +0.000 N 
ATOM      2  H   UNL     1      45.158   2.698  11.963  0.00  0.00    +0.000 HD
ENDROOT
BRANCH   1   3
ATOM      3  C   UNL     1      44.818   4.638  12.137  0.00  0.00    +0.000 A 
ATOM      4  N   UNL     1      44.196   5.695  11.569  0.00  0.00    +0.000 NA
ATOM      5  C   UNL     1      44.621   6.939  11.895  0.00  0.00    +0.000 A 
ATOM      6  C   UNL     1      45.641   7.203  12.795  0.00  0.00    +0.000 A 
ATOM      7  C   UNL     1      46.269   6.110  13.394  0.00  0.00    +0.000 A 
ATOM      8  C   UNL     1      45.862   4.821  13.057  0.00  0.00    +0.000 A 
BRANCH   6   9
ATOM      9  C   UNL     1      46.088   8.574  13.132  0.00  0.00    +0.000 C 
ATOM     10  N   UNL     1      46.894   8.766  14.219  0.00  0.00    +0.000 N 
ATOM     11  O   UNL     1      45.735   9.533  12.453  0.00  0.00    +0.000 OA
ATOM     12  H   UNL     1      47.235   8.055  14.848  0.00  0.00    +0.000 HD
ATOM     13  H   UNL     1      47.168   9.722  14.414  0.00  0.00    +0.000 HD
ENDBRANCH   6   9
BRANCH   8  14
ATOM     14  O   UNL     1      46.489   3.732  13.604  0.00  0.00    +0.000 OA
ATOM     15  H   UNL     1      47.106   4.036  14.292  0.00  0.00    +0.000 HD
ENDBRANCH   8  14
ENDBRANCH   1   3
BRANCH   1  16
ATOM     16  C   UNL     1      43.738   3.229  10.533  0.00  0.00    +0.000 C 
BRANCH  16  20
ATOM     17  C   UNL     1      46.492   2.720   7.234  0.00  0.00    +0.000 A 
ATOM     18  C   UNL     1      46.194   1.630   8.058  0.00  0.00    +0.000 A 
ATOM     19  C   UNL     1      45.316   1.785   9.135  0.00  0.00    +0.000 A 
ATOM     20  C   UNL     1      44.743   3.034   9.417  0.00  0.00    +0.000 A 
ATOM     21  C   UNL     1      45.047   4.120   8.580  0.00  0.00    +0.000 A 
ATOM     22  C   UNL     1      45.922   3.968   7.504  0.00  0.00    +0.000 A 
BRANCH  17  24
ATOM     23  N   UNL     1      48.643   2.067   6.302  0.00  0.00    +0.000 N 
ATOM     24  C   UNL     1      47.407   2.600   6.070  0.00  0.00    +0.000 C 
ATOM     25  O   UNL     1      47.060   2.922   4.941  0.00  0.00    +0.000 OA
ATOM     26  H   UNL     1      49.210   1.882   5.485  0.00  0.00    +0.000 HD
ATOM     27  H   UNL     1      48.858   1.556   7.147  0.00  0.00    +0.000 HD
ENDBRANCH  17  24
ENDBRANCH  16  20
ENDBRANCH   1  16
TORSDOF 6
ENDMDL
MODEL 7
REMARK VINA RESULT:    -6.976      2.401      3.343
REMARK INTER + INTRA:          -9.913
REMARK INTER:                  -9.577
REMARK INTRA:                  -0.335
REMARK UNBOUND:                -0.694
REMARK  Name = 
REMARK  6 active torsions:
REMARK  status: ('A' for Active; 'I' for Inactive)
REMARK    1  A    between atoms: C_2  and  C_4
REMARK    2  A    between atoms: C_7  and  C_8
REMARK    3  A    between atoms: C_8  and  N_9
REMARK    4  A    between atoms: N_9  and  C_10
REMARK    5  A    between atoms: C_13  and  C_14
REMARK    6  A    between atoms: C_18  and  O_19
REMARK                            x       y       z     vdW  Elec       q    Type
REMARK                         _______ _______ _______ _____ _____    ______ ____
ROOT
ATOM      1  N   UNL     1      44.458   4.002  11.750  0.00  0.00    +0.000 N 
ATOM      2  H   UNL     1      45.430   3.746  11.900  0.00  0.00    +0.000 HD
ENDROOT
BRANCH   1   3
ATOM      3  C   UNL     1      44.388   5.398  11.589  0.00  0.00    +0.000 A 
ATOM      4  N   UNL     1      43.229   5.961  11.185  0.00  0.00    +0.000 NA
ATOM      5  C   UNL     1      43.179   7.310  11.065  0.00  0.00    +0.000 A 
ATOM      6  C   UNL     1      44.237   8.157  11.355  0.00  0.00    +0.000 A 
ATOM      7  C   UNL     1      45.428   7.574  11.792  0.00  0.00    +0.000 A 
ATOM      8  C   UNL     1      45.507   6.187  11.901  0.00  0.00    +0.000 A 
BRANCH   6   9
ATOM      9  C   UNL     1      44.157   9.630  11.214  0.00  0.00    +0.000 C 
ATOM     10  N   UNL     1      43.802  10.168  10.010  0.00  0.00    +0.000 N 
ATOM     11  O   UNL     1      44.416  10.363  12.163  0.00  0.00    +0.000 OA
ATOM     12  H   UNL     1      43.578   9.662   9.168  0.00  0.00    +0.000 HD
ATOM     13  H   UNL     1      43.768  11.180   9.961  0.00  0.00    +0.000 HD
ENDBRANCH   6   9
BRANCH   8  14
ATOM     14  O   UNL     1      46.677   5.590  12.291  0.00  0.00    +0.000 OA
ATOM     15  H   UNL     1      46.486   4.955  13.002  0.00  0.00    +0.000 HD
ENDBRANCH   8  14
ENDBRANCH   1   3
BRANCH   1  16
ATOM     16  C   UNL     1      43.820   3.265  10.667  0.00  0.00    +0.000 C 
BRANCH  16  20
ATOM     17  C   UNL     1      46.576   2.638   7.390  0.00  0.00    +0.000 A 
ATOM     18  C   UNL     1      46.147   3.935   7.692  0.00  0.00    +0.000 A 
ATOM     19  C   UNL     1      45.247   4.149   8.741  0.00  0.00    +0.000 A 
ATOM     20  C   UNL     1      44.746   3.070   9.484  0.00  0.00    +0.000 A 
ATOM     21  C   UNL     1      45.186   1.773   9.172  0.00  0.00    +0.000 A 
ATOM     22  C   UNL     1      46.085   1.556   8.128  0.00  0.00    +0.000 A 
BRANCH  17  24
ATOM     23  N   UNL     1      47.379   3.059   5.132  0.00  0.00    +0.000 N 
ATOM     24  C   UNL     1      47.542   2.363   6.295  0.00  0.00    +0.000 C 
ATOM     25  O   UNL     1      48.473   1.581   6.438  0.00  0.00    +0.000 OA
ATOM     26  H   UNL     1      48.110   2.950   4.440  0.00  0.00    +0.000 HD
ATOM     27  H   UNL     1      46.800   3.886   5.076  0.00  0.00    +0.000 HD
ENDBRANCH  17  24
ENDBRANCH  16  20
ENDBRANCH   1  16
TORSDOF 6
ENDMDL
MODEL 8
REMARK VINA RESULT:    -6.546      1.962      6.663
REMARK INTER + INTRA:          -9.345
REMARK INTER:                  -8.929
REMARK INTRA:                  -0.416
REMARK UNBOUND:                -0.694
REMARK  Name = 
REMARK  6 active torsions:
REMARK  status: ('A' for Active; 'I' for Inactive)
REMARK    1  A    between atoms: C_2  and  C_4
REMARK    2  A    between atoms: C_7  and  C_8
REMARK    3  A    between atoms: C_8  and  N_9
REMARK    4  A    between atoms: N_9  and  C_10
REMARK    5  A    between atoms: C_13  and  C_14
REMARK    6  A    between atoms: C_18  and  O_19
REMARK                            x       y       z     vdW  Elec       q    Type
REMARK                         _______ _______ _______ _____ _____    ______ ____
ROOT
ATOM      1  N   UNL     1      43.864   4.716  10.888  0.00  0.00    +0.000 N 
ATOM      2  H   UNL     1      43.554   5.636  10.585  0.00  0.00    +0.000 HD
ENDROOT
BRANCH   1   3
ATOM      3  C   UNL     1      44.605   4.134   9.843  0.00  0.00    +0.000 A 
ATOM      4  N   UNL     1      45.334   4.927   9.027  0.00  0.00    +0.000 NA
ATOM      5  C   UNL     1      46.062   4.340   8.047  0.00  0.00    +0.000 A 
ATOM      6  C   UNL     1      46.129   2.972   7.839  0.00  0.00    +0.000 A 
ATOM      7  C   UNL     1      45.390   2.154   8.696  0.00  0.00    +0.000 A 
ATOM      8  C   UNL     1      44.617   2.738   9.697  0.00  0.00    +0.000 A 
BRANCH   6   9
ATOM      9  C   UNL     1      46.932   2.356   6.757  0.00  0.00    +0.000 C 
ATOM     10  N   UNL     1      47.870   1.414   7.075  0.00  0.00    +0.000 N 
ATOM     11  O   UNL     1      46.767   2.689   5.588  0.00  0.00    +0.000 OA
ATOM     12  H   UNL     1      48.092   1.074   7.998  0.00  0.00    +0.000 HD
ATOM     13  H   UNL     1      48.399   1.026   6.302  0.00  0.00    +0.000 HD
ENDBRANCH   6   9
BRANCH   8  14
ATOM     14  O   UNL     1      43.854   1.958  10.526  0.00  0.00    +0.000 OA
ATOM     15  H   UNL     1      43.720   2.428  11.366  0.00  0.00    +0.000 HD
ENDBRANCH   8  14
ENDBRANCH   1   3
BRANCH   1  16
ATOM     16  C   UNL     1      44.573   4.729  12.160  0.00  0.00    +0.000 C 
BRANCH  16  20
ATOM     17  C   UNL     1      47.102   8.231  12.415  0.00  0.00    +0.000 A 
ATOM     18  C   UNL     1      47.635   6.973  12.712  0.00  0.00    +0.000 A 
ATOM     19  C   UNL     1      46.825   5.835  12.646  0.00  0.00    +0.000 A 
ATOM     20  C   UNL     1      45.468   5.942  12.306  0.00  0.00    +0.000 A 
ATOM     21  C   UNL     1      44.946   7.211  12.007  0.00  0.00    +0.000 A 
ATOM     22  C   UNL     1      45.752   8.348  12.070  0.00  0.00    +0.000 A 
BRANCH  17  24
ATOM     23  N   UNL     1      48.032  10.104  13.660  0.00  0.00    +0.000 N 
ATOM     24  C   UNL     1      47.927   9.466  12.457  0.00  0.00    +0.000 C 
ATOM     25  O   UNL     1      48.526   9.876  11.471  0.00  0.00    +0.000 OA
ATOM     26  H   UNL     1      48.689  10.872  13.703  0.00  0.00    +0.000 HD
ATOM     27  H   UNL     1      47.778   9.656  14.530  0.00  0.00    +0.000 HD
ENDBRANCH  17  24
ENDBRANCH  16  20
ENDBRANCH   1  16
TORSDOF 6
ENDMDL
MODEL 9
REMARK VINA RESULT:    -6.528      4.146      7.915
REMARK INTER + INTRA:          -9.321
REMARK INTER:                  -8.942
REMARK INTRA:                  -0.380
REMARK UNBOUND:                -0.694
REMARK  Name = 
REMARK  6 active torsions:
REMARK  status: ('A' for Active; 'I' for Inactive)
REMARK    1  A    between atoms: C_2  and  C_4
REMARK    2  A    between atoms: C_7  and  C_8
REMARK    3  A    between atoms: C_8  and  N_9
REMARK    4  A    between atoms: N_9  and  C_10
REMARK    5  A    between atoms: C_13  and  C_14
REMARK    6  A    between atoms: C_18  and  O_19
REMARK                            x       y       z     vdW  Elec       q    Type
REMARK                         _______ _______ _______ _____ _____    ______ ____
ROOT
ATOM      1  N   UNL     1      47.580   5.392  15.124  0.00  0.00    +0.000 N 
ATOM      2  H   UNL     1      48.550   5.409  14.821  0.00  0.00    +0.000 HD
ENDROOT
BRANCH   1   3
ATOM      3  C   UNL     1      46.796   4.896  14.065  0.00  0.00    +0.000 A 
ATOM      4  N   UNL     1      46.718   3.562  13.867  0.00  0.00    +0.000 NA
ATOM      5  C   UNL     1      45.934   3.109  12.859  0.00  0.00    +0.000 A 
ATOM      6  C   UNL     1      45.183   3.925  12.029  0.00  0.00    +0.000 A 
ATOM      7  C   UNL     1      45.250   5.303  12.249  0.00  0.00    +0.000 A 
ATOM      8  C   UNL     1      46.067   5.792  13.266  0.00  0.00    +0.000 A 
BRANCH   6   9
ATOM      9  C   UNL     1      44.334   3.404  10.933  0.00  0.00    +0.000 C 
ATOM     10  N   UNL     1      44.802   2.385  10.152  0.00  0.00    +0.000 N 
ATOM     11  O   UNL     1      43.227   3.886  10.717  0.00  0.00    +0.000 OA
ATOM     12  H   UNL     1      45.694   1.924  10.236  0.00  0.00    +0.000 HD
ATOM     13  H   UNL     1      44.187   2.067   9.411  0.00  0.00    +0.000 HD
ENDBRANCH   6   9
BRANCH   8  14
ATOM     14  O   UNL     1      46.179   7.141  13.476  0.00  0.00    +0.000 OA
ATOM     15  H   UNL     1      46.837   7.298  14.174  0.00  0.00    +0.000 HD
ENDBRANCH   8  14
ENDBRANCH   1   3
BRANCH   1  16
ATOM     16  C   UNL     1      47.372   4.679  16.377  0.00  0.00    +0.000 C 
BRANCH  16  20
ATOM     17  C   UNL     1      50.932   2.458  17.436  0.00  0.00    +0.000 A 
ATOM     18  C   UNL     1      49.834   1.783  16.891  0.00  0.00    +0.000 A 
ATOM     19  C   UNL     1      48.674   2.487  16.557  0.00  0.00    +0.000 A 
ATOM     20  C   UNL     1      48.585   3.869  16.784  0.00  0.00    +0.000 A 
ATOM     21  C   UNL     1      49.696   4.535  17.328  0.00  0.00    +0.000 A 
ATOM     22  C   UNL     1      50.856   3.836  17.661  0.00  0.00    +0.000 A 
BRANCH  17  24
ATOM     23  N   UNL     1      52.091   0.439  18.145  0.00  0.00    +0.000 N 
ATOM     24  C   UNL     1      52.191   1.754  17.792  0.00  0.00    +0.000 C 
ATOM     25  O   UNL     1      53.280   2.311  17.733  0.00  0.00    +0.000 OA
ATOM     26  H   UNL     1      52.964  -0.058  18.270  0.00  0.00    +0.000 HD
ATOM     27  H   UNL     1      51.264  -0.109  17.950  0.00  0.00    +0.000 HD
ENDBRANCH  17  24
ENDBRANCH  16  20
ENDBRANCH   1  16
TORSDOF 6
ENDMDL
