MODEL 1
REMARK VINA RESULT:    -7.643      0.000      0.000
REMARK INTER + INTRA:         -12.511
REMARK INTER:                 -11.217
REMARK INTRA:                  -1.294
REMARK UNBOUND:                -1.294
REMARK  Name = 
REMARK  9 active torsions:
REMARK  status: ('A' for Active; 'I' for Inactive)
REMARK    1  A    between atoms: C_1  and  C_2
REMARK    2  A    between atoms: C_2  and  N_3
REMARK    3  A    between atoms: C_2  and  C_19
REMARK    4  A    between atoms: N_3  and  C_4
REMARK    5  A    between atoms: C_4  and  C_5
REMARK    6  A    between atoms: C_8  and  C_9
REMARK    7  A    between atoms: C_9  and  N_10
REMARK    8  A    between atoms: N_10  and  C_11
REMARK    9  A    between atoms: C_11  and  C_12
REMARK                            x       y       z     vdW  Elec       q    Type
REMARK                         _______ _______ _______ _____ _____    ______ ____
ROOT
ATOM      1  C   UNL     1      45.797   7.364  12.865  0.00  0.00    +0.000 C 
ENDROOT
BRANCH   1   2
ATOM      2  C   UNL     1      45.807   5.855  12.538  0.00  0.00    +0.000 C 
ATOM      3  C   UNL     1      44.716   5.075  13.298  0.00  0.00    +0.000 C 
ATOM      4  C   UNL     1      43.321   5.206  12.683  0.00  0.00    +0.000 C 
ATOM      5  C   UNL     1      43.290   4.841  11.190  0.00  0.00    +0.000 C 
ATOM      6  C   UNL     1      44.302   5.714  10.440  0.00  0.00    +0.000 C 
ATOM      7  C   UNL     1      45.718   5.652  11.011  0.00  0.00    +0.000 C 
BRANCH   5   8
ATOM      8  C   UNL     1      43.482   3.324  10.930  0.00  0.00    +0.000 C 
BRANCH   8   9
ATOM      9  N   UNL     1      43.875   3.151   9.533  0.00  0.00    +0.000 NA
ATOM     10  H   UNL     1      44.436   3.954   9.241  0.00  0.00    +0.000 HD
BRANCH   9  11
ATOM     11  C   UNL     1      44.663   1.949   9.277  0.00  0.00    +0.000 C 
BRANCH  11  12
ATOM     12  C   UNL     1      45.733   2.300   8.289  0.00  0.00    +0.000 A 
ATOM     13  C   UNL     1      46.006   3.474   7.607  0.00  0.00    +0.000 A 
ATOM     14  C   UNL     1      47.128   3.234   6.779  0.00  0.00    +0.000 A 
ATOM     15  C   UNL     1      47.521   1.928   6.973  0.00  0.00    +0.000 A 
ATOM     16  N   UNL     1      46.684   1.381   7.906  0.00  0.00    +0.000 N 
ATOM     17  H   UNL     1      46.704   0.426   8.246  0.00  0.00    +0.000 HD
ENDBRANCH  11  12
ENDBRANCH   9  11
ENDBRANCH   8   9
ENDBRANCH   5   8
ENDBRANCH   1   2
BRANCH   1  18
ATOM     18  N   UNL     1      46.965   7.761  13.653  0.00  0.00    +0.000 NA
ATOM     19  H   UNL     1      46.675   7.971  14.604  0.00  0.00    +0.000 HD
BRANCH  18  21
ATOM     20  C   UNL     1      49.190   7.015  12.804  0.00  0.00    +0.000 C 
ATOM     21  C   UNL     1      48.001   6.705  13.710  0.00  0.00    +0.000 C 
BRANCH  21  22
ATOM     22  C   UNL     1      48.387   6.541  15.171  0.00  0.00    +0.000 A 
ATOM     23  C   UNL     1      48.976   7.512  15.968  0.00  0.00    +0.000 A 
ATOM     24  S   UNL     1      49.070   7.071  17.618  0.00  0.00    +0.000 S 
ATOM     25  C   UNL     1      48.336   5.564  17.317  0.00  0.00    +0.000 A 
ATOM     26  N   UNL     1      47.997   4.722  18.329  0.00  0.00    +0.000 NA
ATOM     27  C   UNL     1      47.417   3.635  17.942  0.00  0.00    +0.000 A 
ATOM     28  N   UNL     1      47.197   3.286  16.630  0.00  0.00    +0.000 N 
ATOM     29  C   UNL     1      47.585   4.075  15.572  0.00  0.00    +0.000 A 
ATOM     30  O   UNL     1      47.484   3.694  14.411  0.00  0.00    +0.000 OA
ATOM     31  C   UNL     1      48.122   5.364  15.967  0.00  0.00    +0.000 A 
ATOM     32  H   UNL     1      46.793   2.393  16.396  0.00  0.00    +0.000 HD
ENDBRANCH  21  22
ENDBRANCH  18  21
ENDBRANCH   1  18
TORSDOF 8
ENDMDL
MODEL 2
REMARK VINA RESULT:    -7.445      2.518      3.348
REMARK INTER + INTRA:         -12.221
REMARK INTER:                 -11.715
REMARK INTRA:                  -0.506
REMARK UNBOUND:                -1.294
REMARK  Name = 
REMARK  9 active torsions:
REMARK  status: ('A' for Active; 'I' for Inactive)
REMARK    1  A    between atoms: C_1  and  C_2
REMARK    2  A    between atoms: C_2  and  N_3
REMARK    3  A    between atoms: C_2  and  C_19
REMARK    4  A    between atoms: N_3  and  C_4
REMARK    5  A    between atoms: C_4  and  C_5
REMARK    6  A    between atoms: C_8  and  C_9
REMARK    7  A    between atoms: C_9  and  N_10
REMARK    8  A    between atoms: N_10  and  C_11
REMARK    9  A    between atoms: C_11  and  C_12
REMARK                            x       y       z     vdW  Elec       q    Type
REMARK                         _______ _______ _______ _____ _____    ______ ____
ROOT
ATOM      1  C   UNL     1      46.789   4.680  15.059  0.00  0.00    +0.000 C 
ENDROOT
BRANCH   1   2
ATOM      2  C   UNL     1      46.972   4.914  13.544  0.00  0.00    +0.000 C 
ATOM      3  C   UNL     1      46.677   3.653  12.708  0.00  0.00    +0.000 C 
ATOM      4  C   UNL     1      45.185   3.389  12.494  0.00  0.00    +0.000 C 
ATOM      5  C   UNL     1      44.442   4.600  11.907  0.00  0.00    +0.000 C 
ATOM      6  C   UNL     1      44.658   5.812  12.820  0.00  0.00    +0.000 C 
ATOM      7  C   UNL     1      46.127   6.126  13.098  0.00  0.00    +0.000 C 
BRANCH   5   8
ATOM      8  C   UNL     1      44.811   4.880  10.426  0.00  0.00    +0.000 C 
BRANCH   8   9
ATOM      9  N   UNL     1      44.698   3.625   9.686  0.00  0.00    +0.000 NA
ATOM     10  H   UNL     1      43.799   3.189   9.903  0.00  0.00    +0.000 HD
BRANCH   9  11
ATOM     11  C   UNL     1      44.774   3.777   8.236  0.00  0.00    +0.000 C 
BRANCH  11  12
ATOM     12  C   UNL     1      45.928   2.957   7.746  0.00  0.00    +0.000 A 
ATOM     13  C   UNL     1      46.291   1.642   7.986  0.00  0.00    +0.000 A 
ATOM     14  C   UNL     1      47.493   1.397   7.281  0.00  0.00    +0.000 A 
ATOM     15  C   UNL     1      47.838   2.557   6.624  0.00  0.00    +0.000 A 
ATOM     16  N   UNL     1      46.871   3.486   6.894  0.00  0.00    +0.000 N 
ATOM     17  H   UNL     1      46.854   4.447   6.571  0.00  0.00    +0.000 HD
ENDBRANCH  11  12
ENDBRANCH   9  11
ENDBRANCH   8   9
ENDBRANCH   5   8
ENDBRANCH   1   2
BRANCH   1  18
ATOM     18  N   UNL     1      47.958   4.033  15.657  0.00  0.00    +0.000 NA
ATOM     19  H   UNL     1      48.803   4.486  15.321  0.00  0.00    +0.000 HD
BRANCH  18  21
ATOM     20  C   UNL     1      47.219   2.921  17.765  0.00  0.00    +0.000 C 
ATOM     21  C   UNL     1      47.955   4.101  17.136  0.00  0.00    +0.000 C 
BRANCH  21  22
ATOM     22  C   UNL     1      49.406   4.207  17.578  0.00  0.00    +0.000 A 
ATOM     23  C   UNL     1      49.971   5.279  18.255  0.00  0.00    +0.000 A 
ATOM     24  S   UNL     1      51.565   4.977  18.795  0.00  0.00    +0.000 S 
ATOM     25  C   UNL     1      51.554   3.409  18.131  0.00  0.00    +0.000 A 
ATOM     26  N   UNL     1      52.581   2.541  18.339  0.00  0.00    +0.000 NA
ATOM     27  C   UNL     1      52.408   1.379  17.800  0.00  0.00    +0.000 A 
ATOM     28  N   UNL     1      51.331   1.025  17.023  0.00  0.00    +0.000 N 
ATOM     29  C   UNL     1      50.305   1.893  16.728  0.00  0.00    +0.000 A 
ATOM     30  O   UNL     1      49.414   1.597  15.941  0.00  0.00    +0.000 OA
ATOM     31  C   UNL     1      50.394   3.165  17.421  0.00  0.00    +0.000 A 
ATOM     32  H   UNL     1      51.290   0.121  16.581  0.00  0.00    +0.000 HD
ENDBRANCH  21  22
ENDBRANCH  18  21
ENDBRANCH   1  18
TORSDOF 8
ENDMDL
MODEL 3
REMARK VINA RESULT:    -6.833      1.644      2.180
REMARK INTER + INTRA:         -11.323
REMARK INTER:                 -10.180
REMARK INTRA:                  -1.143
REMARK UNBOUND:                -1.294
REMARK  Name = 
REMARK  9 active torsions:
REMARK  status: ('A' for Active; 'I' for Inactive)
REMARK    1  A    between atoms: C_1  and  C_2
REMARK    2  A    between atoms: C_2  and  N_3
REMARK    3  A    between atoms: C_2  and  C_19
REMARK    4  A    between atoms: N_3  and  C_4
REMARK    5  A    between atoms: C_4  and  C_5
REMARK    6  A    between atoms: C_8  and  C_9
REMARK    7  A    between atoms: C_9  and  N_10
REMARK    8  A    between atoms: N_10  and  C_11
REMARK    9  A    between atoms: C_11  and  C_12
REMARK                            x       y       z     vdW  Elec       q    Type
REMARK                         _______ _______ _______ _____ _____    ______ ____
ROOT
ATOM      1  C   UNL     1      45.463   7.767  12.570  0.00  0.00    +0.000 C 
ENDROOT
BRANCH   1   2
ATOM      2  C   UNL     1      44.975   6.858  11.422  0.00  0.00    +0.000 C 
ATOM      3  C   UNL     1      45.847   5.598  11.251  0.00  0.00    +0.000 C 
ATOM      4  C   UNL     1      45.542   4.493  12.265  0.00  0.00    +0.000 C 
ATOM      5  C   UNL     1      44.055   4.108  12.299  0.00  0.00    +0.000 C 
ATOM      6  C   UNL     1      43.218   5.360  12.586  0.00  0.00    +0.000 C 
ATOM      7  C   UNL     1      43.484   6.517  11.624  0.00  0.00    +0.000 C 
BRANCH   5   8
ATOM      8  C   UNL     1      43.594   3.345  11.028  0.00  0.00    +0.000 C 
BRANCH   8   9
ATOM      9  N   UNL     1      44.679   2.458  10.615  0.00  0.00    +0.000 NA
ATOM     10  H   UNL     1      44.749   1.684  11.279  0.00  0.00    +0.000 HD
BRANCH   9  11
ATOM     11  C   UNL     1      44.506   1.881   9.285  0.00  0.00    +0.000 C 
BRANCH  11  12
ATOM     12  C   UNL     1      45.562   2.456   8.392  0.00  0.00    +0.000 A 
ATOM     13  C   UNL     1      45.774   3.744   7.929  0.00  0.00    +0.000 A 
ATOM     14  C   UNL     1      46.915   3.712   7.092  0.00  0.00    +0.000 A 
ATOM     15  C   UNL     1      47.377   2.415   7.062  0.00  0.00    +0.000 A 
ATOM     16  N   UNL     1      46.565   1.670   7.871  0.00  0.00    +0.000 N 
ATOM     17  H   UNL     1      46.636   0.673   8.039  0.00  0.00    +0.000 HD
ENDBRANCH  11  12
ENDBRANCH   9  11
ENDBRANCH   8   9
ENDBRANCH   5   8
ENDBRANCH   1   2
BRANCH   1  18
ATOM     18  N   UNL     1      46.654   8.530  12.194  0.00  0.00    +0.000 NA
ATOM     19  H   UNL     1      46.650   9.424  12.678  0.00  0.00    +0.000 HD
BRANCH  18  21
ATOM     20  C   UNL     1      48.921   7.867  11.388  0.00  0.00    +0.000 C 
ATOM     21  C   UNL     1      47.913   7.829  12.534  0.00  0.00    +0.000 C 
BRANCH  21  22
ATOM     22  C   UNL     1      48.438   8.456  13.816  0.00  0.00    +0.000 A 
ATOM     23  C   UNL     1      48.802   9.786  13.979  0.00  0.00    +0.000 A 
ATOM     24  S   UNL     1      49.135  10.204  15.603  0.00  0.00    +0.000 S 
ATOM     25  C   UNL     1      48.814   8.620  16.138  0.00  0.00    +0.000 A 
ATOM     26  N   UNL     1      48.794   8.305  17.461  0.00  0.00    +0.000 NA
ATOM     27  C   UNL     1      48.501   7.071  17.707  0.00  0.00    +0.000 A 
ATOM     28  N   UNL     1      48.285   6.109  16.750  0.00  0.00    +0.000 N 
ATOM     29  C   UNL     1      48.364   6.366  15.400  0.00  0.00    +0.000 A 
ATOM     30  O   UNL     1      48.283   5.471  14.566  0.00  0.00    +0.000 OA
ATOM     31  C   UNL     1      48.561   7.767  15.080  0.00  0.00    +0.000 A 
ATOM     32  H   UNL     1      48.121   5.150  17.011  0.00  0.00    +0.000 HD
ENDBRANCH  21  22
ENDBRANCH  18  21
ENDBRANCH   1  18
TORSDOF 8
ENDMDL
MODEL 4
REMARK VINA RESULT:    -6.519      2.358      3.472
REMARK INTER + INTRA:         -10.862
REMARK INTER:                 -10.280
REMARK INTRA:                  -0.582
REMARK UNBOUND:                -1.294
REMARK  Name = 
REMARK  9 active torsions:
REMARK  status: ('A' for Active; 'I' for Inactive)
REMARK    1  A    between atoms: C_1  and  C_2
REMARK    2  A    between atoms: C_2  and  N_3
REMARK    3  A    between atoms: C_2  and  C_19
REMARK    4  A    between atoms: N_3  and  C_4
REMARK    5  A    between atoms: C_4  and  C_5
REMARK    6  A    between atoms: C_8  and  C_9
REMARK    7  A    between atoms: C_9  and  N_10
REMARK    8  A    between atoms: N_10  and  C_11
REMARK    9  A    between atoms: C_11  and  C_12
REMARK                            x       y       z     vdW  Elec       q    Type
REMARK                         _______ _______ _______ _____ _____    ______ ____
ROOT
ATOM      1  C   UNL     1      46.762   4.140  14.992  0.00  0.00    +0.000 C 
ENDROOT
BRANCH   1   2
ATOM      2  C   UNL     1      47.009   4.116  13.469  0.00  0.00    +0.000 C 
ATOM      3  C   UNL     1      45.909   3.357  12.700  0.00  0.00    +0.000 C 
ATOM      4  C   UNL     1      44.632   4.171  12.486  0.00  0.00    +0.000 C 
ATOM      5  C   UNL     1      44.895   5.534  11.827  0.00  0.00    +0.000 C 
ATOM      6  C   UNL     1      45.905   6.315  12.675  0.00  0.00    +0.000 C 
ATOM      7  C   UNL     1      47.202   5.556  12.949  0.00  0.00    +0.000 C 
BRANCH   5   8
ATOM      8  C   UNL     1      45.310   5.420  10.336  0.00  0.00    +0.000 C 
BRANCH   8   9
ATOM      9  N   UNL     1      44.946   4.085   9.867  0.00  0.00    +0.000 NA
ATOM     10  H   UNL     1      44.099   3.780  10.350  0.00  0.00    +0.000 HD
BRANCH   9  11
ATOM     11  C   UNL     1      44.686   4.006   8.432  0.00  0.00    +0.000 C 
BRANCH  11  12
ATOM     12  C   UNL     1      45.718   3.106   7.824  0.00  0.00    +0.000 A 
ATOM     13  C   UNL     1      46.573   3.280   6.749  0.00  0.00    +0.000 A 
ATOM     14  C   UNL     1      47.322   2.088   6.604  0.00  0.00    +0.000 A 
ATOM     15  C   UNL     1      46.916   1.215   7.589  0.00  0.00    +0.000 A 
ATOM     16  N   UNL     1      45.963   1.851   8.335  0.00  0.00    +0.000 N 
ATOM     17  H   UNL     1      45.456   1.461   9.122  0.00  0.00    +0.000 HD
ENDBRANCH  11  12
ENDBRANCH   9  11
ENDBRANCH   8   9
ENDBRANCH   5   8
ENDBRANCH   1   2
BRANCH   1  18
ATOM     18  N   UNL     1      47.662   5.066  15.679  0.00  0.00    +0.000 NA
ATOM     19  H   UNL     1      47.282   6.007  15.627  0.00  0.00    +0.000 HD
BRANCH  18  21
ATOM     20  C   UNL     1      47.155   3.423  17.487  0.00  0.00    +0.000 C 
ATOM     21  C   UNL     1      47.854   4.725  17.107  0.00  0.00    +0.000 C 
BRANCH  21  22
ATOM     22  C   UNL     1      49.354   4.697  17.358  0.00  0.00    +0.000 A 
ATOM     23  C   UNL     1      50.073   3.618  17.853  0.00  0.00    +0.000 A 
ATOM     24  S   UNL     1      51.766   3.850  17.802  0.00  0.00    +0.000 S 
ATOM     25  C   UNL     1      51.591   5.404  17.127  0.00  0.00    +0.000 A 
ATOM     26  N   UNL     1      52.667   6.125  16.712  0.00  0.00    +0.000 NA
ATOM     27  C   UNL     1      52.368   7.269  16.191  0.00  0.00    +0.000 A 
ATOM     28  N   UNL     1      51.096   7.783  16.100  0.00  0.00    +0.000 N 
ATOM     29  C   UNL     1      49.986   7.118  16.570  0.00  0.00    +0.000 A 
ATOM     30  O   UNL     1      48.878   7.642  16.584  0.00  0.00    +0.000 OA
ATOM     31  C   UNL     1      50.263   5.775  17.043  0.00  0.00    +0.000 A 
ATOM     32  H   UNL     1      50.940   8.709  15.737  0.00  0.00    +0.000 HD
ENDBRANCH  21  22
ENDBRANCH  18  21
ENDBRANCH   1  18
TORSDOF 8
ENDMDL
MODEL 5
REMARK VINA RESULT:    -6.418      1.501      1.938
REMARK INTER + INTRA:         -10.714
REMARK INTER:                  -9.878
REMARK INTRA:                  -0.836
REMARK UNBOUND:                -1.294
REMARK  Name = 
REMARK  9 active torsions:
REMARK  status: ('A' for Active; 'I' for Inactive)
REMARK    1  A    between atoms: C_1  and  C_2
REMARK    2  A    between atoms: C_2  and  N_3
REMARK    3  A    between atoms: C_2  and  C_19
REMARK    4  A    between atoms: N_3  and  C_4
REMARK    5  A    between atoms: C_4  and  C_5
REMARK    6  A    between atoms: C_8  and  C_9
REMARK    7  A    between atoms: C_9  and  N_10
REMARK    8  A    between atoms: N_10  and  C_11
REMARK    9  A    between atoms: C_11  and  C_12
REMARK                            x       y       z     vdW  Elec       q    Type
REMARK                         _______ _______ _______ _____ _____    ______ ____
ROOT
ATOM      1  C   UNL     1      46.731   4.574  14.338  0.00  0.00    +0.000 C 
ENDROOT
BRANCH   1   2
ATOM      2  C   UNL     1      46.367   4.926  12.880  0.00  0.00    +0.000 C 
ATOM      3  C   UNL     1      45.991   3.685  12.046  0.00  0.00    +0.000 C 
ATOM      4  C   UNL     1      44.565   3.188  12.288  0.00  0.00    +0.000 C 
ATOM      5  C   UNL     1      43.508   4.289  12.106  0.00  0.00    +0.000 C 
ATOM      6  C   UNL     1      43.843   5.463  13.033  0.00  0.00    +0.000 C 
ATOM      7  C   UNL     1      45.262   6.003  12.863  0.00  0.00    +0.000 C 
BRANCH   5   8
ATOM      8  C   UNL     1      43.323   4.715  10.625  0.00  0.00    +0.000 C 
BRANCH   8   9
ATOM      9  N   UNL     1      43.861   3.654   9.778  0.00  0.00    +0.000 NA
ATOM     10  H   UNL     1      43.107   3.013   9.524  0.00  0.00    +0.000 HD
BRANCH   9  11
ATOM     11  C   UNL     1      44.469   4.129   8.538  0.00  0.00    +0.000 C 
BRANCH  11  12
ATOM     12  C   UNL     1      45.471   3.108   8.095  0.00  0.00    +0.000 A 
ATOM     13  C   UNL     1      46.519   3.178   7.191  0.00  0.00    +0.000 A 
ATOM     14  C   UNL     1      47.126   1.900   7.145  0.00  0.00    +0.000 A 
ATOM     15  C   UNL     1      46.447   1.081   8.019  0.00  0.00    +0.000 A 
ATOM     16  N   UNL     1      45.464   1.829   8.605  0.00  0.00    +0.000 N 
ATOM     17  H   UNL     1      44.781   1.502   9.279  0.00  0.00    +0.000 HD
ENDBRANCH  11  12
ENDBRANCH   9  11
ENDBRANCH   8   9
ENDBRANCH   5   8
ENDBRANCH   1   2
BRANCH   1  18
ATOM     18  N   UNL     1      47.104   5.760  15.111  0.00  0.00    +0.000 NA
ATOM     19  H   UNL     1      46.820   5.635  16.078  0.00  0.00    +0.000 HD
BRANCH  18  21
ATOM     20  C   UNL     1      48.936   7.090  14.062  0.00  0.00    +0.000 C 
ATOM     21  C   UNL     1      48.560   6.024  15.087  0.00  0.00    +0.000 C 
BRANCH  21  22
ATOM     22  C   UNL     1      48.968   6.385  16.507  0.00  0.00    +0.000 A 
ATOM     23  C   UNL     1      49.248   7.664  16.969  0.00  0.00    +0.000 A 
ATOM     24  S   UNL     1      49.456   7.741  18.664  0.00  0.00    +0.000 S 
ATOM     25  C   UNL     1      49.188   6.068  18.832  0.00  0.00    +0.000 A 
ATOM     26  N   UNL     1      49.102   5.480  20.056  0.00  0.00    +0.000 NA
ATOM     27  C   UNL     1      48.861   4.211  20.017  0.00  0.00    +0.000 A 
ATOM     28  N   UNL     1      48.759   3.465  18.867  0.00  0.00    +0.000 N 
ATOM     29  C   UNL     1      48.909   4.005  17.610  0.00  0.00    +0.000 A 
ATOM     30  O   UNL     1      48.929   3.305  16.604  0.00  0.00    +0.000 OA
ATOM     31  C   UNL     1      49.049   5.450  17.605  0.00  0.00    +0.000 A 
ATOM     32  H   UNL     1      48.631   2.467  18.910  0.00  0.00    +0.000 HD
ENDBRANCH  21  22
ENDBRANCH  18  21
ENDBRANCH   1  18
TORSDOF 8
ENDMDL
MODEL 6
REMARK VINA RESULT:    -6.286      2.508      3.728
REMARK INTER + INTRA:         -10.520
REMARK INTER:                  -9.147
REMARK INTRA:                  -1.373
REMARK UNBOUND:                -1.294
REMARK  Name = 
REMARK  9 active torsions:
REMARK  status: ('A' for Active; 'I' for Inactive)
REMARK    1  A    between atoms: C_1  and  C_2
REMARK    2  A    between atoms: C_2  and  N_3
REMARK    3  A    between atoms: C_2  and  C_19
REMARK    4  A    between atoms: N_3  and  C_4
REMARK    5  A    between atoms: C_4  and  C_5
REMARK    6  A    between atoms: C_8  and  C_9
REMARK    7  A    between atoms: C_9  and  N_10
REMARK    8  A    between atoms: N_10  and  C_11
REMARK    9  A    between atoms: C_11  and  C_12
REMARK                            x       y       z     vdW  Elec       q    Type
REMARK                         _______ _______ _______ _____ _____    ______ ____
ROOT
ATOM      1  C   UNL     1      49.579   8.020  13.658  0.00  0.00    +0.000 C 
ENDROOT
BRANCH   1   2
ATOM      2  C   UNL     1      48.817   7.396  12.469  0.00  0.00    +0.000 C 
ATOM      3  C   UNL     1      47.986   6.163  12.878  0.00  0.00    +0.000 C 
ATOM      4  C   UNL     1      46.659   6.510  13.556  0.00  0.00    +0.000 C 
ATOM      5  C   UNL     1      45.799   7.477  12.726  0.00  0.00    +0.000 C 
ATOM      6  C   UNL     1      46.611   8.744  12.433  0.00  0.00    +0.000 C 
ATOM      7  C   UNL     1      47.962   8.476  11.773  0.00  0.00    +0.000 C 
BRANCH   5   8
ATOM      8  C   UNL     1      45.207   6.824  11.449  0.00  0.00    +0.000 C 
BRANCH   8   9
ATOM      9  N   UNL     1      44.540   5.585  11.843  0.00  0.00    +0.000 NA
ATOM     10  H   UNL     1      44.136   5.704  12.774  0.00  0.00    +0.000 HD
BRANCH   9  11
ATOM     11  C   UNL     1      43.461   5.176  10.947  0.00  0.00    +0.000 C 
BRANCH  11  12
ATOM     12  C   UNL     1      44.002   4.127  10.024  0.00  0.00    +0.000 A 
ATOM     13  C   UNL     1      44.322   2.795  10.231  0.00  0.00    +0.000 A 
ATOM     14  C   UNL     1      44.817   2.282   9.009  0.00  0.00    +0.000 A 
ATOM     15  C   UNL     1      44.786   3.301   8.083  0.00  0.00    +0.000 A 
ATOM     16  N   UNL     1      44.269   4.404   8.702  0.00  0.00    +0.000 N 
ATOM     17  H   UNL     1      44.139   5.321   8.288  0.00  0.00    +0.000 HD
ENDBRANCH  11  12
ENDBRANCH   9  11
ENDBRANCH   8   9
ENDBRANCH   5   8
ENDBRANCH   1   2
BRANCH   1  18
ATOM     18  N   UNL     1      50.119   6.999  14.557  0.00  0.00    +0.000 NA
ATOM     19  H   UNL     1      51.132   6.985  14.482  0.00  0.00    +0.000 HD
BRANCH  18  21
ATOM     20  C   UNL     1      48.643   8.264  16.122  0.00  0.00    +0.000 C 
ATOM     21  C   UNL     1      49.766   7.240  15.974  0.00  0.00    +0.000 C 
BRANCH  21  22
ATOM     22  C   UNL     1      49.429   5.888  16.584  0.00  0.00    +0.000 A 
ATOM     23  C   UNL     1      48.170   5.304  16.617  0.00  0.00    +0.000 A 
ATOM     24  S   UNL     1      48.186   3.688  17.174  0.00  0.00    +0.000 S 
ATOM     25  C   UNL     1      49.874   3.721  17.399  0.00  0.00    +0.000 A 
ATOM     26  N   UNL     1      50.568   2.604  17.748  0.00  0.00    +0.000 NA
ATOM     27  C   UNL     1      51.844   2.784  17.845  0.00  0.00    +0.000 A 
ATOM     28  N   UNL     1      52.483   3.990  17.684  0.00  0.00    +0.000 N 
ATOM     29  C   UNL     1      51.813   5.158  17.400  0.00  0.00    +0.000 A 
ATOM     30  O   UNL     1      52.386   6.241  17.374  0.00  0.00    +0.000 OA
ATOM     31  C   UNL     1      50.395   4.977  17.152  0.00  0.00    +0.000 A 
ATOM     32  H   UNL     1      53.476   4.071  17.835  0.00  0.00    +0.000 HD
ENDBRANCH  21  22
ENDBRANCH  18  21
ENDBRANCH   1  18
TORSDOF 8
ENDMDL
MODEL 7
REMARK VINA RESULT:    -6.222      2.869      3.684
REMARK INTER + INTRA:         -10.425
REMARK INTER:                  -9.439
REMARK INTRA:                  -0.987
REMARK UNBOUND:                -1.294
REMARK  Name = 
REMARK  9 active torsions:
REMARK  status: ('A' for Active; 'I' for Inactive)
REMARK    1  A    between atoms: C_1  and  C_2
REMARK    2  A    between atoms: C_2  and  N_3
REMARK    3  A    between atoms: C_2  and  C_19
REMARK    4  A    between atoms: N_3  and  C_4
REMARK    5  A    between atoms: C_4  and  C_5
REMARK    6  A    between atoms: C_8  and  C_9
REMARK    7  A    between atoms: C_9  and  N_10
REMARK    8  A    between atoms: N_10  and  C_11
REMARK    9  A    between atoms: C_11  and  C_12
REMARK                            x       y       z     vdW  Elec       q    Type
REMARK                         _______ _______ _______ _____ _____    ______ ____
ROOT
ATOM      1  C   UNL     1      46.481   6.911  13.441  0.00  0.00    +0.000 C 
ENDROOT
BRANCH   1   2
ATOM      2  C   UNL     1      45.124   6.520  12.819  0.00  0.00    +0.000 C 
ATOM      3  C   UNL     1      45.082   6.747  11.294  0.00  0.00    +0.000 C 
ATOM      4  C   UNL     1      45.776   5.648  10.487  0.00  0.00    +0.000 C 
ATOM      5  C   UNL     1      45.260   4.241  10.827  0.00  0.00    +0.000 C 
ATOM      6  C   UNL     1      45.420   3.998  12.333  0.00  0.00    +0.000 C 
ATOM      7  C   UNL     1      44.769   5.070  13.206  0.00  0.00    +0.000 C 
BRANCH   5   8
ATOM      8  C   UNL     1      43.816   3.982  10.319  0.00  0.00    +0.000 C 
BRANCH   8   9
ATOM      9  N   UNL     1      43.906   3.248   9.059  0.00  0.00    +0.000 NA
ATOM     10  H   UNL     1      44.312   3.856   8.345  0.00  0.00    +0.000 HD
BRANCH   9  11
ATOM     11  C   UNL     1      44.727   2.042   9.127  0.00  0.00    +0.000 C 
BRANCH  11  12
ATOM     12  C   UNL     1      45.834   2.181   8.127  0.00  0.00    +0.000 A 
ATOM     13  C   UNL     1      46.202   3.231   7.302  0.00  0.00    +0.000 A 
ATOM     14  C   UNL     1      47.316   2.802   6.541  0.00  0.00    +0.000 A 
ATOM     15  C   UNL     1      47.607   1.509   6.915  0.00  0.00    +0.000 A 
ATOM     16  N   UNL     1      46.719   1.153   7.892  0.00  0.00    +0.000 N 
ATOM     17  H   UNL     1      46.663   0.253   8.355  0.00  0.00    +0.000 HD
ENDBRANCH  11  12
ENDBRANCH   9  11
ENDBRANCH   8   9
ENDBRANCH   5   8
ENDBRANCH   1   2
BRANCH   1  18
ATOM     18  N   UNL     1      46.602   8.357  13.628  0.00  0.00    +0.000 NA
ATOM     19  H   UNL     1      46.686   8.564  14.619  0.00  0.00    +0.000 HD
BRANCH  18  21
ATOM     20  C   UNL     1      47.434  10.186  12.148  0.00  0.00    +0.000 C 
ATOM     21  C   UNL     1      47.781   8.927  12.937  0.00  0.00    +0.000 C 
BRANCH  21  22
ATOM     22  C   UNL     1      48.847   9.157  13.996  0.00  0.00    +0.000 A 
ATOM     23  C   UNL     1      48.618   9.565  15.302  0.00  0.00    +0.000 A 
ATOM     24  S   UNL     1      50.015   9.509  16.286  0.00  0.00    +0.000 S 
ATOM     25  C   UNL     1      50.973   8.949  14.995  0.00  0.00    +0.000 A 
ATOM     26  N   UNL     1      52.267   8.573  15.178  0.00  0.00    +0.000 NA
ATOM     27  C   UNL     1      52.848   8.138  14.109  0.00  0.00    +0.000 A 
ATOM     28  N   UNL     1      52.273   8.099  12.862  0.00  0.00    +0.000 N 
ATOM     29  C   UNL     1      50.990   8.534  12.616  0.00  0.00    +0.000 A 
ATOM     30  O   UNL     1      50.537   8.600  11.480  0.00  0.00    +0.000 OA
ATOM     31  C   UNL     1      50.259   8.908  13.812  0.00  0.00    +0.000 A 
ATOM     32  H   UNL     1      52.804   7.804  12.058  0.00  0.00    +0.000 HD
ENDBRANCH  21  22
ENDBRANCH  18  21
ENDBRANCH   1  18
TORSDOF 8
ENDMDL
MODEL 8
REMARK VINA RESULT:    -6.077      3.504      7.612
REMARK INTER + INTRA:         -10.213
REMARK INTER:                  -8.426
REMARK INTRA:                  -1.788
REMARK UNBOUND:                -1.294
REMARK  Name = 
REMARK  9 active torsions:
REMARK  status: ('A' for Active; 'I' for Inactive)
REMARK    1  A    between atoms: C_1  and  C_2
REMARK    2  A    between atoms: C_2  and  N_3
REMARK    3  A    between atoms: C_2  and  C_19
REMARK    4  A    between atoms: N_3  and  C_4
REMARK    5  A    between atoms: C_4  and  C_5
REMARK    6  A    between atoms: C_8  and  C_9
REMARK    7  A    between atoms: C_9  and  N_10
REMARK    8  A    between atoms: N_10  and  C_11
REMARK    9  A    between atoms: C_11  and  C_12
REMARK                            x       y       z     vdW  Elec       q    Type
REMARK                         _______ _______ _______ _____ _____    ______ ____
ROOT
ATOM      1  C   UNL     1      48.235   9.109  14.405  0.00  0.00    +0.000 C 
ENDROOT
BRANCH   1   2
ATOM      2  C   UNL     1      48.303   8.737  15.901  0.00  0.00    +0.000 C 
ATOM      3  C   UNL     1      48.490   7.224  16.129  0.00  0.00    +0.000 C 
ATOM      4  C   UNL     1      49.931   6.744  15.937  0.00  0.00    +0.000 C 
ATOM      5  C   UNL     1      50.941   7.536  16.782  0.00  0.00    +0.000 C 
ATOM      6  C   UNL     1      50.813   9.027  16.450  0.00  0.00    +0.000 C 
ATOM      7  C   UNL     1      49.394   9.576  16.598  0.00  0.00    +0.000 C 
BRANCH   5   8
ATOM      8  C   UNL     1      50.832   7.239  18.301  0.00  0.00    +0.000 C 
BRANCH   8   9
ATOM      9  N   UNL     1      50.917   5.792  18.485  0.00  0.00    +0.000 NA
ATOM     10  H   UNL     1      51.788   5.567  18.971  0.00  0.00    +0.000 HD
BRANCH   9  11
ATOM     11  C   UNL     1      49.820   5.222  19.264  0.00  0.00    +0.000 C 
BRANCH  11  12
ATOM     12  C   UNL     1      49.070   4.275  18.379  0.00  0.00    +0.000 A 
ATOM     13  C   UNL     1      49.506   3.311  17.484  0.00  0.00    +0.000 A 
ATOM     14  C   UNL     1      48.358   2.724  16.901  0.00  0.00    +0.000 A 
ATOM     15  C   UNL     1      47.251   3.332  17.449  0.00  0.00    +0.000 A 
ATOM     16  N   UNL     1      47.694   4.250  18.359  0.00  0.00    +0.000 N 
ATOM     17  H   UNL     1      47.118   4.874  18.914  0.00  0.00    +0.000 HD
ENDBRANCH  11  12
ENDBRANCH   9  11
ENDBRANCH   8   9
ENDBRANCH   5   8
ENDBRANCH   1   2
BRANCH   1  18
ATOM     18  N   UNL     1      46.973   8.689  13.794  0.00  0.00    +0.000 NA
ATOM     19  H   UNL     1      46.403   9.507  13.599  0.00  0.00    +0.000 HD
BRANCH  18  21
ATOM     20  C   UNL     1      48.591   8.099  11.988  0.00  0.00    +0.000 C 
ATOM     21  C   UNL     1      47.170   7.952  12.525  0.00  0.00    +0.000 C 
BRANCH  21  22
ATOM     22  C   UNL     1      46.773   6.507  12.786  0.00  0.00    +0.000 A 
ATOM     23  C   UNL     1      47.605   5.516  13.287  0.00  0.00    +0.000 A 
ATOM     24  S   UNL     1      46.780   4.066  13.667  0.00  0.00    +0.000 S 
ATOM     25  C   UNL     1      45.289   4.714  13.163  0.00  0.00    +0.000 A 
ATOM     26  N   UNL     1      44.123   4.035  13.333  0.00  0.00    +0.000 NA
ATOM     27  C   UNL     1      43.074   4.674  12.932  0.00  0.00    +0.000 A 
ATOM     28  N   UNL     1      43.090   5.906  12.320  0.00  0.00    +0.000 N 
ATOM     29  C   UNL     1      44.252   6.598  12.064  0.00  0.00    +0.000 A 
ATOM     30  O   UNL     1      44.255   7.638  11.416  0.00  0.00    +0.000 OA
ATOM     31  C   UNL     1      45.440   5.975  12.617  0.00  0.00    +0.000 A 
ATOM     32  H   UNL     1      42.240   6.321  11.976  0.00  0.00    +0.000 HD
ENDBRANCH  21  22
ENDBRANCH  18  21
ENDBRANCH   1  18
TORSDOF 8
ENDMDL
MODEL 9
REMARK VINA RESULT:    -6.074      1.931      3.104
REMARK INTER + INTRA:         -10.209
REMARK INTER:                  -9.109
REMARK INTRA:                  -1.100
REMARK UNBOUND:                -1.294
REMARK  Name = 
REMARK  9 active torsions:
REMARK  status: ('A' for Active; 'I' for Inactive)
REMARK    1  A    between atoms: C_1  and  C_2
REMARK    2  A    between atoms: C_2  and  N_3
REMARK    3  A    between atoms: C_2  and  C_19
REMARK    4  A    between atoms: N_3  and  C_4
REMARK    5  A    between atoms: C_4  and  C_5
REMARK    6  A    between atoms: C_8  and  C_9
REMARK    7  A    between atoms: C_9  and  N_10
REMARK    8  A    between atoms: N_10  and  C_11
REMARK    9  A    between atoms: C_11  and  C_12
REMARK                            x       y       z     vdW  Elec       q    Type
REMARK                         _______ _______ _______ _____ _____    ______ ____
ROOT
ATOM      1  C   UNL     1      49.237   8.131  13.714  0.00  0.00    +0.000 C 
ENDROOT
BRANCH   1   2
ATOM      2  C   UNL     1      48.462   7.680  12.457  0.00  0.00    +0.000 C 
ATOM      3  C   UNL     1      47.927   6.238  12.574  0.00  0.00    +0.000 C 
ATOM      4  C   UNL     1      46.652   6.119  13.411  0.00  0.00    +0.000 C 
ATOM      5  C   UNL     1      45.535   7.061  12.936  0.00  0.00    +0.000 C 
ATOM      6  C   UNL     1      46.058   8.502  12.940  0.00  0.00    +0.000 C 
ATOM      7  C   UNL     1      47.345   8.696  12.140  0.00  0.00    +0.000 C 
BRANCH   5   8
ATOM      8  C   UNL     1      44.921   6.639  11.574  0.00  0.00    +0.000 C 
BRANCH   8   9
ATOM      9  N   UNL     1      44.243   5.359  11.761  0.00  0.00    +0.000 NA
ATOM     10  H   UNL     1      43.668   5.405  12.605  0.00  0.00    +0.000 HD
BRANCH   9  11
ATOM     11  C   UNL     1      43.369   4.978  10.655  0.00  0.00    +0.000 C 
BRANCH  11  12
ATOM     12  C   UNL     1      44.123   4.028   9.777  0.00  0.00    +0.000 A 
ATOM     13  C   UNL     1      44.531   2.719   9.974  0.00  0.00    +0.000 A 
ATOM     14  C   UNL     1      45.233   2.313   8.814  0.00  0.00    +0.000 A 
ATOM     15  C   UNL     1      45.237   3.372   7.934  0.00  0.00    +0.000 A 
ATOM     16  N   UNL     1      44.542   4.395   8.518  0.00  0.00    +0.000 N 
ATOM     17  H   UNL     1      44.388   5.318   8.127  0.00  0.00    +0.000 HD
ENDBRANCH  11  12
ENDBRANCH   9  11
ENDBRANCH   8   9
ENDBRANCH   5   8
ENDBRANCH   1   2
BRANCH   1  18
ATOM     18  N   UNL     1      49.855   7.002  14.410  0.00  0.00    +0.000 NA
ATOM     19  H   UNL     1      50.346   6.419  13.737  0.00  0.00    +0.000 HD
BRANCH  18  21
ATOM     20  C   UNL     1      51.722   8.564  14.958  0.00  0.00    +0.000 C 
ATOM     21  C   UNL     1      50.825   7.428  15.444  0.00  0.00    +0.000 C 
BRANCH  21  22
ATOM     22  C   UNL     1      50.021   7.787  16.684  0.00  0.00    +0.000 A 
ATOM     23  C   UNL     1      49.902   9.056  17.234  0.00  0.00    +0.000 A 
ATOM     24  S   UNL     1      48.747   9.144  18.492  0.00  0.00    +0.000 S 
ATOM     25  C   UNL     1      48.377   7.488  18.347  0.00  0.00    +0.000 A 
ATOM     26  N   UNL     1      47.365   6.920  19.056  0.00  0.00    +0.000 NA
ATOM     27  C   UNL     1      47.187   5.664  18.810  0.00  0.00    +0.000 A 
ATOM     28  N   UNL     1      47.967   4.910  17.965  0.00  0.00    +0.000 N 
ATOM     29  C   UNL     1      49.044   5.427  17.283  0.00  0.00    +0.000 A 
ATOM     30  O   UNL     1      49.795   4.714  16.626  0.00  0.00    +0.000 OA
ATOM     31  C   UNL     1      49.198   6.862  17.429  0.00  0.00    +0.000 A 
ATOM     32  H   UNL     1      47.810   3.920  17.867  0.00  0.00    +0.000 HD
ENDBRANCH  21  22
ENDBRANCH  18  21
ENDBRANCH   1  18
TORSDOF 8
ENDMDL
