MODEL 1
REMARK VINA RESULT:    -8.450      0.000      0.000
REMARK INTER + INTRA:         -10.966
REMARK INTER:                 -10.920
REMARK INTRA:                  -0.046
REMARK UNBOUND:                -0.046
REMARK  Name = 
REMARK  5 active torsions:
REMARK  status: ('A' for Active; 'I' for Inactive)
REMARK    1  A    between atoms: C_2  and  C_4
REMARK    2  A    between atoms: C_7  and  C_8
REMARK    3  A    between atoms: C_8  and  O_9
REMARK    4  A    between atoms: O_9  and  C_10
REMARK    5  A    between atoms: C_16  and  C_17
REMARK                            x       y       z     vdW  Elec       q    Type
REMARK                         _______ _______ _______ _____ _____    ______ ____
ROOT
ATOM      1  O   UNL     1      44.634   5.681  11.021  0.00  0.00    +0.000 OA
ENDROOT
BRANCH   1   2
ATOM      2  C   UNL     1      45.432   5.129  12.007  0.00  0.00    +0.000 A 
ATOM      3  N   UNL     1      45.255   3.810  12.286  0.00  0.00    +0.000 NA
ATOM      4  C   UNL     1      45.989   3.289  13.291  0.00  0.00    +0.000 A 
ATOM      5  C   UNL     1      46.900   4.023  14.020  0.00  0.00    +0.000 A 
ATOM      6  F   UNL     1      47.586   3.459  15.022  0.00  0.00    +0.000 F 
ATOM      7  C   UNL     1      47.090   5.362  13.707  0.00  0.00    +0.000 A 
ATOM      8  C   UNL     1      46.346   5.971  12.677  0.00  0.00    +0.000 A 
BRANCH   8   9
ATOM      9  C   UNL     1      46.518   7.416  12.379  0.00  0.00    +0.000 A 
ATOM     10  C   UNL     1      45.458   8.329  12.466  0.00  0.00    +0.000 A 
ATOM     11  C   UNL     1      45.692   9.679  12.239  0.00  0.00    +0.000 A 
ATOM     12  N   UNL     1      46.892  10.185  11.897  0.00  0.00    +0.000 NA
ATOM     13  C   UNL     1      47.902   9.303  11.783  0.00  0.00    +0.000 A 
ATOM     14  C   UNL     1      47.767   7.940  12.009  0.00  0.00    +0.000 A 
ENDBRANCH   8   9
ENDBRANCH   1   2
BRANCH   1  15
ATOM     15  C   UNL     1      43.883   4.716  10.286  0.00  0.00    +0.000 C 
BRANCH  15  19
ATOM     16  C   UNL     1      46.570   2.597   7.637  0.00  0.00    +0.000 A 
ATOM     17  C   UNL     1      46.543   3.997   7.636  0.00  0.00    +0.000 A 
ATOM     18  C   UNL     1      45.671   4.683   8.488  0.00  0.00    +0.000 A 
ATOM     19  C   UNL     1      44.821   3.984   9.357  0.00  0.00    +0.000 A 
ATOM     20  C   UNL     1      44.841   2.579   9.337  0.00  0.00    +0.000 A 
ATOM     21  C   UNL     1      45.706   1.892   8.483  0.00  0.00    +0.000 A 
BRANCH  16  23
ATOM     22  N   UNL     1      48.579   2.460   6.262  0.00  0.00    +0.000 N 
ATOM     23  C   UNL     1      47.468   1.823   6.742  0.00  0.00    +0.000 C 
ATOM     24  O   UNL     1      47.254   0.648   6.474  0.00  0.00    +0.000 OA
ATOM     25  H   UNL     1      49.235   1.882   5.750  0.00  0.00    +0.000 HD
ATOM     26  H   UNL     1      48.924   3.316   6.668  0.00  0.00    +0.000 HD
ENDBRANCH  16  23
ENDBRANCH  15  19
ENDBRANCH   1  15
TORSDOF 5
ENDMDL
MODEL 2
REMARK VINA RESULT:    -7.951      2.597      3.480
REMARK INTER + INTRA:         -10.322
REMARK INTER:                  -9.473
REMARK INTRA:                  -0.849
REMARK UNBOUND:                -0.046
REMARK  Name = 
REMARK  5 active torsions:
REMARK  status: ('A' for Active; 'I' for Inactive)
REMARK    1  A    between atoms: C_2  and  C_4
REMARK    2  A    between atoms: C_7  and  C_8
REMARK    3  A    between atoms: C_8  and  O_9
REMARK    4  A    between atoms: O_9  and  C_10
REMARK    5  A    between atoms: C_16  and  C_17
REMARK                            x       y       z     vdW  Elec       q    Type
REMARK                         _______ _______ _______ _____ _____    ______ ____
ROOT
ATOM      1  O   UNL     1      44.757   5.540  11.433  0.00  0.00    +0.000 OA
ENDROOT
BRANCH   1   2
ATOM      2  C   UNL     1      44.466   6.892  11.417  0.00  0.00    +0.000 A 
ATOM      3  N   UNL     1      43.255   7.263  10.919  0.00  0.00    +0.000 NA
ATOM      4  C   UNL     1      42.999   8.585  10.845  0.00  0.00    +0.000 A 
ATOM      5  C   UNL     1      43.891   9.552  11.259  0.00  0.00    +0.000 A 
ATOM      6  F   UNL     1      43.591  10.852  11.142  0.00  0.00    +0.000 F 
ATOM      7  C   UNL     1      45.111   9.159  11.790  0.00  0.00    +0.000 A 
ATOM      8  C   UNL     1      45.448   7.794  11.882  0.00  0.00    +0.000 A 
BRANCH   8   9
ATOM      9  C   UNL     1      46.775   7.380  12.406  0.00  0.00    +0.000 A 
ATOM     10  C   UNL     1      47.933   7.410  11.616  0.00  0.00    +0.000 A 
ATOM     11  C   UNL     1      49.157   7.075  12.178  0.00  0.00    +0.000 A 
ATOM     12  N   UNL     1      49.313   6.676  13.455  0.00  0.00    +0.000 NA
ATOM     13  C   UNL     1      48.197   6.618  14.203  0.00  0.00    +0.000 A 
ATOM     14  C   UNL     1      46.933   6.953  13.734  0.00  0.00    +0.000 A 
ENDBRANCH   8   9
ENDBRANCH   1   2
BRANCH   1  15
ATOM     15  C   UNL     1      43.928   4.766  10.569  0.00  0.00    +0.000 C 
BRANCH  15  19
ATOM     16  C   UNL     1      46.459   2.585   7.818  0.00  0.00    +0.000 A 
ATOM     17  C   UNL     1      46.409   3.983   7.768  0.00  0.00    +0.000 A 
ATOM     18  C   UNL     1      45.587   4.689   8.653  0.00  0.00    +0.000 A 
ATOM     19  C   UNL     1      44.811   4.011   9.605  0.00  0.00    +0.000 A 
ATOM     20  C   UNL     1      44.852   2.607   9.635  0.00  0.00    +0.000 A 
ATOM     21  C   UNL     1      45.667   1.900   8.748  0.00  0.00    +0.000 A 
BRANCH  16  23
ATOM     22  N   UNL     1      48.404   2.406   6.360  0.00  0.00    +0.000 N 
ATOM     23  C   UNL     1      47.305   1.791   6.891  0.00  0.00    +0.000 C 
ATOM     24  O   UNL     1      47.061   0.617   6.641  0.00  0.00    +0.000 OA
ATOM     25  H   UNL     1      49.029   1.813   5.825  0.00  0.00    +0.000 HD
ATOM     26  H   UNL     1      48.781   3.259   6.744  0.00  0.00    +0.000 HD
ENDBRANCH  16  23
ENDBRANCH  15  19
ENDBRANCH   1  15
TORSDOF 5
ENDMDL
MODEL 3
REMARK VINA RESULT:    -7.426      3.934      7.179
REMARK INTER + INTRA:          -9.643
REMARK INTER:                  -8.717
REMARK INTRA:                  -0.926
REMARK UNBOUND:                -0.046
REMARK  Name = 
REMARK  5 active torsions:
REMARK  status: ('A' for Active; 'I' for Inactive)
REMARK    1  A    between atoms: C_2  and  C_4
REMARK    2  A    between atoms: C_7  and  C_8
REMARK    3  A    between atoms: C_8  and  O_9
REMARK    4  A    between atoms: O_9  and  C_10
REMARK    5  A    between atoms: C_16  and  C_17
REMARK                            x       y       z     vdW  Elec       q    Type
REMARK                         _______ _______ _______ _____ _____    ______ ____
ROOT
ATOM      1  O   UNL     1      45.847   4.327  14.058  0.00  0.00    +0.000 OA
ENDROOT
BRANCH   1   2
ATOM      2  C   UNL     1      45.357   4.307  12.764  0.00  0.00    +0.000 A 
ATOM      3  N   UNL     1      44.686   3.192  12.369  0.00  0.00    +0.000 NA
ATOM      4  C   UNL     1      44.266   3.148  11.087  0.00  0.00    +0.000 A 
ATOM      5  C   UNL     1      44.474   4.173  10.189  0.00  0.00    +0.000 A 
ATOM      6  F   UNL     1      44.053   4.066   8.923  0.00  0.00    +0.000 F 
ATOM      7  C   UNL     1      45.136   5.316  10.613  0.00  0.00    +0.000 A 
ATOM      8  C   UNL     1      45.614   5.420  11.935  0.00  0.00    +0.000 A 
BRANCH   8   9
ATOM      9  C   UNL     1      46.365   6.625  12.370  0.00  0.00    +0.000 A 
ATOM     10  C   UNL     1      47.763   6.701  12.302  0.00  0.00    +0.000 A 
ATOM     11  C   UNL     1      48.408   7.876  12.661  0.00  0.00    +0.000 A 
ATOM     12  N   UNL     1      47.771   8.972  13.118  0.00  0.00    +0.000 NA
ATOM     13  C   UNL     1      46.432   8.888  13.213  0.00  0.00    +0.000 A 
ATOM     14  C   UNL     1      45.700   7.762  12.859  0.00  0.00    +0.000 A 
ENDBRANCH   8   9
ENDBRANCH   1   2
BRANCH   1  15
ATOM     15  C   UNL     1      47.077   3.622  14.215  0.00  0.00    +0.000 C 
BRANCH  15  19
ATOM     16  C   UNL     1      48.621   4.406  18.181  0.00  0.00    +0.000 A 
ATOM     17  C   UNL     1      48.353   5.469  17.310  0.00  0.00    +0.000 A 
ATOM     18  C   UNL     1      47.859   5.216  16.026  0.00  0.00    +0.000 A 
ATOM     19  C   UNL     1      47.618   3.903  15.596  0.00  0.00    +0.000 A 
ATOM     20  C   UNL     1      47.909   2.842  16.470  0.00  0.00    +0.000 A 
ATOM     21  C   UNL     1      48.408   3.091  17.751  0.00  0.00    +0.000 A 
BRANCH  16  23
ATOM     22  N   UNL     1      48.617   3.881  20.562  0.00  0.00    +0.000 N 
ATOM     23  C   UNL     1      49.159   4.623  19.549  0.00  0.00    +0.000 C 
ATOM     24  O   UNL     1      50.081   5.400  19.764  0.00  0.00    +0.000 OA
ATOM     25  H   UNL     1      49.075   3.959  21.463  0.00  0.00    +0.000 HD
ATOM     26  H   UNL     1      48.062   3.058  20.388  0.00  0.00    +0.000 HD
ENDBRANCH  16  23
ENDBRANCH  15  19
ENDBRANCH   1  15
TORSDOF 5
ENDMDL
MODEL 4
REMARK VINA RESULT:    -7.375      4.493      7.541
REMARK INTER + INTRA:          -9.577
REMARK INTER:                  -9.063
REMARK INTRA:                  -0.513
REMARK UNBOUND:                -0.046
REMARK  Name = 
REMARK  5 active torsions:
REMARK  status: ('A' for Active; 'I' for Inactive)
REMARK    1  A    between atoms: C_2  and  C_4
REMARK    2  A    between atoms: C_7  and  C_8
REMARK    3  A    between atoms: C_8  and  O_9
REMARK    4  A    between atoms: O_9  and  C_10
REMARK    5  A    between atoms: C_16  and  C_17
REMARK                            x       y       z     vdW  Elec       q    Type
REMARK                         _______ _______ _______ _____ _____    ______ ____
ROOT
ATOM      1  O   UNL     1      46.883   4.466  14.949  0.00  0.00    +0.000 OA
ENDROOT
BRANCH   1   2
ATOM      2  C   UNL     1      47.340   5.429  14.066  0.00  0.00    +0.000 A 
ATOM      3  N   UNL     1      48.477   6.094  14.403  0.00  0.00    +0.000 NA
ATOM      4  C   UNL     1      48.885   7.077  13.574  0.00  0.00    +0.000 A 
ATOM      5  C   UNL     1      48.215   7.414  12.416  0.00  0.00    +0.000 A 
ATOM      6  F   UNL     1      48.655   8.413  11.641  0.00  0.00    +0.000 F 
ATOM      7  C   UNL     1      47.071   6.710  12.071  0.00  0.00    +0.000 A 
ATOM      8  C   UNL     1      46.583   5.681  12.901  0.00  0.00    +0.000 A 
BRANCH   8   9
ATOM      9  C   UNL     1      45.331   4.963  12.552  0.00  0.00    +0.000 A 
ATOM     10  C   UNL     1      44.064   5.462  12.885  0.00  0.00    +0.000 A 
ATOM     11  C   UNL     1      42.926   4.781  12.476  0.00  0.00    +0.000 A 
ATOM     12  N   UNL     1      42.951   3.621  11.791  0.00  0.00    +0.000 NA
ATOM     13  C   UNL     1      44.168   3.127  11.498  0.00  0.00    +0.000 A 
ATOM     14  C   UNL     1      45.360   3.747  11.849  0.00  0.00    +0.000 A 
ENDBRANCH   8   9
ENDBRANCH   1   2
BRANCH   1  15
ATOM     15  C   UNL     1      47.233   4.724  16.307  0.00  0.00    +0.000 C 
BRANCH  15  19
ATOM     16  C   UNL     1      50.684   2.319  17.328  0.00  0.00    +0.000 A 
ATOM     17  C   UNL     1      49.613   1.749  16.630  0.00  0.00    +0.000 A 
ATOM     18  C   UNL     1      48.494   2.524  16.304  0.00  0.00    +0.000 A 
ATOM     19  C   UNL     1      48.433   3.878  16.663  0.00  0.00    +0.000 A 
ATOM     20  C   UNL     1      49.503   4.438  17.381  0.00  0.00    +0.000 A 
ATOM     21  C   UNL     1      50.618   3.664  17.712  0.00  0.00    +0.000 A 
BRANCH  16  23
ATOM     22  N   UNL     1      51.695   0.239  18.098  0.00  0.00    +0.000 N 
ATOM     23  C   UNL     1      51.887   1.535  17.709  0.00  0.00    +0.000 C 
ATOM     24  O   UNL     1      53.014   2.009  17.637  0.00  0.00    +0.000 OA
ATOM     25  H   UNL     1      52.535  -0.310  18.240  0.00  0.00    +0.000 HD
ATOM     26  H   UNL     1      50.836  -0.257  17.913  0.00  0.00    +0.000 HD
ENDBRANCH  16  23
ENDBRANCH  15  19
ENDBRANCH   1  15
TORSDOF 5
ENDMDL
MODEL 5
REMARK VINA RESULT:    -7.179      3.864      6.388
REMARK INTER + INTRA:          -9.324
REMARK INTER:                  -8.368
REMARK INTRA:                  -0.955
REMARK UNBOUND:                -0.046
REMARK  Name = 
REMARK  5 active torsions:
REMARK  status: ('A' for Active; 'I' for Inactive)
REMARK    1  A    between atoms: C_2  and  C_4
REMARK    2  A    between atoms: C_7  and  C_8
REMARK    3  A    between atoms: C_8  and  O_9
REMARK    4  A    between atoms: O_9  and  C_10
REMARK    5  A    between atoms: C_16  and  C_17
REMARK                            x       y       z     vdW  Elec       q    Type
REMARK                         _______ _______ _______ _____ _____    ______ ____
ROOT
ATOM      1  O   UNL     1      49.076   6.404  14.411  0.00  0.00    +0.000 OA
ENDROOT
BRANCH   1   2
ATOM      2  C   UNL     1      48.758   7.181  15.511  0.00  0.00    +0.000 A 
ATOM      3  N   UNL     1      48.445   8.485  15.284  0.00  0.00    +0.000 NA
ATOM      4  C   UNL     1      48.199   9.256  16.363  0.00  0.00    +0.000 A 
ATOM      5  C   UNL     1      48.237   8.780  17.657  0.00  0.00    +0.000 A 
ATOM      6  F   UNL     1      48.005   9.596  18.692  0.00  0.00    +0.000 F 
ATOM      7  C   UNL     1      48.532   7.441  17.872  0.00  0.00    +0.000 A 
ATOM      8  C   UNL     1      48.813   6.584  16.789  0.00  0.00    +0.000 A 
BRANCH   8   9
ATOM      9  C   UNL     1      49.176   5.164  17.029  0.00  0.00    +0.000 A 
ATOM     10  C   UNL     1      48.248   4.121  16.895  0.00  0.00    +0.000 A 
ATOM     11  C   UNL     1      48.660   2.807  17.068  0.00  0.00    +0.000 A 
ATOM     12  N   UNL     1      49.916   2.452  17.400  0.00  0.00    +0.000 NA
ATOM     13  C   UNL     1      50.798   3.455  17.559  0.00  0.00    +0.000 A 
ATOM     14  C   UNL     1      50.483   4.797  17.388  0.00  0.00    +0.000 A 
ENDBRANCH   8   9
ENDBRANCH   1   2
BRANCH   1  15
ATOM     15  C   UNL     1      48.552   6.909  13.184  0.00  0.00    +0.000 C 
BRANCH  15  19
ATOM     16  C   UNL     1      45.178   4.453  12.037  0.00  0.00    +0.000 A 
ATOM     17  C   UNL     1      45.514   5.582  11.280  0.00  0.00    +0.000 A 
ATOM     18  C   UNL     1      46.601   6.380  11.653  0.00  0.00    +0.000 A 
ATOM     19  C   UNL     1      47.372   6.058  12.780  0.00  0.00    +0.000 A 
ATOM     20  C   UNL     1      47.016   4.935  13.545  0.00  0.00    +0.000 A 
ATOM     21  C   UNL     1      45.928   4.140  13.177  0.00  0.00    +0.000 A 
BRANCH  16  23
ATOM     22  N   UNL     1      43.840   2.456  12.441  0.00  0.00    +0.000 N 
ATOM     23  C   UNL     1      44.025   3.583  11.689  0.00  0.00    +0.000 C 
ATOM     24  O   UNL     1      43.242   3.878  10.795  0.00  0.00    +0.000 OA
ATOM     25  H   UNL     1      42.986   1.940  12.262  0.00  0.00    +0.000 HD
ATOM     26  H   UNL     1      44.290   2.325  13.333  0.00  0.00    +0.000 HD
ENDBRANCH  16  23
ENDBRANCH  15  19
ENDBRANCH   1  15
TORSDOF 5
ENDMDL
MODEL 6
REMARK VINA RESULT:    -7.170      3.694      7.183
REMARK INTER + INTRA:          -9.312
REMARK INTER:                  -8.145
REMARK INTRA:                  -1.167
REMARK UNBOUND:                -0.046
REMARK  Name = 
REMARK  5 active torsions:
REMARK  status: ('A' for Active; 'I' for Inactive)
REMARK    1  A    between atoms: C_2  and  C_4
REMARK    2  A    between atoms: C_7  and  C_8
REMARK    3  A    between atoms: C_8  and  O_9
REMARK    4  A    between atoms: O_9  and  C_10
REMARK    5  A    between atoms: C_16  and  C_17
REMARK                            x       y       z     vdW  Elec       q    Type
REMARK                         _______ _______ _______ _____ _____    ______ ____
ROOT
ATOM      1  O   UNL     1      47.665   6.989  12.350  0.00  0.00    +0.000 OA
ENDROOT
BRANCH   1   2
ATOM      2  C   UNL     1      46.775   8.013  12.076  0.00  0.00    +0.000 A 
ATOM      3  N   UNL     1      47.256   9.284  12.120  0.00  0.00    +0.000 NA
ATOM      4  C   UNL     1      46.372  10.284  11.916  0.00  0.00    +0.000 A 
ATOM      5  C   UNL     1      45.035  10.069  11.656  0.00  0.00    +0.000 A 
ATOM      6  F   UNL     1      44.200  11.100  11.482  0.00  0.00    +0.000 F 
ATOM      7  C   UNL     1      44.565   8.766  11.587  0.00  0.00    +0.000 A 
ATOM      8  C   UNL     1      45.431   7.676  11.804  0.00  0.00    +0.000 A 
BRANCH   8   9
ATOM      9  C   UNL     1      44.912   6.285  11.777  0.00  0.00    +0.000 A 
ATOM     10  C   UNL     1      44.164   5.745  12.834  0.00  0.00    +0.000 A 
ATOM     11  C   UNL     1      43.649   4.460  12.726  0.00  0.00    +0.000 A 
ATOM     12  N   UNL     1      43.850   3.658  11.663  0.00  0.00    +0.000 NA
ATOM     13  C   UNL     1      44.594   4.166  10.663  0.00  0.00    +0.000 A 
ATOM     14  C   UNL     1      45.134   5.445  10.674  0.00  0.00    +0.000 A 
ENDBRANCH   8   9
ENDBRANCH   1   2
BRANCH   1  15
ATOM     15  C   UNL     1      48.544   7.271  13.437  0.00  0.00    +0.000 C 
BRANCH  15  19
ATOM     16  C   UNL     1      47.725   4.442  16.609  0.00  0.00    +0.000 A 
ATOM     17  C   UNL     1      48.589   5.520  16.836  0.00  0.00    +0.000 A 
ATOM     18  C   UNL     1      48.859   6.432  15.810  0.00  0.00    +0.000 A 
ATOM     19  C   UNL     1      48.265   6.287  14.547  0.00  0.00    +0.000 A 
ATOM     20  C   UNL     1      47.415   5.190  14.322  0.00  0.00    +0.000 A 
ATOM     21  C   UNL     1      47.149   4.276  15.344  0.00  0.00    +0.000 A 
BRANCH  16  23
ATOM     22  N   UNL     1      48.255   3.386  18.741  0.00  0.00    +0.000 N 
ATOM     23  C   UNL     1      47.418   3.440  17.662  0.00  0.00    +0.000 C 
ATOM     24  O   UNL     1      46.432   2.718  17.595  0.00  0.00    +0.000 OA
ATOM     25  H   UNL     1      47.963   2.779  19.498  0.00  0.00    +0.000 HD
ATOM     26  H   UNL     1      48.902   4.128  18.957  0.00  0.00    +0.000 HD
ENDBRANCH  16  23
ENDBRANCH  15  19
ENDBRANCH   1  15
TORSDOF 5
ENDMDL
MODEL 7
REMARK VINA RESULT:    -6.752      3.604      7.308
REMARK INTER + INTRA:          -8.772
REMARK INTER:                  -8.099
REMARK INTRA:                  -0.673
REMARK UNBOUND:                -0.046
REMARK  Name = 
REMARK  5 active torsions:
REMARK  status: ('A' for Active; 'I' for Inactive)
REMARK    1  A    between atoms: C_2  and  C_4
REMARK    2  A    between atoms: C_7  and  C_8
REMARK    3  A    between atoms: C_8  and  O_9
REMARK    4  A    between atoms: O_9  and  C_10
REMARK    5  A    between atoms: C_16  and  C_17
REMARK                            x       y       z     vdW  Elec       q    Type
REMARK                         _______ _______ _______ _____ _____    ______ ____
ROOT
ATOM      1  O   UNL     1      47.170   6.877  12.159  0.00  0.00    +0.000 OA
ENDROOT
BRANCH   1   2
ATOM      2  C   UNL     1      46.326   7.942  11.900  0.00  0.00    +0.000 A 
ATOM      3  N   UNL     1      46.808   9.192  12.136  0.00  0.00    +0.000 NA
ATOM      4  C   UNL     1      45.961  10.225  11.945  0.00  0.00    +0.000 A 
ATOM      5  C   UNL     1      44.661  10.066  11.515  0.00  0.00    +0.000 A 
ATOM      6  F   UNL     1      43.858  11.127  11.362  0.00  0.00    +0.000 F 
ATOM      7  C   UNL     1      44.190   8.787  11.253  0.00  0.00    +0.000 A 
ATOM      8  C   UNL     1      45.018   7.664  11.445  0.00  0.00    +0.000 A 
BRANCH   8   9
ATOM      9  C   UNL     1      44.494   6.294  11.210  0.00  0.00    +0.000 A 
ATOM     10  C   UNL     1      45.209   5.334  10.480  0.00  0.00    +0.000 A 
ATOM     11  C   UNL     1      44.698   4.050  10.347  0.00  0.00    +0.000 A 
ATOM     12  N   UNL     1      43.514   3.657  10.855  0.00  0.00    +0.000 NA
ATOM     13  C   UNL     1      42.815   4.587  11.529  0.00  0.00    +0.000 A 
ATOM     14  C   UNL     1      43.253   5.890  11.730  0.00  0.00    +0.000 A 
ENDBRANCH   8   9
ENDBRANCH   1   2
BRANCH   1  15
ATOM     15  C   UNL     1      48.211   7.185  13.084  0.00  0.00    +0.000 C 
BRANCH  15  19
ATOM     16  C   UNL     1      47.822   4.598  16.532  0.00  0.00    +0.000 A 
ATOM     17  C   UNL     1      47.103   4.322  15.363  0.00  0.00    +0.000 A 
ATOM     18  C   UNL     1      47.224   5.160  14.250  0.00  0.00    +0.000 A 
ATOM     19  C   UNL     1      48.069   6.279  14.284  0.00  0.00    +0.000 A 
ATOM     20  C   UNL     1      48.771   6.561  15.468  0.00  0.00    +0.000 A 
ATOM     21  C   UNL     1      48.648   5.728  16.583  0.00  0.00    +0.000 A 
BRANCH  16  23
ATOM     22  N   UNL     1      46.843   2.696  17.702  0.00  0.00    +0.000 N 
ATOM     23  C   UNL     1      47.718   3.746  17.745  0.00  0.00    +0.000 C 
ATOM     24  O   UNL     1      48.416   3.942  18.732  0.00  0.00    +0.000 OA
ATOM     25  H   UNL     1      46.873   2.062  18.492  0.00  0.00    +0.000 HD
ATOM     26  H   UNL     1      46.463   2.349  16.835  0.00  0.00    +0.000 HD
ENDBRANCH  16  23
ENDBRANCH  15  19
ENDBRANCH   1  15
TORSDOF 5
ENDMDL
MODEL 8
REMARK VINA RESULT:    -6.722      3.741      5.944
REMARK INTER + INTRA:          -8.732
REMARK INTER:                  -7.818
REMARK INTRA:                  -0.914
REMARK UNBOUND:                -0.046
REMARK  Name = 
REMARK  5 active torsions:
REMARK  status: ('A' for Active; 'I' for Inactive)
REMARK    1  A    between atoms: C_2  and  C_4
REMARK    2  A    between atoms: C_7  and  C_8
REMARK    3  A    between atoms: C_8  and  O_9
REMARK    4  A    between atoms: O_9  and  C_10
REMARK    5  A    between atoms: C_16  and  C_17
REMARK                            x       y       z     vdW  Elec       q    Type
REMARK                         _______ _______ _______ _____ _____    ______ ____
ROOT
ATOM      1  O   UNL     1      48.020   7.405  14.281  0.00  0.00    +0.000 OA
ENDROOT
BRANCH   1   2
ATOM      2  C   UNL     1      49.340   7.460  14.690  0.00  0.00    +0.000 A 
ATOM      3  N   UNL     1      50.225   8.073  13.858  0.00  0.00    +0.000 NA
ATOM      4  C   UNL     1      51.522   8.068  14.229  0.00  0.00    +0.000 A 
ATOM      5  C   UNL     1      51.972   7.492  15.398  0.00  0.00    +0.000 A 
ATOM      6  F   UNL     1      53.275   7.499  15.704  0.00  0.00    +0.000 F 
ATOM      7  C   UNL     1      51.055   6.894  16.250  0.00  0.00    +0.000 A 
ATOM      8  C   UNL     1      49.686   6.852  15.916  0.00  0.00    +0.000 A 
BRANCH   8   9
ATOM      9  C   UNL     1      48.716   6.167  16.808  0.00  0.00    +0.000 A 
ATOM     10  C   UNL     1      48.256   6.746  17.999  0.00  0.00    +0.000 A 
ATOM     11  C   UNL     1      47.299   6.089  18.760  0.00  0.00    +0.000 A 
ATOM     12  N   UNL     1      46.791   4.881  18.446  0.00  0.00    +0.000 NA
ATOM     13  C   UNL     1      47.256   4.312  17.319  0.00  0.00    +0.000 A 
ATOM     14  C   UNL     1      48.197   4.902  16.485  0.00  0.00    +0.000 A 
ENDBRANCH   8   9
ENDBRANCH   1   2
BRANCH   1  15
ATOM     15  C   UNL     1      47.858   7.426  12.864  0.00  0.00    +0.000 C 
BRANCH  15  19
ATOM     16  C   UNL     1      45.094   4.283  11.764  0.00  0.00    +0.000 A 
ATOM     17  C   UNL     1      45.280   5.382  10.917  0.00  0.00    +0.000 A 
ATOM     18  C   UNL     1      46.169   6.401  11.274  0.00  0.00    +0.000 A 
ATOM     19  C   UNL     1      46.890   6.334  12.475  0.00  0.00    +0.000 A 
ATOM     20  C   UNL     1      46.682   5.238  13.329  0.00  0.00    +0.000 A 
ATOM     21  C   UNL     1      45.791   4.222  12.977  0.00  0.00    +0.000 A 
BRANCH  16  23
ATOM     22  N   UNL     1      43.718   2.397  12.467  0.00  0.00    +0.000 N 
ATOM     23  C   UNL     1      44.152   3.182  11.436  0.00  0.00    +0.000 C 
ATOM     24  O   UNL     1      43.740   3.006  10.296  0.00  0.00    +0.000 OA
ATOM     25  H   UNL     1      42.990   1.729  12.240  0.00  0.00    +0.000 HD
ATOM     26  H   UNL     1      43.818   2.673  13.432  0.00  0.00    +0.000 HD
ENDBRANCH  16  23
ENDBRANCH  15  19
ENDBRANCH   1  15
TORSDOF 5
ENDMDL
MODEL 9
REMARK VINA RESULT:    -6.622      4.380      8.044
REMARK INTER + INTRA:          -8.604
REMARK INTER:                  -7.973
REMARK INTRA:                  -0.630
REMARK UNBOUND:                -0.046
REMARK  Name = 
REMARK  5 active torsions:
REMARK  status: ('A' for Active; 'I' for Inactive)
REMARK    1  A    between atoms: C_2  and  C_4
REMARK    2  A    between atoms: C_7  and  C_8
REMARK    3  A    between atoms: C_8  and  O_9
REMARK    4  A    between atoms: O_9  and  C_10
REMARK    5  A    between atoms: C_16  and  C_17
REMARK                            x       y       z     vdW  Elec       q    Type
REMARK                         _______ _______ _______ _____ _____    ______ ____
ROOT
ATOM      1  O   UNL     1      46.399   4.856  14.596  0.00  0.00    +0.000 OA
ENDROOT
BRANCH   1   2
ATOM      2  C   UNL     1      47.041   5.647  13.660  0.00  0.00    +0.000 A 
ATOM      3  N   UNL     1      48.212   6.230  14.034  0.00  0.00    +0.000 NA
ATOM      4  C   UNL     1      48.803   7.053  13.143  0.00  0.00    +0.000 A 
ATOM      5  C   UNL     1      48.285   7.307  11.891  0.00  0.00    +0.000 A 
ATOM      6  F   UNL     1      48.904   8.149  11.055  0.00  0.00    +0.000 F 
ATOM      7  C   UNL     1      47.104   6.685  11.512  0.00  0.00    +0.000 A 
ATOM      8  C   UNL     1      46.428   5.825  12.401  0.00  0.00    +0.000 A 
BRANCH   8   9
ATOM      9  C   UNL     1      45.138   5.201  12.008  0.00  0.00    +0.000 A 
ATOM     10  C   UNL     1      45.056   3.878  11.553  0.00  0.00    +0.000 A 
ATOM     11  C   UNL     1      43.815   3.326  11.262  0.00  0.00    +0.000 A 
ATOM     12  N   UNL     1      42.653   4.001  11.355  0.00  0.00    +0.000 NA
ATOM     13  C   UNL     1      42.737   5.281  11.762  0.00  0.00    +0.000 A 
ATOM     14  C   UNL     1      43.930   5.911  12.094  0.00  0.00    +0.000 A 
ENDBRANCH   8   9
ENDBRANCH   1   2
BRANCH   1  15
ATOM     15  C   UNL     1      47.120   3.674  14.937  0.00  0.00    +0.000 C 
BRANCH  15  19
ATOM     16  C   UNL     1      48.906   4.254  18.836  0.00  0.00    +0.000 A 
ATOM     17  C   UNL     1      49.475   3.350  17.931  0.00  0.00    +0.000 A 
ATOM     18  C   UNL     1      48.895   3.158  16.673  0.00  0.00    +0.000 A 
ATOM     19  C   UNL     1      47.747   3.869  16.296  0.00  0.00    +0.000 A 
ATOM     20  C   UNL     1      47.171   4.760  17.218  0.00  0.00    +0.000 A 
ATOM     21  C   UNL     1      47.744   4.949  18.477  0.00  0.00    +0.000 A 
BRANCH  16  23
ATOM     22  N   UNL     1      50.831   4.371  20.327  0.00  0.00    +0.000 N 
ATOM     23  C   UNL     1      49.476   4.484  20.189  0.00  0.00    +0.000 C 
ATOM     24  O   UNL     1      48.772   4.804  21.138  0.00  0.00    +0.000 OA
ATOM     25  H   UNL     1      51.209   4.644  21.227  0.00  0.00    +0.000 HD
ATOM     26  H   UNL     1      51.455   4.377  19.534  0.00  0.00    +0.000 HD
ENDBRANCH  16  23
ENDBRANCH  15  19
ENDBRANCH   1  15
TORSDOF 5
ENDMDL
