MODEL 1
REMARK VINA RESULT:    -7.858      0.000      0.000
REMARK INTER + INTRA:         -11.624
REMARK INTER:                 -10.615
REMARK INTRA:                  -1.010
REMARK UNBOUND:                -1.010
REMARK  Name = 
REMARK  7 active torsions:
REMARK  status: ('A' for Active; 'I' for Inactive)
REMARK    1  A    between atoms: C_1  and  O_2
REMARK    2  A    between atoms: O_2  and  C_3
REMARK    3  A    between atoms: C_8  and  C_9
REMARK    4  A    between atoms: C_9  and  C_10
REMARK    5  A    between atoms: C_13  and  C_14
REMARK    6  A    between atoms: C_14  and  N_15
REMARK    7  A    between atoms: C_16  and  C_18
REMARK                            x       y       z     vdW  Elec       q    Type
REMARK                         _______ _______ _______ _____ _____    ______ ____
ROOT
ATOM      1  C   UNL     1      47.469   8.453  13.761  0.00  0.00    +0.000 C 
ENDROOT
BRANCH   1   5
ATOM      2  C   UNL     1      44.967   6.315  11.035  0.00  0.00    +0.000 A 
ATOM      3  C   UNL     1      46.276   5.877  11.248  0.00  0.00    +0.000 A 
ATOM      4  C   UNL     1      47.112   6.578  12.116  0.00  0.00    +0.000 A 
ATOM      5  C   UNL     1      46.627   7.723  12.742  0.00  0.00    +0.000 A 
ATOM      6  N   UNL     1      45.375   8.195  12.516  0.00  0.00    +0.000 NA
ATOM      7  C   UNL     1      44.584   7.490  11.670  0.00  0.00    +0.000 A 
BRANCH   2   8
ATOM      8  C   UNL     1      43.970   5.501  10.254  0.00  0.00    +0.000 C 
BRANCH   8  14
ATOM      9  C   UNL     1      44.152   2.966   9.976  0.00  0.00    +0.000 A 
ATOM     10  C   UNL     1      44.755   1.860   9.361  0.00  0.00    +0.000 A 
ATOM     11  C   UNL     1      45.683   2.034   8.334  0.00  0.00    +0.000 A 
ATOM     12  C   UNL     1      45.999   3.313   7.891  0.00  0.00    +0.000 A 
ATOM     13  C   UNL     1      45.398   4.421   8.486  0.00  0.00    +0.000 A 
ATOM     14  C   UNL     1      44.482   4.266   9.544  0.00  0.00    +0.000 A 
BRANCH   9  16
ATOM     15  C   UNL     1      43.768   2.781  12.316  0.00  0.00    +0.000 C 
ATOM     16  O   UNL     1      43.240   2.874  10.996  0.00  0.00    +0.000 OA
ENDBRANCH   9  16
ENDBRANCH   8  14
ENDBRANCH   2   8
ENDBRANCH   1   5
BRANCH   1  17
ATOM     17  N   UNL     1      47.796   7.616  14.899  0.00  0.00    +0.000 N 
ATOM     18  C   UNL     1      49.007   6.990  15.034  0.00  0.00    +0.000 C 
ATOM     19  O   UNL     1      49.894   7.103  14.189  0.00  0.00    +0.000 OA
ATOM     20  H   UNL     1      47.012   7.337  15.480  0.00  0.00    +0.000 HD
BRANCH  18  21
ATOM     21  C   UNL     1      49.228   6.228  16.272  0.00  0.00    +0.000 A 
ATOM     22  C   UNL     1      50.228   6.626  17.149  0.00  0.00    +0.000 A 
ATOM     23  S   UNL     1      50.334   5.669  18.556  0.00  0.00    +0.000 S 
ATOM     24  C   UNL     1      49.075   4.656  18.024  0.00  0.00    +0.000 A 
ATOM     25  N   UNL     1      48.677   3.590  18.769  0.00  0.00    +0.000 NA
ATOM     26  C   UNL     1      47.740   2.885  18.232  0.00  0.00    +0.000 A 
ATOM     27  N   UNL     1      47.154   3.157  17.022  0.00  0.00    +0.000 N 
ATOM     28  C   UNL     1      47.487   4.255  16.262  0.00  0.00    +0.000 A 
ATOM     29  O   UNL     1      46.878   4.520  15.232  0.00  0.00    +0.000 OA
ATOM     30  C   UNL     1      48.563   5.061  16.803  0.00  0.00    +0.000 A 
ATOM     31  H   UNL     1      46.411   2.576  16.663  0.00  0.00    +0.000 HD
ENDBRANCH  18  21
ENDBRANCH   1  17
TORSDOF 6
ENDMDL
MODEL 2
REMARK VINA RESULT:    -7.235      2.330      2.891
REMARK INTER + INTRA:         -10.782
REMARK INTER:                  -9.730
REMARK INTRA:                  -1.053
REMARK UNBOUND:                -1.010
REMARK  Name = 
REMARK  7 active torsions:
REMARK  status: ('A' for Active; 'I' for Inactive)
REMARK    1  A    between atoms: C_1  and  O_2
REMARK    2  A    between atoms: O_2  and  C_3
REMARK    3  A    between atoms: C_8  and  C_9
REMARK    4  A    between atoms: C_9  and  C_10
REMARK    5  A    between atoms: C_13  and  C_14
REMARK    6  A    between atoms: C_14  and  N_15
REMARK    7  A    between atoms: C_16  and  C_18
REMARK                            x       y       z     vdW  Elec       q    Type
REMARK                         _______ _______ _______ _____ _____    ______ ____
ROOT
ATOM      1  C   UNL     1      48.697   6.884  14.276  0.00  0.00    +0.000 C 
ENDROOT
BRANCH   1   5
ATOM      2  C   UNL     1      45.366   6.083  11.721  0.00  0.00    +0.000 A 
ATOM      3  C   UNL     1      45.985   7.334  11.664  0.00  0.00    +0.000 A 
ATOM      4  C   UNL     1      47.058   7.619  12.508  0.00  0.00    +0.000 A 
ATOM      5  C   UNL     1      47.479   6.649  13.413  0.00  0.00    +0.000 A 
ATOM      6  N   UNL     1      46.865   5.443  13.520  0.00  0.00    +0.000 NA
ATOM      7  C   UNL     1      45.829   5.194  12.683  0.00  0.00    +0.000 A 
BRANCH   2   8
ATOM      8  C   UNL     1      44.328   5.660  10.716  0.00  0.00    +0.000 C 
BRANCH   8  14
ATOM      9  C   UNL     1      44.152   3.223   9.966  0.00  0.00    +0.000 A 
ATOM     10  C   UNL     1      44.610   2.173   9.159  0.00  0.00    +0.000 A 
ATOM     11  C   UNL     1      45.589   2.395   8.188  0.00  0.00    +0.000 A 
ATOM     12  C   UNL     1      46.100   3.673   7.996  0.00  0.00    +0.000 A 
ATOM     13  C   UNL     1      45.645   4.728   8.786  0.00  0.00    +0.000 A 
ATOM     14  C   UNL     1      44.681   4.516   9.790  0.00  0.00    +0.000 A 
BRANCH   9  16
ATOM     15  C   UNL     1      43.626   2.467  12.160  0.00  0.00    +0.000 C 
ATOM     16  O   UNL     1      43.202   3.078  10.945  0.00  0.00    +0.000 OA
ENDBRANCH   9  16
ENDBRANCH   8  14
ENDBRANCH   2   8
ENDBRANCH   1   5
BRANCH   1  17
ATOM     17  N   UNL     1      48.395   6.772  15.690  0.00  0.00    +0.000 N 
ATOM     18  C   UNL     1      49.283   6.261  16.598  0.00  0.00    +0.000 C 
ATOM     19  O   UNL     1      50.399   5.866  16.263  0.00  0.00    +0.000 OA
ATOM     20  H   UNL     1      47.418   6.883  15.941  0.00  0.00    +0.000 HD
BRANCH  18  21
ATOM     21  C   UNL     1      48.872   6.271  18.010  0.00  0.00    +0.000 A 
ATOM     22  C   UNL     1      49.013   5.117  18.770  0.00  0.00    +0.000 A 
ATOM     23  S   UNL     1      48.531   5.298  20.395  0.00  0.00    +0.000 S 
ATOM     24  C   UNL     1      48.071   6.915  20.133  0.00  0.00    +0.000 A 
ATOM     25  N   UNL     1      47.537   7.658  21.139  0.00  0.00    +0.000 NA
ATOM     26  C   UNL     1      47.197   8.855  20.794  0.00  0.00    +0.000 A 
ATOM     27  N   UNL     1      47.358   9.380  19.538  0.00  0.00    +0.000 N 
ATOM     28  C   UNL     1      47.944   8.682  18.506  0.00  0.00    +0.000 A 
ATOM     29  O   UNL     1      48.157   9.215  17.423  0.00  0.00    +0.000 OA
ATOM     30  C   UNL     1      48.309   7.318  18.830  0.00  0.00    +0.000 A 
ATOM     31  H   UNL     1      47.089  10.332  19.334  0.00  0.00    +0.000 HD
ENDBRANCH  18  21
ENDBRANCH   1  17
TORSDOF 6
ENDMDL
MODEL 3
REMARK VINA RESULT:    -6.780      1.608      2.488
REMARK INTER + INTRA:         -10.168
REMARK INTER:                  -8.736
REMARK INTRA:                  -1.433
REMARK UNBOUND:                -1.010
REMARK  Name = 
REMARK  7 active torsions:
REMARK  status: ('A' for Active; 'I' for Inactive)
REMARK    1  A    between atoms: C_1  and  O_2
REMARK    2  A    between atoms: O_2  and  C_3
REMARK    3  A    between atoms: C_8  and  C_9
REMARK    4  A    between atoms: C_9  and  C_10
REMARK    5  A    between atoms: C_13  and  C_14
REMARK    6  A    between atoms: C_14  and  N_15
REMARK    7  A    between atoms: C_16  and  C_18
REMARK                            x       y       z     vdW  Elec       q    Type
REMARK                         _______ _______ _______ _____ _____    ______ ____
ROOT
ATOM      1  C   UNL     1      49.122   8.751  14.453  0.00  0.00    +0.000 C 
ENDROOT
BRANCH   1   5
ATOM      2  C   UNL     1      46.043   7.385  11.823  0.00  0.00    +0.000 A 
ATOM      3  C   UNL     1      47.299   6.776  11.779  0.00  0.00    +0.000 A 
ATOM      4  C   UNL     1      48.321   7.226  12.614  0.00  0.00    +0.000 A 
ATOM      5  C   UNL     1      48.072   8.298  13.467  0.00  0.00    +0.000 A 
ATOM      6  N   UNL     1      46.875   8.937  13.495  0.00  0.00    +0.000 NA
ATOM      7  C   UNL     1      45.900   8.474  12.676  0.00  0.00    +0.000 A 
BRANCH   2   8
ATOM      8  C   UNL     1      44.858   6.828  11.080  0.00  0.00    +0.000 C 
BRANCH   8  14
ATOM      9  C   UNL     1      44.486   4.394  10.393  0.00  0.00    +0.000 A 
ATOM     10  C   UNL     1      43.984   3.120  10.692  0.00  0.00    +0.000 A 
ATOM     11  C   UNL     1      43.453   2.840  11.952  0.00  0.00    +0.000 A 
ATOM     12  C   UNL     1      43.440   3.822  12.935  0.00  0.00    +0.000 A 
ATOM     13  C   UNL     1      43.946   5.091  12.654  0.00  0.00    +0.000 A 
ATOM     14  C   UNL     1      44.458   5.400  11.380  0.00  0.00    +0.000 A 
BRANCH   9  16
ATOM     15  C   UNL     1      45.207   3.690   8.238  0.00  0.00    +0.000 C 
ATOM     16  O   UNL     1      45.014   4.744   9.176  0.00  0.00    +0.000 OA
ENDBRANCH   9  16
ENDBRANCH   8  14
ENDBRANCH   2   8
ENDBRANCH   1   5
BRANCH   1  17
ATOM     17  N   UNL     1      49.219   7.862  15.595  0.00  0.00    +0.000 N 
ATOM     18  C   UNL     1      48.617   8.131  16.795  0.00  0.00    +0.000 C 
ATOM     19  O   UNL     1      47.953   9.151  16.975  0.00  0.00    +0.000 OA
ATOM     20  H   UNL     1      49.934   7.144  15.534  0.00  0.00    +0.000 HD
BRANCH  18  21
ATOM     21  C   UNL     1      48.740   7.109  17.845  0.00  0.00    +0.000 A 
ATOM     22  C   UNL     1      49.097   7.491  19.131  0.00  0.00    +0.000 A 
ATOM     23  S   UNL     1      49.158   6.200  20.243  0.00  0.00    +0.000 S 
ATOM     24  C   UNL     1      48.753   5.072  19.036  0.00  0.00    +0.000 A 
ATOM     25  N   UNL     1      48.664   3.746  19.323  0.00  0.00    +0.000 NA
ATOM     26  C   UNL     1      48.386   2.998  18.308  0.00  0.00    +0.000 A 
ATOM     27  N   UNL     1      48.176   3.459  17.034  0.00  0.00    +0.000 N 
ATOM     28  C   UNL     1      48.201   4.797  16.710  0.00  0.00    +0.000 A 
ATOM     29  O   UNL     1      47.916   5.180  15.582  0.00  0.00    +0.000 OA
ATOM     30  C   UNL     1      48.546   5.678  17.807  0.00  0.00    +0.000 A 
ATOM     31  H   UNL     1      47.943   2.825  16.284  0.00  0.00    +0.000 HD
ENDBRANCH  18  21
ENDBRANCH   1  17
TORSDOF 6
ENDMDL
MODEL 4
REMARK VINA RESULT:    -6.660      2.295      3.290
REMARK INTER + INTRA:         -10.005
REMARK INTER:                  -9.009
REMARK INTRA:                  -0.997
REMARK UNBOUND:                -1.010
REMARK  Name = 
REMARK  7 active torsions:
REMARK  status: ('A' for Active; 'I' for Inactive)
REMARK    1  A    between atoms: C_1  and  O_2
REMARK    2  A    between atoms: O_2  and  C_3
REMARK    3  A    between atoms: C_8  and  C_9
REMARK    4  A    between atoms: C_9  and  C_10
REMARK    5  A    between atoms: C_13  and  C_14
REMARK    6  A    between atoms: C_14  and  N_15
REMARK    7  A    between atoms: C_16  and  C_18
REMARK                            x       y       z     vdW  Elec       q    Type
REMARK                         _______ _______ _______ _____ _____    ______ ____
ROOT
ATOM      1  C   UNL     1      49.053   7.956  16.028  0.00  0.00    +0.000 C 
ENDROOT
BRANCH   1   5
ATOM      2  C   UNL     1      46.903   6.991  12.462  0.00  0.00    +0.000 A 
ATOM      3  C   UNL     1      47.815   6.068  12.980  0.00  0.00    +0.000 A 
ATOM      4  C   UNL     1      48.541   6.379  14.129  0.00  0.00    +0.000 A 
ATOM      5  C   UNL     1      48.357   7.621  14.729  0.00  0.00    +0.000 A 
ATOM      6  N   UNL     1      47.512   8.553  14.219  0.00  0.00    +0.000 NA
ATOM      7  C   UNL     1      46.816   8.221  13.103  0.00  0.00    +0.000 A 
BRANCH   2   8
ATOM      8  C   UNL     1      45.967   6.641  11.336  0.00  0.00    +0.000 C 
BRANCH   8  14
ATOM      9  C   UNL     1      44.852   4.534  10.413  0.00  0.00    +0.000 A 
ATOM     10  C   UNL     1      43.961   3.466  10.586  0.00  0.00    +0.000 A 
ATOM     11  C   UNL     1      43.336   3.252  11.816  0.00  0.00    +0.000 A 
ATOM     12  C   UNL     1      43.613   4.087  12.891  0.00  0.00    +0.000 A 
ATOM     13  C   UNL     1      44.505   5.146  12.735  0.00  0.00    +0.000 A 
ATOM     14  C   UNL     1      45.122   5.396  11.495  0.00  0.00    +0.000 A 
BRANCH   9  16
ATOM     15  C   UNL     1      45.394   3.830   8.206  0.00  0.00    +0.000 C 
ATOM     16  O   UNL     1      45.496   4.812   9.234  0.00  0.00    +0.000 OA
ENDBRANCH   9  16
ENDBRANCH   8  14
ENDBRANCH   2   8
ENDBRANCH   1   5
BRANCH   1  17
ATOM     17  N   UNL     1      50.041   6.958  16.390  0.00  0.00    +0.000 N 
ATOM     18  C   UNL     1      50.070   6.357  17.621  0.00  0.00    +0.000 C 
ATOM     19  O   UNL     1      49.251   6.633  18.496  0.00  0.00    +0.000 OA
ATOM     20  H   UNL     1      50.842   6.886  15.770  0.00  0.00    +0.000 HD
BRANCH  18  21
ATOM     21  C   UNL     1      51.084   5.313  17.828  0.00  0.00    +0.000 A 
ATOM     22  C   UNL     1      52.337   5.665  18.311  0.00  0.00    +0.000 A 
ATOM     23  S   UNL     1      53.386   4.340  18.537  0.00  0.00    +0.000 S 
ATOM     24  C   UNL     1      52.219   3.249  17.954  0.00  0.00    +0.000 A 
ATOM     25  N   UNL     1      52.494   1.921  17.857  0.00  0.00    +0.000 NA
ATOM     26  C   UNL     1      51.535   1.212  17.364  0.00  0.00    +0.000 A 
ATOM     27  N   UNL     1      50.319   1.711  16.972  0.00  0.00    +0.000 N 
ATOM     28  C   UNL     1      49.978   3.038  17.105  0.00  0.00    +0.000 A 
ATOM     29  O   UNL     1      48.850   3.431  16.833  0.00  0.00    +0.000 OA
ATOM     30  C   UNL     1      51.035   3.885  17.618  0.00  0.00    +0.000 A 
ATOM     31  H   UNL     1      49.600   1.101  16.610  0.00  0.00    +0.000 HD
ENDBRANCH  18  21
ENDBRANCH   1  17
TORSDOF 6
ENDMDL
MODEL 5
REMARK VINA RESULT:    -6.637      3.253      8.184
REMARK INTER + INTRA:          -9.975
REMARK INTER:                  -8.746
REMARK INTRA:                  -1.229
REMARK UNBOUND:                -1.010
REMARK  Name = 
REMARK  7 active torsions:
REMARK  status: ('A' for Active; 'I' for Inactive)
REMARK    1  A    between atoms: C_1  and  O_2
REMARK    2  A    between atoms: O_2  and  C_3
REMARK    3  A    between atoms: C_8  and  C_9
REMARK    4  A    between atoms: C_9  and  C_10
REMARK    5  A    between atoms: C_13  and  C_14
REMARK    6  A    between atoms: C_14  and  N_15
REMARK    7  A    between atoms: C_16  and  C_18
REMARK                            x       y       z     vdW  Elec       q    Type
REMARK                         _______ _______ _______ _____ _____    ______ ____
ROOT
ATOM      1  C   UNL     1      47.854   7.877  11.775  0.00  0.00    +0.000 C 
ENDROOT
BRANCH   1   5
ATOM      2  C   UNL     1      49.509   8.175  15.704  0.00  0.00    +0.000 A 
ATOM      3  C   UNL     1      48.358   8.902  15.391  0.00  0.00    +0.000 A 
ATOM      4  C   UNL     1      47.820   8.833  14.106  0.00  0.00    +0.000 A 
ATOM      5  C   UNL     1      48.460   8.052  13.148  0.00  0.00    +0.000 A 
ATOM      6  N   UNL     1      49.605   7.373  13.414  0.00  0.00    +0.000 NA
ATOM      7  C   UNL     1      50.101   7.455  14.672  0.00  0.00    +0.000 A 
BRANCH   2   8
ATOM      8  C   UNL     1      50.028   8.069  17.113  0.00  0.00    +0.000 C 
BRANCH   8  14
ATOM      9  C   UNL     1      49.247   5.888  18.194  0.00  0.00    +0.000 A 
ATOM     10  C   UNL     1      48.358   5.212  19.042  0.00  0.00    +0.000 A 
ATOM     11  C   UNL     1      47.416   5.916  19.793  0.00  0.00    +0.000 A 
ATOM     12  C   UNL     1      47.368   7.303  19.726  0.00  0.00    +0.000 A 
ATOM     13  C   UNL     1      48.253   7.988  18.895  0.00  0.00    +0.000 A 
ATOM     14  C   UNL     1      49.190   7.293  18.107  0.00  0.00    +0.000 A 
BRANCH   9  16
ATOM     15  C   UNL     1      50.378   3.869  17.643  0.00  0.00    +0.000 C 
ATOM     16  O   UNL     1      50.192   5.264  17.420  0.00  0.00    +0.000 OA
ENDBRANCH   9  16
ENDBRANCH   8  14
ENDBRANCH   2   8
ENDBRANCH   1   5
BRANCH   1  17
ATOM     17  N   UNL     1      47.089   6.650  11.668  0.00  0.00    +0.000 N 
ATOM     18  C   UNL     1      45.723   6.619  11.764  0.00  0.00    +0.000 C 
ATOM     19  O   UNL     1      45.061   7.640  11.947  0.00  0.00    +0.000 OA
ATOM     20  H   UNL     1      47.623   5.790  11.741  0.00  0.00    +0.000 HD
BRANCH  18  21
ATOM     21  C   UNL     1      45.071   5.316  11.568  0.00  0.00    +0.000 A 
ATOM     22  C   UNL     1      44.355   4.746  12.613  0.00  0.00    +0.000 A 
ATOM     23  S   UNL     1      43.625   3.257  12.218  0.00  0.00    +0.000 S 
ATOM     24  C   UNL     1      44.277   3.294  10.647  0.00  0.00    +0.000 A 
ATOM     25  N   UNL     1      44.052   2.274   9.776  0.00  0.00    +0.000 NA
ATOM     26  C   UNL     1      44.635   2.412   8.632  0.00  0.00    +0.000 A 
ATOM     27  N   UNL     1      45.412   3.485   8.278  0.00  0.00    +0.000 N 
ATOM     28  C   UNL     1      45.620   4.563   9.107  0.00  0.00    +0.000 A 
ATOM     29  O   UNL     1      46.242   5.547   8.722  0.00  0.00    +0.000 OA
ATOM     30  C   UNL     1      45.018   4.441  10.419  0.00  0.00    +0.000 A 
ATOM     31  H   UNL     1      45.828   3.544   7.359  0.00  0.00    +0.000 HD
ENDBRANCH  18  21
ENDBRANCH   1  17
TORSDOF 6
ENDMDL
MODEL 6
REMARK VINA RESULT:    -6.377      4.697      7.872
REMARK INTER + INTRA:          -9.624
REMARK INTER:                  -8.587
REMARK INTRA:                  -1.037
REMARK UNBOUND:                -1.010
REMARK  Name = 
REMARK  7 active torsions:
REMARK  status: ('A' for Active; 'I' for Inactive)
REMARK    1  A    between atoms: C_1  and  O_2
REMARK    2  A    between atoms: O_2  and  C_3
REMARK    3  A    between atoms: C_8  and  C_9
REMARK    4  A    between atoms: C_9  and  C_10
REMARK    5  A    between atoms: C_13  and  C_14
REMARK    6  A    between atoms: C_14  and  N_15
REMARK    7  A    between atoms: C_16  and  C_18
REMARK                            x       y       z     vdW  Elec       q    Type
REMARK                         _______ _______ _______ _____ _____    ______ ____
ROOT
ATOM      1  C   UNL     1      46.436   8.161  12.906  0.00  0.00    +0.000 C 
ENDROOT
BRANCH   1   5
ATOM      2  C   UNL     1      50.370   8.857  11.388  0.00  0.00    +0.000 A 
ATOM      3  C   UNL     1      49.956   7.546  11.638  0.00  0.00    +0.000 A 
ATOM      4  C   UNL     1      48.684   7.305  12.156  0.00  0.00    +0.000 A 
ATOM      5  C   UNL     1      47.853   8.387  12.435  0.00  0.00    +0.000 A 
ATOM      6  N   UNL     1      48.249   9.671  12.244  0.00  0.00    +0.000 NA
ATOM      7  C   UNL     1      49.489   9.874  11.736  0.00  0.00    +0.000 A 
BRANCH   2   8
ATOM      8  C   UNL     1      51.655   9.164  10.665  0.00  0.00    +0.000 C 
BRANCH   8  14
ATOM      9  C   UNL     1      53.615   7.590  11.130  0.00  0.00    +0.000 A 
ATOM     10  C   UNL     1      54.486   6.586  10.687  0.00  0.00    +0.000 A 
ATOM     11  C   UNL     1      54.311   5.990   9.438  0.00  0.00    +0.000 A 
ATOM     12  C   UNL     1      53.248   6.372   8.628  0.00  0.00    +0.000 A 
ATOM     13  C   UNL     1      52.368   7.363   9.061  0.00  0.00    +0.000 A 
ATOM     14  C   UNL     1      52.547   7.996  10.305  0.00  0.00    +0.000 A 
BRANCH   9  16
ATOM     15  C   UNL     1      54.730   7.733  13.226  0.00  0.00    +0.000 C 
ATOM     16  O   UNL     1      53.730   8.227  12.340  0.00  0.00    +0.000 OA
ENDBRANCH   9  16
ENDBRANCH   8  14
ENDBRANCH   2   8
ENDBRANCH   1   5
BRANCH   1  17
ATOM     17  N   UNL     1      45.953   6.836  12.569  0.00  0.00    +0.000 N 
ATOM     18  C   UNL     1      44.826   6.627  11.820  0.00  0.00    +0.000 C 
ATOM     19  O   UNL     1      44.153   7.561  11.385  0.00  0.00    +0.000 OA
ATOM     20  H   UNL     1      46.361   6.071  13.097  0.00  0.00    +0.000 HD
BRANCH  18  21
ATOM     21  C   UNL     1      44.491   5.232  11.495  0.00  0.00    +0.000 A 
ATOM     22  C   UNL     1      43.741   4.484  12.393  0.00  0.00    +0.000 A 
ATOM     23  S   UNL     1      43.400   2.902  11.857  0.00  0.00    +0.000 S 
ATOM     24  C   UNL     1      44.283   3.142  10.423  0.00  0.00    +0.000 A 
ATOM     25  N   UNL     1      44.415   2.141   9.511  0.00  0.00    +0.000 NA
ATOM     26  C   UNL     1      45.141   2.446   8.487  0.00  0.00    +0.000 A 
ATOM     27  N   UNL     1      45.734   3.665   8.287  0.00  0.00    +0.000 N 
ATOM     28  C   UNL     1      45.581   4.722   9.156  0.00  0.00    +0.000 A 
ATOM     29  O   UNL     1      46.047   5.826   8.898  0.00  0.00    +0.000 OA
ATOM     30  C   UNL     1      44.806   4.422  10.342  0.00  0.00    +0.000 A 
ATOM     31  H   UNL     1      46.276   3.849   7.455  0.00  0.00    +0.000 HD
ENDBRANCH  18  21
ENDBRANCH   1  17
TORSDOF 6
ENDMDL
MODEL 7
REMARK VINA RESULT:    -6.359      1.626      2.097
REMARK INTER + INTRA:          -9.600
REMARK INTER:                  -8.747
REMARK INTRA:                  -0.853
REMARK UNBOUND:                -1.010
REMARK  Name = 
REMARK  7 active torsions:
REMARK  status: ('A' for Active; 'I' for Inactive)
REMARK    1  A    between atoms: C_1  and  O_2
REMARK    2  A    between atoms: O_2  and  C_3
REMARK    3  A    between atoms: C_8  and  C_9
REMARK    4  A    between atoms: C_9  and  C_10
REMARK    5  A    between atoms: C_13  and  C_14
REMARK    6  A    between atoms: C_14  and  N_15
REMARK    7  A    between atoms: C_16  and  C_18
REMARK                            x       y       z     vdW  Elec       q    Type
REMARK                         _______ _______ _______ _____ _____    ______ ____
ROOT
ATOM      1  C   UNL     1      48.611   8.794  12.727  0.00  0.00    +0.000 C 
ENDROOT
BRANCH   1   5
ATOM      2  C   UNL     1      45.179   6.501  11.620  0.00  0.00    +0.000 A 
ATOM      3  C   UNL     1      45.087   7.895  11.655  0.00  0.00    +0.000 A 
ATOM      4  C   UNL     1      46.191   8.655  12.038  0.00  0.00    +0.000 A 
ATOM      5  C   UNL     1      47.366   8.003  12.401  0.00  0.00    +0.000 A 
ATOM      6  N   UNL     1      47.467   6.650  12.419  0.00  0.00    +0.000 NA
ATOM      7  C   UNL     1      46.378   5.937  12.038  0.00  0.00    +0.000 A 
BRANCH   2   8
ATOM      8  C   UNL     1      44.083   5.643  11.046  0.00  0.00    +0.000 C 
BRANCH   8  14
ATOM      9  C   UNL     1      44.041   3.237  10.184  0.00  0.00    +0.000 A 
ATOM     10  C   UNL     1      44.545   2.257   9.318  0.00  0.00    +0.000 A 
ATOM     11  C   UNL     1      45.485   2.585   8.340  0.00  0.00    +0.000 A 
ATOM     12  C   UNL     1      45.913   3.900   8.200  0.00  0.00    +0.000 A 
ATOM     13  C   UNL     1      45.411   4.886   9.048  0.00  0.00    +0.000 A 
ATOM     14  C   UNL     1      44.485   4.568  10.059  0.00  0.00    +0.000 A 
BRANCH   9  16
ATOM     15  C   UNL     1      43.641   2.552  12.427  0.00  0.00    +0.000 C 
ATOM     16  O   UNL     1      43.124   2.988  11.173  0.00  0.00    +0.000 OA
ENDBRANCH   9  16
ENDBRANCH   8  14
ENDBRANCH   2   8
ENDBRANCH   1   5
BRANCH   1  17
ATOM     17  N   UNL     1      49.192   8.399  13.996  0.00  0.00    +0.000 N 
ATOM     18  C   UNL     1      50.531   8.159  14.155  0.00  0.00    +0.000 C 
ATOM     19  O   UNL     1      51.325   8.267  13.221  0.00  0.00    +0.000 OA
ATOM     20  H   UNL     1      48.533   8.095  14.706  0.00  0.00    +0.000 HD
BRANCH  18  21
ATOM     21  C   UNL     1      50.993   7.834  15.512  0.00  0.00    +0.000 A 
ATOM     22  C   UNL     1      52.064   8.531  16.055  0.00  0.00    +0.000 A 
ATOM     23  S   UNL     1      52.453   8.068  17.649  0.00  0.00    +0.000 S 
ATOM     24  C   UNL     1      51.233   6.883  17.658  0.00  0.00    +0.000 A 
ATOM     25  N   UNL     1      51.043   6.088  18.744  0.00  0.00    +0.000 NA
ATOM     26  C   UNL     1      50.110   5.207  18.604  0.00  0.00    +0.000 A 
ATOM     27  N   UNL     1      49.339   5.061  17.480  0.00  0.00    +0.000 N 
ATOM     28  C   UNL     1      49.459   5.880  16.380  0.00  0.00    +0.000 A 
ATOM     29  O   UNL     1      48.690   5.781  15.431  0.00  0.00    +0.000 OA
ATOM     30  C   UNL     1      50.520   6.862  16.471  0.00  0.00    +0.000 A 
ATOM     31  H   UNL     1      48.609   4.364  17.437  0.00  0.00    +0.000 HD
ENDBRANCH  18  21
ENDBRANCH   1  17
TORSDOF 6
ENDMDL
MODEL 8
REMARK VINA RESULT:    -6.258      3.231      7.741
REMARK INTER + INTRA:          -9.463
REMARK INTER:                  -8.252
REMARK INTRA:                  -1.211
REMARK UNBOUND:                -1.010
REMARK  Name = 
REMARK  7 active torsions:
REMARK  status: ('A' for Active; 'I' for Inactive)
REMARK    1  A    between atoms: C_1  and  O_2
REMARK    2  A    between atoms: O_2  and  C_3
REMARK    3  A    between atoms: C_8  and  C_9
REMARK    4  A    between atoms: C_9  and  C_10
REMARK    5  A    between atoms: C_13  and  C_14
REMARK    6  A    between atoms: C_14  and  N_15
REMARK    7  A    between atoms: C_16  and  C_18
REMARK                            x       y       z     vdW  Elec       q    Type
REMARK                         _______ _______ _______ _____ _____    ______ ____
ROOT
ATOM      1  C   UNL     1      48.027   8.476  11.887  0.00  0.00    +0.000 C 
ENDROOT
BRANCH   1   5
ATOM      2  C   UNL     1      49.609   7.767  15.794  0.00  0.00    +0.000 A 
ATOM      3  C   UNL     1      48.531   8.642  15.642  0.00  0.00    +0.000 A 
ATOM      4  C   UNL     1      48.019   8.902  14.371  0.00  0.00    +0.000 A 
ATOM      5  C   UNL     1      48.613   8.295  13.268  0.00  0.00    +0.000 A 
ATOM      6  N   UNL     1      49.690   7.477  13.384  0.00  0.00    +0.000 NA
ATOM      7  C   UNL     1      50.162   7.240  14.632  0.00  0.00    +0.000 A 
BRANCH   2   8
ATOM      8  C   UNL     1      50.083   7.312  17.148  0.00  0.00    +0.000 C 
BRANCH   8  14
ATOM      9  C   UNL     1      48.261   5.690  17.910  0.00  0.00    +0.000 A 
ATOM     10  C   UNL     1      47.217   5.376  18.791  0.00  0.00    +0.000 A 
ATOM     11  C   UNL     1      46.930   6.200  19.880  0.00  0.00    +0.000 A 
ATOM     12  C   UNL     1      47.700   7.332  20.116  0.00  0.00    +0.000 A 
ATOM     13  C   UNL     1      48.749   7.650  19.254  0.00  0.00    +0.000 A 
ATOM     14  C   UNL     1      49.033   6.847  18.134  0.00  0.00    +0.000 A 
BRANCH   9  16
ATOM     15  C   UNL     1      47.516   4.327  16.109  0.00  0.00    +0.000 C 
ATOM     16  O   UNL     1      48.594   4.933  16.816  0.00  0.00    +0.000 OA
ENDBRANCH   9  16
ENDBRANCH   8  14
ENDBRANCH   2   8
ENDBRANCH   1   5
BRANCH   1  17
ATOM     17  N   UNL     1      47.402   7.264  11.396  0.00  0.00    +0.000 N 
ATOM     18  C   UNL     1      46.046   7.074  11.404  0.00  0.00    +0.000 C 
ATOM     19  O   UNL     1      45.273   7.930  11.832  0.00  0.00    +0.000 OA
ATOM     20  H   UNL     1      48.025   6.475  11.251  0.00  0.00    +0.000 HD
BRANCH  18  21
ATOM     21  C   UNL     1      45.545   5.825  10.811  0.00  0.00    +0.000 A 
ATOM     22  C   UNL     1      45.788   5.560   9.470  0.00  0.00    +0.000 A 
ATOM     23  S   UNL     1      45.181   4.057   8.942  0.00  0.00    +0.000 S 
ATOM     24  C   UNL     1      44.527   3.723  10.477  0.00  0.00    +0.000 A 
ATOM     25  N   UNL     1      43.834   2.576  10.704  0.00  0.00    +0.000 NA
ATOM     26  C   UNL     1      43.361   2.466  11.900  0.00  0.00    +0.000 A 
ATOM     27  N   UNL     1      43.532   3.395  12.894  0.00  0.00    +0.000 N 
ATOM     28  C   UNL     1      44.273   4.542  12.724  0.00  0.00    +0.000 A 
ATOM     29  O   UNL     1      44.484   5.303  13.662  0.00  0.00    +0.000 OA
ATOM     30  C   UNL     1      44.795   4.732  11.386  0.00  0.00    +0.000 A 
ATOM     31  H   UNL     1      43.153   3.243  13.817  0.00  0.00    +0.000 HD
ENDBRANCH  18  21
ENDBRANCH   1  17
TORSDOF 6
ENDMDL
MODEL 9
REMARK VINA RESULT:    -6.209      4.876      7.948
REMARK INTER + INTRA:          -9.397
REMARK INTER:                  -8.328
REMARK INTRA:                  -1.069
REMARK UNBOUND:                -1.010
REMARK  Name = 
REMARK  7 active torsions:
REMARK  status: ('A' for Active; 'I' for Inactive)
REMARK    1  A    between atoms: C_1  and  O_2
REMARK    2  A    between atoms: O_2  and  C_3
REMARK    3  A    between atoms: C_8  and  C_9
REMARK    4  A    between atoms: C_9  and  C_10
REMARK    5  A    between atoms: C_13  and  C_14
REMARK    6  A    between atoms: C_14  and  N_15
REMARK    7  A    between atoms: C_16  and  C_18
REMARK                            x       y       z     vdW  Elec       q    Type
REMARK                         _______ _______ _______ _____ _____    ______ ____
ROOT
ATOM      1  C   UNL     1      46.862   7.760  13.512  0.00  0.00    +0.000 C 
ENDROOT
BRANCH   1   5
ATOM      2  C   UNL     1      50.900   8.279  12.213  0.00  0.00    +0.000 A 
ATOM      3  C   UNL     1      49.947   7.806  11.308  0.00  0.00    +0.000 A 
ATOM      4  C   UNL     1      48.631   7.609  11.723  0.00  0.00    +0.000 A 
ATOM      5  C   UNL     1      48.295   7.869  13.049  0.00  0.00    +0.000 A 
ATOM      6  N   UNL     1      49.213   8.285  13.959  0.00  0.00    +0.000 NA
ATOM      7  C   UNL     1      50.483   8.472  13.525  0.00  0.00    +0.000 A 
BRANCH   2   8
ATOM      8  C   UNL     1      52.285   8.679  11.777  0.00  0.00    +0.000 C 
BRANCH   8  14
ATOM      9  C   UNL     1      53.138   8.145   9.428  0.00  0.00    +0.000 A 
ATOM     10  C   UNL     1      53.407   8.564   8.118  0.00  0.00    +0.000 A 
ATOM     11  C   UNL     1      53.041   9.841   7.688  0.00  0.00    +0.000 A 
ATOM     12  C   UNL     1      52.378  10.702   8.555  0.00  0.00    +0.000 A 
ATOM     13  C   UNL     1      52.094  10.293   9.857  0.00  0.00    +0.000 A 
ATOM     14  C   UNL     1      52.484   9.020  10.316  0.00  0.00    +0.000 A 
BRANCH   9  16
ATOM     15  C   UNL     1      53.584   5.852   8.974  0.00  0.00    +0.000 C 
ATOM     16  O   UNL     1      53.476   6.911   9.922  0.00  0.00    +0.000 OA
ENDBRANCH   9  16
ENDBRANCH   8  14
ENDBRANCH   2   8
ENDBRANCH   1   5
BRANCH   1  17
ATOM     17  N   UNL     1      46.240   6.525  13.075  0.00  0.00    +0.000 N 
ATOM     18  C   UNL     1      45.234   6.490  12.147  0.00  0.00    +0.000 C 
ATOM     19  O   UNL     1      44.797   7.515  11.624  0.00  0.00    +0.000 OA
ATOM     20  H   UNL     1      46.430   5.710  13.650  0.00  0.00    +0.000 HD
BRANCH  18  21
ATOM     21  C   UNL     1      44.743   5.164  11.746  0.00  0.00    +0.000 A 
ATOM     22  C   UNL     1      43.994   4.413  12.643  0.00  0.00    +0.000 A 
ATOM     23  S   UNL     1      43.464   2.918  12.018  0.00  0.00    +0.000 S 
ATOM     24  C   UNL     1      44.254   3.197  10.538  0.00  0.00    +0.000 A 
ATOM     25  N   UNL     1      44.220   2.269   9.545  0.00  0.00    +0.000 NA
ATOM     26  C   UNL     1      44.892   2.592   8.490  0.00  0.00    +0.000 A 
ATOM     27  N   UNL     1      45.583   3.765   8.335  0.00  0.00    +0.000 N 
ATOM     28  C   UNL     1      45.598   4.755   9.292  0.00  0.00    +0.000 A 
ATOM     29  O   UNL     1      46.147   5.830   9.080  0.00  0.00    +0.000 OA
ATOM     30  C   UNL     1      44.890   4.427  10.512  0.00  0.00    +0.000 A 
ATOM     31  H   UNL     1      46.075   3.969   7.477  0.00  0.00    +0.000 HD
ENDBRANCH  18  21
ENDBRANCH   1  17
TORSDOF 6
ENDMDL
