MODEL 1
REMARK VINA RESULT:    -7.778      0.000      0.000
REMARK INTER + INTRA:         -12.379
REMARK INTER:                 -11.189
REMARK INTRA:                  -1.190
REMARK UNBOUND:                -1.190
REMARK  Name = 
REMARK  8 active torsions:
REMARK  status: ('A' for Active; 'I' for Inactive)
REMARK    1  A    between atoms: C_2  and  C_20
REMARK    2  A    between atoms: N_3  and  C_4
REMARK    3  A    between atoms: C_4  and  C_5
REMARK    4  A    between atoms: C_8  and  C_9
REMARK    5  A    between atoms: C_9  and  O_10
REMARK    6  A    between atoms: C_9  and  C_11
REMARK    7  A    between atoms: C_11  and  C_12
REMARK    8  A    between atoms: C_12  and  N_13
REMARK                            x       y       z     vdW  Elec       q    Type
REMARK                         _______ _______ _______ _____ _____    ______ ____
ROOT
ATOM      1  C   UNL     1      47.163   7.273  13.128  0.00  0.00    +0.000 C 
ENDROOT
BRANCH   1   2
ATOM      2  C   UNL     1      46.356   6.225  12.411  0.00  0.00    +0.000 A 
ATOM      3  C   UNL     1      46.025   6.404  11.064  0.00  0.00    +0.000 A 
ATOM      4  C   UNL     1      45.227   5.476  10.398  0.00  0.00    +0.000 A 
ATOM      5  C   UNL     1      44.720   4.352  11.065  0.00  0.00    +0.000 A 
ATOM      6  C   UNL     1      45.060   4.172  12.416  0.00  0.00    +0.000 A 
ATOM      7  C   UNL     1      45.866   5.099  13.084  0.00  0.00    +0.000 A 
BRANCH   5   8
ATOM      8  C   UNL     1      43.788   3.353  10.404  0.00  0.00    +0.000 C 
BRANCH   8   9
ATOM      9  O   UNL     1      42.901   2.830  11.398  0.00  0.00    +0.000 OA
ATOM     10  H   UNL     1      42.014   3.174  11.190  0.00  0.00    +0.000 HD
ENDBRANCH   8   9
BRANCH   8  11
ATOM     11  C   UNL     1      44.473   2.176   9.691  0.00  0.00    +0.000 C 
BRANCH  11  12
ATOM     12  C   UNL     1      44.956   2.588   8.299  0.00  0.00    +0.000 C 
BRANCH  12  13
ATOM     13  N   UNL     1      46.424   2.704   8.183  0.00  0.00    +0.000 NA
ATOM     14  C   UNL     1      46.763   3.814   7.269  0.00  0.00    +0.000 C 
ATOM     15  C   UNL     1      46.627   3.217   5.878  0.00  0.00    +0.000 C 
ATOM     16  C   UNL     1      47.120   1.791   6.057  0.00  0.00    +0.000 C 
ATOM     17  C   UNL     1      47.066   1.534   7.560  0.00  0.00    +0.000 C 
ENDBRANCH  12  13
ENDBRANCH  11  12
ENDBRANCH   8  11
ENDBRANCH   5   8
ENDBRANCH   1   2
BRANCH   1  20
ATOM     18  O   UNL     1      49.781   6.994  14.144  0.00  0.00    +0.000 OA
ATOM     19  C   UNL     1      48.826   6.780  14.886  0.00  0.00    +0.000 C 
ATOM     20  N   UNL     1      47.527   6.817  14.446  0.00  0.00    +0.000 N 
ATOM     21  H   UNL     1      46.781   6.834  15.133  0.00  0.00    +0.000 HD
BRANCH  19  22
ATOM     22  C   UNL     1      49.020   6.416  16.295  0.00  0.00    +0.000 A 
ATOM     23  C   UNL     1      49.571   7.337  17.177  0.00  0.00    +0.000 A 
ATOM     24  S   UNL     1      49.747   6.741  18.766  0.00  0.00    +0.000 S 
ATOM     25  C   UNL     1      49.044   5.249  18.343  0.00  0.00    +0.000 A 
ATOM     26  N   UNL     1      48.864   4.274  19.277  0.00  0.00    +0.000 NA
ATOM     27  C   UNL     1      48.279   3.214  18.829  0.00  0.00    +0.000 A 
ATOM     28  N   UNL     1      47.868   3.034  17.537  0.00  0.00    +0.000 N 
ATOM     29  C   UNL     1      48.098   3.959  16.547  0.00  0.00    +0.000 A 
ATOM     30  O   UNL     1      47.842   3.707  15.372  0.00  0.00    +0.000 OA
ATOM     31  C   UNL     1      48.708   5.196  17.005  0.00  0.00    +0.000 A 
ATOM     32  H   UNL     1      47.443   2.168  17.242  0.00  0.00    +0.000 HD
ENDBRANCH  19  22
ENDBRANCH   1  20
TORSDOF 8
ENDMDL
MODEL 2
REMARK VINA RESULT:    -7.410      1.888      2.475
REMARK INTER + INTRA:         -11.848
REMARK INTER:                 -10.478
REMARK INTRA:                  -1.370
REMARK UNBOUND:                -1.190
REMARK  Name = 
REMARK  8 active torsions:
REMARK  status: ('A' for Active; 'I' for Inactive)
REMARK    1  A    between atoms: C_2  and  C_20
REMARK    2  A    between atoms: N_3  and  C_4
REMARK    3  A    between atoms: C_4  and  C_5
REMARK    4  A    between atoms: C_8  and  C_9
REMARK    5  A    between atoms: C_9  and  O_10
REMARK    6  A    between atoms: C_9  and  C_11
REMARK    7  A    between atoms: C_11  and  C_12
REMARK    8  A    between atoms: C_12  and  N_13
REMARK                            x       y       z     vdW  Elec       q    Type
REMARK                         _______ _______ _______ _____ _____    ______ ____
ROOT
ATOM      1  C   UNL     1      47.905   7.212  13.689  0.00  0.00    +0.000 C 
ENDROOT
BRANCH   1   2
ATOM      2  C   UNL     1      47.022   6.319  12.862  0.00  0.00    +0.000 A 
ATOM      3  C   UNL     1      46.734   6.660  11.537  0.00  0.00    +0.000 A 
ATOM      4  C   UNL     1      45.869   5.879  10.773  0.00  0.00    +0.000 A 
ATOM      5  C   UNL     1      45.249   4.745  11.318  0.00  0.00    +0.000 A 
ATOM      6  C   UNL     1      45.546   4.403  12.648  0.00  0.00    +0.000 A 
ATOM      7  C   UNL     1      46.419   5.182  13.414  0.00  0.00    +0.000 A 
BRANCH   5   8
ATOM      8  C   UNL     1      44.244   3.906  10.552  0.00  0.00    +0.000 C 
BRANCH   8   9
ATOM      9  O   UNL     1      44.451   2.530  10.883  0.00  0.00    +0.000 OA
ATOM     10  H   UNL     1      43.583   2.093  10.822  0.00  0.00    +0.000 HD
ENDBRANCH   8   9
BRANCH   8  11
ATOM     11  C   UNL     1      44.285   4.053   9.022  0.00  0.00    +0.000 C 
BRANCH  11  12
ATOM     12  C   UNL     1      44.820   2.777   8.365  0.00  0.00    +0.000 C 
BRANCH  12  13
ATOM     13  N   UNL     1      46.293   2.708   8.302  0.00  0.00    +0.000 NA
ATOM     14  C   UNL     1      46.803   3.773   7.416  0.00  0.00    +0.000 C 
ATOM     15  C   UNL     1      46.642   3.212   6.013  0.00  0.00    +0.000 C 
ATOM     16  C   UNL     1      46.944   1.733   6.188  0.00  0.00    +0.000 C 
ATOM     17  C   UNL     1      46.805   1.472   7.685  0.00  0.00    +0.000 C 
ENDBRANCH  12  13
ENDBRANCH  11  12
ENDBRANCH   8  11
ENDBRANCH   5   8
ENDBRANCH   1   2
BRANCH   1  20
ATOM     18  O   UNL     1      50.121   6.595  15.324  0.00  0.00    +0.000 OA
ATOM     19  C   UNL     1      48.998   6.609  15.819  0.00  0.00    +0.000 C 
ATOM     20  N   UNL     1      47.865   6.821  15.076  0.00  0.00    +0.000 N 
ATOM     21  H   UNL     1      46.997   7.022  15.558  0.00  0.00    +0.000 HD
BRANCH  19  22
ATOM     22  C   UNL     1      48.790   6.345  17.249  0.00  0.00    +0.000 A 
ATOM     23  C   UNL     1      49.093   5.094  17.772  0.00  0.00    +0.000 A 
ATOM     24  S   UNL     1      48.770   4.955  19.441  0.00  0.00    +0.000 S 
ATOM     25  C   UNL     1      48.263   6.577  19.535  0.00  0.00    +0.000 A 
ATOM     26  N   UNL     1      47.874   7.119  20.723  0.00  0.00    +0.000 NA
ATOM     27  C   UNL     1      47.559   8.369  20.657  0.00  0.00    +0.000 A 
ATOM     28  N   UNL     1      47.586   9.123  19.517  0.00  0.00    +0.000 N 
ATOM     29  C   UNL     1      47.897   8.599  18.285  0.00  0.00    +0.000 A 
ATOM     30  O   UNL     1      47.776   9.269  17.261  0.00  0.00    +0.000 OA
ATOM     31  C   UNL     1      48.311   7.207  18.307  0.00  0.00    +0.000 A 
ATOM     32  H   UNL     1      47.298  10.090  19.525  0.00  0.00    +0.000 HD
ENDBRANCH  19  22
ENDBRANCH   1  20
TORSDOF 8
ENDMDL
MODEL 3
REMARK VINA RESULT:    -6.967      2.668      3.397
REMARK INTER + INTRA:         -11.211
REMARK INTER:                 -10.190
REMARK INTRA:                  -1.021
REMARK UNBOUND:                -1.190
REMARK  Name = 
REMARK  8 active torsions:
REMARK  status: ('A' for Active; 'I' for Inactive)
REMARK    1  A    between atoms: C_2  and  C_20
REMARK    2  A    between atoms: N_3  and  C_4
REMARK    3  A    between atoms: C_4  and  C_5
REMARK    4  A    between atoms: C_8  and  C_9
REMARK    5  A    between atoms: C_9  and  O_10
REMARK    6  A    between atoms: C_9  and  C_11
REMARK    7  A    between atoms: C_11  and  C_12
REMARK    8  A    between atoms: C_12  and  N_13
REMARK                            x       y       z     vdW  Elec       q    Type
REMARK                         _______ _______ _______ _____ _____    ______ ____
ROOT
ATOM      1  C   UNL     1      47.023   4.151  16.060  0.00  0.00    +0.000 C 
ENDROOT
BRANCH   1   2
ATOM      2  C   UNL     1      46.776   4.618  14.651  0.00  0.00    +0.000 A 
ATOM      3  C   UNL     1      47.408   5.773  14.181  0.00  0.00    +0.000 A 
ATOM      4  C   UNL     1      47.146   6.256  12.901  0.00  0.00    +0.000 A 
ATOM      5  C   UNL     1      46.226   5.611  12.061  0.00  0.00    +0.000 A 
ATOM      6  C   UNL     1      45.598   4.448  12.535  0.00  0.00    +0.000 A 
ATOM      7  C   UNL     1      45.865   3.958  13.818  0.00  0.00    +0.000 A 
BRANCH   5   8
ATOM      8  C   UNL     1      45.851   6.140  10.689  0.00  0.00    +0.000 C 
BRANCH   8   9
ATOM      9  O   UNL     1      44.959   7.246  10.855  0.00  0.00    +0.000 OA
ATOM     10  H   UNL     1      45.297   7.769  11.603  0.00  0.00    +0.000 HD
ENDBRANCH   8   9
BRANCH   8  11
ATOM     11  C   UNL     1      45.198   5.122   9.741  0.00  0.00    +0.000 C 
BRANCH  11  12
ATOM     12  C   UNL     1      46.105   4.832   8.542  0.00  0.00    +0.000 C 
BRANCH  12  13
ATOM     13  N   UNL     1      45.505   3.928   7.540  0.00  0.00    +0.000 NA
ATOM     14  C   UNL     1      44.759   2.854   8.226  0.00  0.00    +0.000 C 
ATOM     15  C   UNL     1      45.821   1.839   8.614  0.00  0.00    +0.000 C 
ATOM     16  C   UNL     1      46.797   1.888   7.450  0.00  0.00    +0.000 C 
ATOM     17  C   UNL     1      46.495   3.198   6.729  0.00  0.00    +0.000 C 
ENDBRANCH  12  13
ENDBRANCH  11  12
ENDBRANCH   8  11
ENDBRANCH   5   8
ENDBRANCH   1   2
BRANCH   1  20
ATOM     18  O   UNL     1      48.334   5.212  18.323  0.00  0.00    +0.000 OA
ATOM     19  C   UNL     1      48.985   4.576  17.498  0.00  0.00    +0.000 C 
ATOM     20  N   UNL     1      48.438   4.098  16.335  0.00  0.00    +0.000 N 
ATOM     21  H   UNL     1      48.959   3.417  15.795  0.00  0.00    +0.000 HD
BRANCH  19  22
ATOM     22  C   UNL     1      50.421   4.329  17.684  0.00  0.00    +0.000 A 
ATOM     23  C   UNL     1      51.256   5.368  18.075  0.00  0.00    +0.000 A 
ATOM     24  S   UNL     1      52.893   4.911  18.219  0.00  0.00    +0.000 S 
ATOM     25  C   UNL     1      52.536   3.296  17.815  0.00  0.00    +0.000 A 
ATOM     26  N   UNL     1      53.517   2.351  17.788  0.00  0.00    +0.000 NA
ATOM     27  C   UNL     1      53.098   1.162  17.511  0.00  0.00    +0.000 A 
ATOM     28  N   UNL     1      51.797   0.832  17.248  0.00  0.00    +0.000 N 
ATOM     29  C   UNL     1      50.790   1.765  17.190  0.00  0.00    +0.000 A 
ATOM     30  O   UNL     1      49.660   1.457  16.815  0.00  0.00    +0.000 OA
ATOM     31  C   UNL     1      51.194   3.115  17.545  0.00  0.00    +0.000 A 
ATOM     32  H   UNL     1      51.537  -0.113  17.008  0.00  0.00    +0.000 HD
ENDBRANCH  19  22
ENDBRANCH   1  20
TORSDOF 8
ENDMDL
MODEL 4
REMARK VINA RESULT:    -6.927      2.117      2.832
REMARK INTER + INTRA:         -11.154
REMARK INTER:                  -9.715
REMARK INTRA:                  -1.439
REMARK UNBOUND:                -1.190
REMARK  Name = 
REMARK  8 active torsions:
REMARK  status: ('A' for Active; 'I' for Inactive)
REMARK    1  A    between atoms: C_2  and  C_20
REMARK    2  A    between atoms: N_3  and  C_4
REMARK    3  A    between atoms: C_4  and  C_5
REMARK    4  A    between atoms: C_8  and  C_9
REMARK    5  A    between atoms: C_9  and  O_10
REMARK    6  A    between atoms: C_9  and  C_11
REMARK    7  A    between atoms: C_11  and  C_12
REMARK    8  A    between atoms: C_12  and  N_13
REMARK                            x       y       z     vdW  Elec       q    Type
REMARK                         _______ _______ _______ _____ _____    ______ ____
ROOT
ATOM      1  C   UNL     1      49.284   8.281  13.906  0.00  0.00    +0.000 C 
ENDROOT
BRANCH   1   2
ATOM      2  C   UNL     1      48.018   8.043  13.129  0.00  0.00    +0.000 A 
ATOM      3  C   UNL     1      46.854   8.740  13.466  0.00  0.00    +0.000 A 
ATOM      4  C   UNL     1      45.656   8.490  12.799  0.00  0.00    +0.000 A 
ATOM      5  C   UNL     1      45.582   7.519  11.790  0.00  0.00    +0.000 A 
ATOM      6  C   UNL     1      46.756   6.826  11.450  0.00  0.00    +0.000 A 
ATOM      7  C   UNL     1      47.960   7.080  12.114  0.00  0.00    +0.000 A 
BRANCH   5   8
ATOM      8  C   UNL     1      44.287   7.158  11.087  0.00  0.00    +0.000 C 
BRANCH   8   9
ATOM      9  O   UNL     1      43.395   8.272  11.173  0.00  0.00    +0.000 OA
ATOM     10  H   UNL     1      43.095   8.322  12.098  0.00  0.00    +0.000 HD
ENDBRANCH   8   9
BRANCH   8  11
ATOM     11  C   UNL     1      43.566   5.910  11.623  0.00  0.00    +0.000 C 
BRANCH  11  12
ATOM     12  C   UNL     1      43.559   4.792  10.578  0.00  0.00    +0.000 C 
BRANCH  12  13
ATOM     13  N   UNL     1      44.885   4.188  10.337  0.00  0.00    +0.000 NA
ATOM     14  C   UNL     1      45.296   4.433   8.940  0.00  0.00    +0.000 C 
ATOM     15  C   UNL     1      44.580   3.359   8.138  0.00  0.00    +0.000 C 
ATOM     16  C   UNL     1      44.603   2.154   9.063  0.00  0.00    +0.000 C 
ATOM     17  C   UNL     1      44.899   2.719  10.449  0.00  0.00    +0.000 C 
ENDBRANCH  12  13
ENDBRANCH  11  12
ENDBRANCH   8  11
ENDBRANCH   5   8
ENDBRANCH   1   2
BRANCH   1  20
ATOM     18  O   UNL     1      48.711   8.758  16.628  0.00  0.00    +0.000 OA
ATOM     19  C   UNL     1      49.031   7.626  16.273  0.00  0.00    +0.000 C 
ATOM     20  N   UNL     1      49.401   7.333  14.986  0.00  0.00    +0.000 N 
ATOM     21  H   UNL     1      49.457   6.361  14.705  0.00  0.00    +0.000 HD
BRANCH  19  22
ATOM     22  C   UNL     1      49.087   6.513  17.230  0.00  0.00    +0.000 A 
ATOM     23  C   UNL     1      49.791   6.658  18.418  0.00  0.00    +0.000 A 
ATOM     24  S   UNL     1      49.772   5.262  19.399  0.00  0.00    +0.000 S 
ATOM     25  C   UNL     1      48.779   4.431  18.293  0.00  0.00    +0.000 A 
ATOM     26  N   UNL     1      48.356   3.163  18.552  0.00  0.00    +0.000 NA
ATOM     27  C   UNL     1      47.573   2.672  17.651  0.00  0.00    +0.000 A 
ATOM     28  N   UNL     1      47.183   3.324  16.514  0.00  0.00    +0.000 N 
ATOM     29  C   UNL     1      47.646   4.573  16.176  0.00  0.00    +0.000 A 
ATOM     30  O   UNL     1      47.386   5.071  15.083  0.00  0.00    +0.000 OA
ATOM     31  C   UNL     1      48.491   5.197  17.179  0.00  0.00    +0.000 A 
ATOM     32  H   UNL     1      46.592   2.873  15.831  0.00  0.00    +0.000 HD
ENDBRANCH  19  22
ENDBRANCH   1  20
TORSDOF 8
ENDMDL
MODEL 5
REMARK VINA RESULT:    -6.892      1.323      1.952
REMARK INTER + INTRA:         -11.104
REMARK INTER:                 -10.341
REMARK INTRA:                  -0.762
REMARK UNBOUND:                -1.190
REMARK  Name = 
REMARK  8 active torsions:
REMARK  status: ('A' for Active; 'I' for Inactive)
REMARK    1  A    between atoms: C_2  and  C_20
REMARK    2  A    between atoms: N_3  and  C_4
REMARK    3  A    between atoms: C_4  and  C_5
REMARK    4  A    between atoms: C_8  and  C_9
REMARK    5  A    between atoms: C_9  and  O_10
REMARK    6  A    between atoms: C_9  and  C_11
REMARK    7  A    between atoms: C_11  and  C_12
REMARK    8  A    between atoms: C_12  and  N_13
REMARK                            x       y       z     vdW  Elec       q    Type
REMARK                         _______ _______ _______ _____ _____    ______ ____
ROOT
ATOM      1  C   UNL     1      47.825   7.840  13.600  0.00  0.00    +0.000 C 
ENDROOT
BRANCH   1   2
ATOM      2  C   UNL     1      46.664   7.074  13.028  0.00  0.00    +0.000 A 
ATOM      3  C   UNL     1      46.500   5.722  13.346  0.00  0.00    +0.000 A 
ATOM      4  C   UNL     1      45.466   4.979  12.779  0.00  0.00    +0.000 A 
ATOM      5  C   UNL     1      44.580   5.559  11.861  0.00  0.00    +0.000 A 
ATOM      6  C   UNL     1      44.744   6.919  11.550  0.00  0.00    +0.000 A 
ATOM      7  C   UNL     1      45.777   7.669  12.122  0.00  0.00    +0.000 A 
BRANCH   5   8
ATOM      8  C   UNL     1      43.486   4.774  11.161  0.00  0.00    +0.000 C 
BRANCH   8   9
ATOM      9  O   UNL     1      42.244   5.031  11.823  0.00  0.00    +0.000 OA
ATOM     10  H   UNL     1      42.461   5.466  12.667  0.00  0.00    +0.000 HD
ENDBRANCH   8   9
BRANCH   8  11
ATOM     11  C   UNL     1      43.700   3.254  11.093  0.00  0.00    +0.000 C 
BRANCH  11  12
ATOM     12  C   UNL     1      44.898   2.910  10.204  0.00  0.00    +0.000 C 
BRANCH  12  13
ATOM     13  N   UNL     1      44.530   2.476   8.842  0.00  0.00    +0.000 NA
ATOM     14  C   UNL     1      45.414   1.373   8.416  0.00  0.00    +0.000 C 
ATOM     15  C   UNL     1      46.679   2.062   7.934  0.00  0.00    +0.000 C 
ATOM     16  C   UNL     1      46.162   3.330   7.277  0.00  0.00    +0.000 C 
ATOM     17  C   UNL     1      44.743   3.507   7.811  0.00  0.00    +0.000 C 
ENDBRANCH  12  13
ENDBRANCH  11  12
ENDBRANCH   8  11
ENDBRANCH   5   8
ENDBRANCH   1   2
BRANCH   1  20
ATOM     18  O   UNL     1      49.929   6.608  15.022  0.00  0.00    +0.000 OA
ATOM     19  C   UNL     1      48.997   7.109  15.647  0.00  0.00    +0.000 C 
ATOM     20  N   UNL     1      47.901   7.654  15.028  0.00  0.00    +0.000 N 
ATOM     21  H   UNL     1      47.268   8.226  15.574  0.00  0.00    +0.000 HD
BRANCH  19  22
ATOM     22  C   UNL     1      48.974   7.108  17.115  0.00  0.00    +0.000 A 
ATOM     23  C   UNL     1      48.953   8.311  17.807  0.00  0.00    +0.000 A 
ATOM     24  S   UNL     1      48.952   8.126  19.503  0.00  0.00    +0.000 S 
ATOM     25  C   UNL     1      48.929   6.428  19.372  0.00  0.00    +0.000 A 
ATOM     26  N   UNL     1      48.887   5.644  20.485  0.00  0.00    +0.000 NA
ATOM     27  C   UNL     1      48.827   4.378  20.238  0.00  0.00    +0.000 A 
ATOM     28  N   UNL     1      48.814   3.825  18.988  0.00  0.00    +0.000 N 
ATOM     29  C   UNL     1      48.931   4.573  17.841  0.00  0.00    +0.000 A 
ATOM     30  O   UNL     1      49.057   4.036  16.743  0.00  0.00    +0.000 OA
ATOM     31  C   UNL     1      48.950   6.010  18.056  0.00  0.00    +0.000 A 
ATOM     32  H   UNL     1      48.796   2.823  18.861  0.00  0.00    +0.000 HD
ENDBRANCH  19  22
ENDBRANCH   1  20
TORSDOF 8
ENDMDL
MODEL 6
REMARK VINA RESULT:    -6.693      3.339      5.186
REMARK INTER + INTRA:         -10.817
REMARK INTER:                  -9.604
REMARK INTRA:                  -1.213
REMARK UNBOUND:                -1.190
REMARK  Name = 
REMARK  8 active torsions:
REMARK  status: ('A' for Active; 'I' for Inactive)
REMARK    1  A    between atoms: C_2  and  C_20
REMARK    2  A    between atoms: N_3  and  C_4
REMARK    3  A    between atoms: C_4  and  C_5
REMARK    4  A    between atoms: C_8  and  C_9
REMARK    5  A    between atoms: C_9  and  O_10
REMARK    6  A    between atoms: C_9  and  C_11
REMARK    7  A    between atoms: C_11  and  C_12
REMARK    8  A    between atoms: C_12  and  N_13
REMARK                            x       y       z     vdW  Elec       q    Type
REMARK                         _______ _______ _______ _____ _____    ______ ____
ROOT
ATOM      1  C   UNL     1      47.441   3.668  17.037  0.00  0.00    +0.000 C 
ENDROOT
BRANCH   1   2
ATOM      2  C   UNL     1      47.423   4.375  15.709  0.00  0.00    +0.000 A 
ATOM      3  C   UNL     1      47.970   5.657  15.598  0.00  0.00    +0.000 A 
ATOM      4  C   UNL     1      47.908   6.354  14.392  0.00  0.00    +0.000 A 
ATOM      5  C   UNL     1      47.279   5.798  13.269  0.00  0.00    +0.000 A 
ATOM      6  C   UNL     1      46.737   4.507  13.384  0.00  0.00    +0.000 A 
ATOM      7  C   UNL     1      46.803   3.804  14.591  0.00  0.00    +0.000 A 
BRANCH   5   8
ATOM      8  C   UNL     1      47.121   6.545  11.958  0.00  0.00    +0.000 C 
BRANCH   8   9
ATOM      9  O   UNL     1      46.871   7.924  12.246  0.00  0.00    +0.000 OA
ATOM     10  H   UNL     1      47.718   8.391  12.141  0.00  0.00    +0.000 HD
ENDBRANCH   8   9
BRANCH   8  11
ATOM     11  C   UNL     1      46.010   6.030  11.029  0.00  0.00    +0.000 C 
BRANCH  11  12
ATOM     12  C   UNL     1      44.636   6.515  11.500  0.00  0.00    +0.000 C 
BRANCH  12  13
ATOM     13  N   UNL     1      43.508   5.720  10.975  0.00  0.00    +0.000 NA
ATOM     14  C   UNL     1      42.496   5.536  12.035  0.00  0.00    +0.000 C 
ATOM     15  C   UNL     1      43.021   4.377  12.867  0.00  0.00    +0.000 C 
ATOM     16  C   UNL     1      43.666   3.467  11.836  0.00  0.00    +0.000 C 
ATOM     17  C   UNL     1      43.873   4.342  10.603  0.00  0.00    +0.000 C 
ENDBRANCH  12  13
ENDBRANCH  11  12
ENDBRANCH   8  11
ENDBRANCH   5   8
ENDBRANCH   1   2
BRANCH   1  20
ATOM     18  O   UNL     1      49.181   1.697  16.011  0.00  0.00    +0.000 OA
ATOM     19  C   UNL     1      49.600   2.485  16.855  0.00  0.00    +0.000 C 
ATOM     20  N   UNL     1      48.797   3.417  17.459  0.00  0.00    +0.000 N 
ATOM     21  H   UNL     1      49.231   4.164  17.988  0.00  0.00    +0.000 HD
BRANCH  19  22
ATOM     22  C   UNL     1      50.995   2.442  17.312  0.00  0.00    +0.000 A 
ATOM     23  C   UNL     1      51.636   1.219  17.465  0.00  0.00    +0.000 A 
ATOM     24  S   UNL     1      53.241   1.353  18.026  0.00  0.00    +0.000 S 
ATOM     25  C   UNL     1      53.154   3.053  18.036  0.00  0.00    +0.000 A 
ATOM     26  N   UNL     1      54.232   3.804  18.395  0.00  0.00    +0.000 NA
ATOM     27  C   UNL     1      54.041   5.079  18.313  0.00  0.00    +0.000 A 
ATOM     28  N   UNL     1      52.873   5.670  17.917  0.00  0.00    +0.000 N 
ATOM     29  C   UNL     1      51.739   4.953  17.620  0.00  0.00    +0.000 A 
ATOM     30  O   UNL     1      50.669   5.519  17.404  0.00  0.00    +0.000 OA
ATOM     31  C   UNL     1      51.911   3.511  17.645  0.00  0.00    +0.000 A 
ATOM     32  H   UNL     1      52.776   6.674  17.903  0.00  0.00    +0.000 HD
ENDBRANCH  19  22
ENDBRANCH   1  20
TORSDOF 8
ENDMDL
MODEL 7
REMARK VINA RESULT:    -6.692      2.044      2.650
REMARK INTER + INTRA:         -10.816
REMARK INTER:                  -9.857
REMARK INTRA:                  -0.959
REMARK UNBOUND:                -1.190
REMARK  Name = 
REMARK  8 active torsions:
REMARK  status: ('A' for Active; 'I' for Inactive)
REMARK    1  A    between atoms: C_2  and  C_20
REMARK    2  A    between atoms: N_3  and  C_4
REMARK    3  A    between atoms: C_4  and  C_5
REMARK    4  A    between atoms: C_8  and  C_9
REMARK    5  A    between atoms: C_9  and  O_10
REMARK    6  A    between atoms: C_9  and  C_11
REMARK    7  A    between atoms: C_11  and  C_12
REMARK    8  A    between atoms: C_12  and  N_13
REMARK                            x       y       z     vdW  Elec       q    Type
REMARK                         _______ _______ _______ _____ _____    ______ ____
ROOT
ATOM      1  C   UNL     1      48.906   7.940  12.707  0.00  0.00    +0.000 C 
ENDROOT
BRANCH   1   2
ATOM      2  C   UNL     1      47.612   7.191  12.542  0.00  0.00    +0.000 A 
ATOM      3  C   UNL     1      46.579   7.749  11.783  0.00  0.00    +0.000 A 
ATOM      4  C   UNL     1      45.350   7.101  11.668  0.00  0.00    +0.000 A 
ATOM      5  C   UNL     1      45.112   5.886  12.327  0.00  0.00    +0.000 A 
ATOM      6  C   UNL     1      46.155   5.326  13.083  0.00  0.00    +0.000 A 
ATOM      7  C   UNL     1      47.390   5.972  13.195  0.00  0.00    +0.000 A 
BRANCH   5   8
ATOM      8  C   UNL     1      43.769   5.180  12.293  0.00  0.00    +0.000 C 
BRANCH   8   9
ATOM      9  O   UNL     1      43.031   5.546  13.463  0.00  0.00    +0.000 OA
ATOM     10  H   UNL     1      43.662   5.544  14.205  0.00  0.00    +0.000 HD
ENDBRANCH   8   9
BRANCH   8  11
ATOM     11  C   UNL     1      43.828   3.646  12.212  0.00  0.00    +0.000 C 
BRANCH  11  12
ATOM     12  C   UNL     1      44.748   3.195  11.074  0.00  0.00    +0.000 C 
BRANCH  12  13
ATOM     13  N   UNL     1      44.069   3.067   9.769  0.00  0.00    +0.000 NA
ATOM     14  C   UNL     1      44.477   1.805   9.119  0.00  0.00    +0.000 C 
ATOM     15  C   UNL     1      45.816   2.123   8.475  0.00  0.00    +0.000 C 
ATOM     16  C   UNL     1      45.652   3.560   8.010  0.00  0.00    +0.000 C 
ATOM     17  C   UNL     1      44.459   4.100   8.793  0.00  0.00    +0.000 C 
ENDBRANCH  12  13
ENDBRANCH  11  12
ENDBRANCH   8  11
ENDBRANCH   5   8
ENDBRANCH   1   2
BRANCH   1  20
ATOM     18  O   UNL     1      50.484   9.165  14.700  0.00  0.00    +0.000 OA
ATOM     19  C   UNL     1      50.439   7.939  14.643  0.00  0.00    +0.000 C 
ATOM     20  N   UNL     1      49.760   7.271  13.657  0.00  0.00    +0.000 N 
ATOM     21  H   UNL     1      49.588   6.279  13.771  0.00  0.00    +0.000 HD
BRANCH  19  22
ATOM     22  C   UNL     1      51.161   7.103  15.610  0.00  0.00    +0.000 A 
ATOM     23  C   UNL     1      52.544   7.190  15.703  0.00  0.00    +0.000 A 
ATOM     24  S   UNL     1      53.219   6.132  16.859  0.00  0.00    +0.000 S 
ATOM     25  C   UNL     1      51.682   5.557  17.313  0.00  0.00    +0.000 A 
ATOM     26  N   UNL     1      51.549   4.632  18.303  0.00  0.00    +0.000 NA
ATOM     27  C   UNL     1      50.325   4.321  18.576  0.00  0.00    +0.000 A 
ATOM     28  N   UNL     1      49.228   4.838  17.945  0.00  0.00    +0.000 N 
ATOM     29  C   UNL     1      49.320   5.715  16.891  0.00  0.00    +0.000 A 
ATOM     30  O   UNL     1      48.322   6.052  16.257  0.00  0.00    +0.000 OA
ATOM     31  C   UNL     1      50.672   6.142  16.574  0.00  0.00    +0.000 A 
ATOM     32  H   UNL     1      48.297   4.531  18.183  0.00  0.00    +0.000 HD
ENDBRANCH  19  22
ENDBRANCH   1  20
TORSDOF 8
ENDMDL
MODEL 8
REMARK VINA RESULT:    -6.574      4.347      9.316
REMARK INTER + INTRA:         -10.646
REMARK INTER:                  -9.373
REMARK INTRA:                  -1.273
REMARK UNBOUND:                -1.190
REMARK  Name = 
REMARK  8 active torsions:
REMARK  status: ('A' for Active; 'I' for Inactive)
REMARK    1  A    between atoms: C_2  and  C_20
REMARK    2  A    between atoms: N_3  and  C_4
REMARK    3  A    between atoms: C_4  and  C_5
REMARK    4  A    between atoms: C_8  and  C_9
REMARK    5  A    between atoms: C_9  and  O_10
REMARK    6  A    between atoms: C_9  and  C_11
REMARK    7  A    between atoms: C_11  and  C_12
REMARK    8  A    between atoms: C_12  and  N_13
REMARK                            x       y       z     vdW  Elec       q    Type
REMARK                         _______ _______ _______ _____ _____    ______ ____
ROOT
ATOM      1  C   UNL     1      47.335   3.672  16.822  0.00  0.00    +0.000 C 
ENDROOT
BRANCH   1   2
ATOM      2  C   UNL     1      48.789   3.807  17.184  0.00  0.00    +0.000 A 
ATOM      3  C   UNL     1      49.628   2.691  17.118  0.00  0.00    +0.000 A 
ATOM      4  C   UNL     1      50.963   2.780  17.507  0.00  0.00    +0.000 A 
ATOM      5  C   UNL     1      51.493   3.983  17.994  0.00  0.00    +0.000 A 
ATOM      6  C   UNL     1      50.648   5.104  18.053  0.00  0.00    +0.000 A 
ATOM      7  C   UNL     1      49.309   5.018  17.657  0.00  0.00    +0.000 A 
BRANCH   5   8
ATOM      8  C   UNL     1      52.917   4.112  18.499  0.00  0.00    +0.000 C 
BRANCH   8   9
ATOM      9  O   UNL     1      53.777   4.363  17.384  0.00  0.00    +0.000 OA
ATOM     10  H   UNL     1      54.690   4.266  17.706  0.00  0.00    +0.000 HD
ENDBRANCH   8   9
BRANCH   8  11
ATOM     11  C   UNL     1      53.460   2.899  19.272  0.00  0.00    +0.000 C 
BRANCH  11  12
ATOM     12  C   UNL     1      54.678   2.301  18.563  0.00  0.00    +0.000 C 
BRANCH  12  13
ATOM     13  N   UNL     1      54.340   1.458  17.398  0.00  0.00    +0.000 NA
ATOM     14  C   UNL     1      53.563   0.284  17.845  0.00  0.00    +0.000 C 
ATOM     15  C   UNL     1      54.610  -0.698  18.344  0.00  0.00    +0.000 C 
ATOM     16  C   UNL     1      55.775  -0.486  17.392  0.00  0.00    +0.000 C 
ATOM     17  C   UNL     1      55.512   0.864  16.733  0.00  0.00    +0.000 C 
ENDBRANCH  12  13
ENDBRANCH  11  12
ENDBRANCH   8  11
ENDBRANCH   5   8
ENDBRANCH   1   2
BRANCH   1  20
ATOM     18  O   UNL     1      47.230   3.185  14.044  0.00  0.00    +0.000 OA
ATOM     19  C   UNL     1      46.880   4.281  14.473  0.00  0.00    +0.000 C 
ATOM     20  N   UNL     1      46.977   4.622  15.798  0.00  0.00    +0.000 N 
ATOM     21  H   UNL     1      46.494   5.450  16.124  0.00  0.00    +0.000 HD
BRANCH  19  22
ATOM     22  C   UNL     1      46.378   5.328  13.573  0.00  0.00    +0.000 A 
ATOM     23  C   UNL     1      47.182   6.418  13.265  0.00  0.00    +0.000 A 
ATOM     24  S   UNL     1      46.434   7.547  12.227  0.00  0.00    +0.000 S 
ATOM     25  C   UNL     1      45.028   6.593  12.112  0.00  0.00    +0.000 A 
ATOM     26  N   UNL     1      43.983   6.983  11.331  0.00  0.00    +0.000 NA
ATOM     27  C   UNL     1      43.003   6.143  11.300  0.00  0.00    +0.000 A 
ATOM     28  N   UNL     1      42.965   4.960  11.984  0.00  0.00    +0.000 N 
ATOM     29  C   UNL     1      43.963   4.564  12.842  0.00  0.00    +0.000 A 
ATOM     30  O   UNL     1      43.835   3.564  13.545  0.00  0.00    +0.000 OA
ATOM     31  C   UNL     1      45.117   5.446  12.876  0.00  0.00    +0.000 A 
ATOM     32  H   UNL     1      42.155   4.360  11.942  0.00  0.00    +0.000 HD
ENDBRANCH  19  22
ENDBRANCH   1  20
TORSDOF 8
ENDMDL
MODEL 9
REMARK VINA RESULT:    -6.493      3.697      9.096
REMARK INTER + INTRA:         -10.530
REMARK INTER:                  -8.755
REMARK INTRA:                  -1.776
REMARK UNBOUND:                -1.190
REMARK  Name = 
REMARK  8 active torsions:
REMARK  status: ('A' for Active; 'I' for Inactive)
REMARK    1  A    between atoms: C_2  and  C_20
REMARK    2  A    between atoms: N_3  and  C_4
REMARK    3  A    between atoms: C_4  and  C_5
REMARK    4  A    between atoms: C_8  and  C_9
REMARK    5  A    between atoms: C_9  and  O_10
REMARK    6  A    between atoms: C_9  and  C_11
REMARK    7  A    between atoms: C_11  and  C_12
REMARK    8  A    between atoms: C_12  and  N_13
REMARK                            x       y       z     vdW  Elec       q    Type
REMARK                         _______ _______ _______ _____ _____    ______ ____
ROOT
ATOM      1  C   UNL     1      48.727   6.830  14.570  0.00  0.00    +0.000 C 
ENDROOT
BRANCH   1   2
ATOM      2  C   UNL     1      48.899   6.127  15.889  0.00  0.00    +0.000 A 
ATOM      3  C   UNL     1      47.864   5.333  16.392  0.00  0.00    +0.000 A 
ATOM      4  C   UNL     1      47.979   4.722  17.640  0.00  0.00    +0.000 A 
ATOM      5  C   UNL     1      49.123   4.905  18.430  0.00  0.00    +0.000 A 
ATOM      6  C   UNL     1      50.163   5.698  17.917  0.00  0.00    +0.000 A 
ATOM      7  C   UNL     1      50.052   6.307  16.662  0.00  0.00    +0.000 A 
BRANCH   5   8
ATOM      8  C   UNL     1      49.264   4.323  19.824  0.00  0.00    +0.000 C 
BRANCH   8   9
ATOM      9  O   UNL     1      48.265   3.315  20.001  0.00  0.00    +0.000 OA
ATOM     10  H   UNL     1      47.598   3.684  20.606  0.00  0.00    +0.000 HD
ENDBRANCH   8   9
BRANCH   8  11
ATOM     11  C   UNL     1      49.151   5.332  20.979  0.00  0.00    +0.000 C 
BRANCH  11  12
ATOM     12  C   UNL     1      47.931   6.238  20.795  0.00  0.00    +0.000 C 
BRANCH  12  13
ATOM     13  N   UNL     1      48.179   7.653  21.138  0.00  0.00    +0.000 NA
ATOM     14  C   UNL     1      47.179   8.508  20.466  0.00  0.00    +0.000 C 
ATOM     15  C   UNL     1      47.712   8.680  19.053  0.00  0.00    +0.000 C 
ATOM     16  C   UNL     1      49.217   8.748  19.249  0.00  0.00    +0.000 C 
ATOM     17  C   UNL     1      49.465   8.170  20.639  0.00  0.00    +0.000 C 
ENDBRANCH  12  13
ENDBRANCH  11  12
ENDBRANCH   8  11
ENDBRANCH   5   8
ENDBRANCH   1   2
BRANCH   1  20
ATOM     18  O   UNL     1      47.955   7.045  11.864  0.00  0.00    +0.000 OA
ATOM     19  C   UNL     1      47.141   6.638  12.688  0.00  0.00    +0.000 C 
ATOM     20  N   UNL     1      47.414   6.582  14.031  0.00  0.00    +0.000 N 
ATOM     21  H   UNL     1      46.790   6.055  14.632  0.00  0.00    +0.000 HD
BRANCH  19  22
ATOM     22  C   UNL     1      45.788   6.231  12.287  0.00  0.00    +0.000 A 
ATOM     23  C   UNL     1      44.914   7.167  11.752  0.00  0.00    +0.000 A 
ATOM     24  S   UNL     1      43.380   6.529  11.364  0.00  0.00    +0.000 S 
ATOM     25  C   UNL     1      43.847   4.965  11.851  0.00  0.00    +0.000 A 
ATOM     26  N   UNL     1      42.985   3.916  11.744  0.00  0.00    +0.000 NA
ATOM     27  C   UNL     1      43.486   2.781  12.106  0.00  0.00    +0.000 A 
ATOM     28  N   UNL     1      44.758   2.602  12.573  0.00  0.00    +0.000 N 
ATOM     29  C   UNL     1      45.634   3.642  12.768  0.00  0.00    +0.000 A 
ATOM     30  O   UNL     1      46.718   3.465  13.319  0.00  0.00    +0.000 OA
ATOM     31  C   UNL     1      45.143   4.937  12.329  0.00  0.00    +0.000 A 
ATOM     32  H   UNL     1      45.081   1.692  12.869  0.00  0.00    +0.000 HD
ENDBRANCH  19  22
ENDBRANCH   1  20
TORSDOF 8
ENDMDL
