MODEL 1
REMARK VINA RESULT:    -7.802      0.000      0.000
REMARK INTER + INTRA:         -11.910
REMARK INTER:                 -10.995
REMARK INTRA:                  -0.915
REMARK UNBOUND:                -0.915
REMARK  Name = 
REMARK  8 active torsions:
REMARK  status: ('A' for Active; 'I' for Inactive)
REMARK    1  A    between atoms: C_1  and  C_2
REMARK    2  A    between atoms: C_2  and  N_3
REMARK    3  A    between atoms: C_2  and  C_25
REMARK    4  A    between atoms: N_3  and  C_4
REMARK    5  A    between atoms: C_4  and  C_5
REMARK    6  A    between atoms: C_8  and  C_9
REMARK    7  A    between atoms: C_9  and  N_10
REMARK    8  A    between atoms: C_11  and  C_13
REMARK                            x       y       z     vdW  Elec       q    Type
REMARK                         _______ _______ _______ _____ _____    ______ ____
ROOT
ATOM      1  C   UNL     1      45.341   4.479  12.155  0.00  0.00    +0.000 A 
ATOM      2  N   UNL     1      45.823   4.003  13.323  0.00  0.00    +0.000 NA
ATOM      3  C   UNL     1      46.798   4.718  13.914  0.00  0.00    +0.000 A 
ATOM      4  C   UNL     1      47.315   5.884  13.396  0.00  0.00    +0.000 A 
ATOM      5  C   UNL     1      46.778   6.267  12.184  0.00  0.00    +0.000 A 
ATOM      6  N   UNL     1      45.793   5.598  11.551  0.00  0.00    +0.000 NA
ENDROOT
BRANCH   1   7
ATOM      7  C   UNL     1      44.219   3.701  11.474  0.00  0.00    +0.000 C 
BRANCH   7   8
ATOM      8  N   UNL     1      44.708   2.579  10.655  0.00  0.00    +0.000 NA
ATOM      9  H   UNL     1      44.216   1.735  10.947  0.00  0.00    +0.000 HD
BRANCH   8  11
ATOM     10  C   UNL     1      44.218   4.192   8.809  0.00  0.00    +0.000 C 
ATOM     11  C   UNL     1      44.590   2.754   9.201  0.00  0.00    +0.000 C 
BRANCH  11  12
ATOM     12  C   UNL     1      45.934   2.278   8.568  0.00  0.00    +0.000 C 
ATOM     13  C   UNL     1      46.400   3.167   7.395  0.00  0.00    +0.000 C 
ATOM     14  C   UNL     1      47.655   2.613   6.737  0.00  0.00    +0.000 C 
ATOM     15  O   UNL     1      47.457   1.263   6.325  0.00  0.00    +0.000 OA
ATOM     16  C   UNL     1      47.196   0.404   7.431  0.00  0.00    +0.000 C 
ATOM     17  C   UNL     1      45.902   0.804   8.126  0.00  0.00    +0.000 C 
ENDBRANCH  11  12
ENDBRANCH   8  11
ENDBRANCH   7   8
ENDBRANCH   1   7
BRANCH   4  18
ATOM     18  C   UNL     1      48.358   6.671  14.114  0.00  0.00    +0.000 C 
BRANCH  18  19
ATOM     19  N   UNL     1      48.162   6.702  15.539  0.00  0.00    +0.000 N 
ATOM     20  C   UNL     1      49.201   7.098  16.349  0.00  0.00    +0.000 C 
ATOM     21  O   UNL     1      50.318   7.330  15.890  0.00  0.00    +0.000 OA
ATOM     22  H   UNL     1      47.212   6.820  15.883  0.00  0.00    +0.000 HD
BRANCH  20  23
ATOM     23  C   UNL     1      48.939   7.156  17.789  0.00  0.00    +0.000 A 
ATOM     24  C   UNL     1      48.955   8.374  18.457  0.00  0.00    +0.000 A 
ATOM     25  S   UNL     1      48.989   8.204  20.156  0.00  0.00    +0.000 S 
ATOM     26  C   UNL     1      48.873   6.512  20.039  0.00  0.00    +0.000 A 
ATOM     27  N   UNL     1      48.954   5.706  21.134  0.00  0.00    +0.000 NA
ATOM     28  C   UNL     1      48.790   4.453  20.890  0.00  0.00    +0.000 A 
ATOM     29  N   UNL     1      48.497   3.925  19.654  0.00  0.00    +0.000 N 
ATOM     30  C   UNL     1      48.373   4.704  18.529  0.00  0.00    +0.000 A 
ATOM     31  O   UNL     1      47.997   4.239  17.459  0.00  0.00    +0.000 OA
ATOM     32  C   UNL     1      48.690   6.101  18.734  0.00  0.00    +0.000 A 
ATOM     33  H   UNL     1      48.283   2.946  19.549  0.00  0.00    +0.000 HD
ENDBRANCH  20  23
ENDBRANCH  18  19
ENDBRANCH   4  18
TORSDOF 7
ENDMDL
MODEL 2
REMARK VINA RESULT:    -7.635      2.441      2.710
REMARK INTER + INTRA:         -11.674
REMARK INTER:                 -10.757
REMARK INTRA:                  -0.917
REMARK UNBOUND:                -0.915
REMARK  Name = 
REMARK  8 active torsions:
REMARK  status: ('A' for Active; 'I' for Inactive)
REMARK    1  A    between atoms: C_1  and  C_2
REMARK    2  A    between atoms: C_2  and  N_3
REMARK    3  A    between atoms: C_2  and  C_25
REMARK    4  A    between atoms: N_3  and  C_4
REMARK    5  A    between atoms: C_4  and  C_5
REMARK    6  A    between atoms: C_8  and  C_9
REMARK    7  A    between atoms: C_9  and  N_10
REMARK    8  A    between atoms: C_11  and  C_13
REMARK                            x       y       z     vdW  Elec       q    Type
REMARK                         _______ _______ _______ _____ _____    ______ ____
ROOT
ATOM      1  C   UNL     1      45.705   4.561  13.207  0.00  0.00    +0.000 A 
ATOM      2  N   UNL     1      46.195   4.036  14.351  0.00  0.00    +0.000 NA
ATOM      3  C   UNL     1      47.144   4.747  14.987  0.00  0.00    +0.000 A 
ATOM      4  C   UNL     1      47.629   5.954  14.536  0.00  0.00    +0.000 A 
ATOM      5  C   UNL     1      47.087   6.387  13.343  0.00  0.00    +0.000 A 
ATOM      6  N   UNL     1      46.125   5.724  12.667  0.00  0.00    +0.000 NA
ENDROOT
BRANCH   1   7
ATOM      7  C   UNL     1      44.610   3.788  12.478  0.00  0.00    +0.000 C 
BRANCH   7   8
ATOM      8  N   UNL     1      45.136   2.866  11.456  0.00  0.00    +0.000 NA
ATOM      9  H   UNL     1      45.006   1.913  11.792  0.00  0.00    +0.000 HD
BRANCH   8  11
ATOM     10  C   UNL     1      43.811   4.340   9.932  0.00  0.00    +0.000 C 
ATOM     11  C   UNL     1      44.560   3.011  10.112  0.00  0.00    +0.000 C 
BRANCH  11  12
ATOM     12  C   UNL     1      45.723   2.824   9.089  0.00  0.00    +0.000 C 
ATOM     13  C   UNL     1      45.707   3.871   7.955  0.00  0.00    +0.000 C 
ATOM     14  C   UNL     1      46.789   3.595   6.922  0.00  0.00    +0.000 C 
ATOM     15  O   UNL     1      46.675   2.269   6.412  0.00  0.00    +0.000 OA
ATOM     16  C   UNL     1      46.862   1.291   7.431  0.00  0.00    +0.000 C 
ATOM     17  C   UNL     1      45.775   1.407   8.491  0.00  0.00    +0.000 C 
ENDBRANCH  11  12
ENDBRANCH   8  11
ENDBRANCH   7   8
ENDBRANCH   1   7
BRANCH   4  18
ATOM     18  C   UNL     1      48.644   6.732  15.303  0.00  0.00    +0.000 C 
BRANCH  18  19
ATOM     19  N   UNL     1      49.618   5.900  15.958  0.00  0.00    +0.000 N 
ATOM     20  C   UNL     1      49.779   6.005  17.320  0.00  0.00    +0.000 C 
ATOM     21  O   UNL     1      49.180   6.858  17.972  0.00  0.00    +0.000 OA
ATOM     22  H   UNL     1      49.867   5.023  15.510  0.00  0.00    +0.000 HD
BRANCH  20  23
ATOM     23  C   UNL     1      50.750   5.105  17.947  0.00  0.00    +0.000 A 
ATOM     24  C   UNL     1      51.745   5.611  18.775  0.00  0.00    +0.000 A 
ATOM     25  S   UNL     1      52.975   4.476  19.111  0.00  0.00    +0.000 S 
ATOM     26  C   UNL     1      52.156   3.259  18.253  0.00  0.00    +0.000 A 
ATOM     27  N   UNL     1      52.706   2.029  18.045  0.00  0.00    +0.000 NA
ATOM     28  C   UNL     1      51.939   1.199  17.430  0.00  0.00    +0.000 A 
ATOM     29  N   UNL     1      50.645   1.460  17.045  0.00  0.00    +0.000 N 
ATOM     30  C   UNL     1      50.040   2.674  17.265  0.00  0.00    +0.000 A 
ATOM     31  O   UNL     1      48.852   2.858  17.024  0.00  0.00    +0.000 OA
ATOM     32  C   UNL     1      50.914   3.682  17.826  0.00  0.00    +0.000 A 
ATOM     33  H   UNL     1      50.066   0.733  16.656  0.00  0.00    +0.000 HD
ENDBRANCH  20  23
ENDBRANCH  18  19
ENDBRANCH   4  18
TORSDOF 7
ENDMDL
MODEL 3
REMARK VINA RESULT:    -7.556      3.750      8.510
REMARK INTER + INTRA:         -11.563
REMARK INTER:                 -10.341
REMARK INTRA:                  -1.222
REMARK UNBOUND:                -0.915
REMARK  Name = 
REMARK  8 active torsions:
REMARK  status: ('A' for Active; 'I' for Inactive)
REMARK    1  A    between atoms: C_1  and  C_2
REMARK    2  A    between atoms: C_2  and  N_3
REMARK    3  A    between atoms: C_2  and  C_25
REMARK    4  A    between atoms: N_3  and  C_4
REMARK    5  A    between atoms: C_4  and  C_5
REMARK    6  A    between atoms: C_8  and  C_9
REMARK    7  A    between atoms: C_9  and  N_10
REMARK    8  A    between atoms: C_11  and  C_13
REMARK                            x       y       z     vdW  Elec       q    Type
REMARK                         _______ _______ _______ _____ _____    ______ ____
ROOT
ATOM      1  C   UNL     1      49.429   7.656  16.319  0.00  0.00    +0.000 A 
ATOM      2  N   UNL     1      49.666   6.738  15.359  0.00  0.00    +0.000 NA
ATOM      3  C   UNL     1      49.182   7.005  14.131  0.00  0.00    +0.000 A 
ATOM      4  C   UNL     1      48.472   8.142  13.818  0.00  0.00    +0.000 A 
ATOM      5  C   UNL     1      48.256   9.000  14.877  0.00  0.00    +0.000 A 
ATOM      6  N   UNL     1      48.727   8.791  16.124  0.00  0.00    +0.000 NA
ENDROOT
BRANCH   1   7
ATOM      7  C   UNL     1      49.987   7.390  17.715  0.00  0.00    +0.000 C 
BRANCH   7   8
ATOM      8  N   UNL     1      50.418   5.995  17.909  0.00  0.00    +0.000 NA
ATOM      9  H   UNL     1      51.390   6.004  18.217  0.00  0.00    +0.000 HD
BRANCH   8  11
ATOM     10  C   UNL     1      48.261   5.876  19.169  0.00  0.00    +0.000 C 
ATOM     11  C   UNL     1      49.602   5.202  18.838  0.00  0.00    +0.000 C 
BRANCH  11  12
ATOM     12  C   UNL     1      49.432   3.784  18.208  0.00  0.00    +0.000 C 
ATOM     13  C   UNL     1      50.762   3.181  17.709  0.00  0.00    +0.000 C 
ATOM     14  C   UNL     1      50.543   1.848  17.008  0.00  0.00    +0.000 C 
ATOM     15  O   UNL     1      49.597   1.981  15.950  0.00  0.00    +0.000 OA
ATOM     16  C   UNL     1      48.315   2.373  16.431  0.00  0.00    +0.000 C 
ATOM     17  C   UNL     1      48.385   3.748  17.081  0.00  0.00    +0.000 C 
ENDBRANCH  11  12
ENDBRANCH   8  11
ENDBRANCH   7   8
ENDBRANCH   1   7
BRANCH   4  18
ATOM     18  C   UNL     1      48.001   8.420  12.431  0.00  0.00    +0.000 C 
BRANCH  18  19
ATOM     19  N   UNL     1      47.526   7.246  11.749  0.00  0.00    +0.000 N 
ATOM     20  C   UNL     1      46.195   6.909  11.846  0.00  0.00    +0.000 C 
ATOM     21  O   UNL     1      45.428   7.532  12.578  0.00  0.00    +0.000 OA
ATOM     22  H   UNL     1      48.043   6.931  10.933  0.00  0.00    +0.000 HD
BRANCH  20  23
ATOM     23  C   UNL     1      45.750   5.731  11.098  0.00  0.00    +0.000 A 
ATOM     24  C   UNL     1      45.918   5.668   9.721  0.00  0.00    +0.000 A 
ATOM     25  S   UNL     1      45.026   4.406   8.995  0.00  0.00    +0.000 S 
ATOM     26  C   UNL     1      44.485   3.851  10.508  0.00  0.00    +0.000 A 
ATOM     27  N   UNL     1      43.580   2.839  10.623  0.00  0.00    +0.000 NA
ATOM     28  C   UNL     1      43.314   2.495  11.834  0.00  0.00    +0.000 A 
ATOM     29  N   UNL     1      43.910   3.031  12.953  0.00  0.00    +0.000 N 
ATOM     30  C   UNL     1      44.851   4.029  12.881  0.00  0.00    +0.000 A 
ATOM     31  O   UNL     1      45.458   4.418  13.872  0.00  0.00    +0.000 OA
ATOM     32  C   UNL     1      45.074   4.544  11.547  0.00  0.00    +0.000 A 
ATOM     33  H   UNL     1      43.729   2.648  13.867  0.00  0.00    +0.000 HD
ENDBRANCH  20  23
ENDBRANCH  18  19
ENDBRANCH   4  18
TORSDOF 7
ENDMDL
MODEL 4
REMARK VINA RESULT:    -7.556      3.290      3.977
REMARK INTER + INTRA:         -11.563
REMARK INTER:                 -10.540
REMARK INTRA:                  -1.022
REMARK UNBOUND:                -0.915
REMARK  Name = 
REMARK  8 active torsions:
REMARK  status: ('A' for Active; 'I' for Inactive)
REMARK    1  A    between atoms: C_1  and  C_2
REMARK    2  A    between atoms: C_2  and  N_3
REMARK    3  A    between atoms: C_2  and  C_25
REMARK    4  A    between atoms: N_3  and  C_4
REMARK    5  A    between atoms: C_4  and  C_5
REMARK    6  A    between atoms: C_8  and  C_9
REMARK    7  A    between atoms: C_9  and  N_10
REMARK    8  A    between atoms: C_11  and  C_13
REMARK                            x       y       z     vdW  Elec       q    Type
REMARK                         _______ _______ _______ _____ _____    ______ ____
ROOT
ATOM      1  C   UNL     1      46.779   4.341  13.923  0.00  0.00    +0.000 A 
ATOM      2  N   UNL     1      47.444   5.466  13.587  0.00  0.00    +0.000 NA
ATOM      3  C   UNL     1      48.151   6.068  14.562  0.00  0.00    +0.000 A 
ATOM      4  C   UNL     1      48.223   5.601  15.855  0.00  0.00    +0.000 A 
ATOM      5  C   UNL     1      47.482   4.464  16.103  0.00  0.00    +0.000 A 
ATOM      6  N   UNL     1      46.765   3.812  15.164  0.00  0.00    +0.000 NA
ENDROOT
BRANCH   1   7
ATOM      7  C   UNL     1      45.988   3.625  12.831  0.00  0.00    +0.000 C 
BRANCH   7   8
ATOM      8  N   UNL     1      44.531   3.706  13.025  0.00  0.00    +0.000 NA
ATOM      9  H   UNL     1      44.334   4.514  13.615  0.00  0.00    +0.000 HD
BRANCH   8  11
ATOM     10  C   UNL     1      42.946   5.088  11.671  0.00  0.00    +0.000 C 
ATOM     11  C   UNL     1      43.728   3.771  11.796  0.00  0.00    +0.000 C 
BRANCH  11  12
ATOM     12  C   UNL     1      44.697   3.522  10.598  0.00  0.00    +0.000 C 
ATOM     13  C   UNL     1      44.744   4.700   9.602  0.00  0.00    +0.000 C 
ATOM     14  C   UNL     1      45.616   4.380   8.397  0.00  0.00    +0.000 C 
ATOM     15  O   UNL     1      45.186   3.177   7.766  0.00  0.00    +0.000 OA
ATOM     16  C   UNL     1      45.305   2.052   8.633  0.00  0.00    +0.000 C 
ATOM     17  C   UNL     1      44.401   2.213   9.847  0.00  0.00    +0.000 C 
ENDBRANCH  11  12
ENDBRANCH   8  11
ENDBRANCH   7   8
ENDBRANCH   1   7
BRANCH   4  18
ATOM     18  C   UNL     1      49.062   6.272  16.889  0.00  0.00    +0.000 C 
BRANCH  18  19
ATOM     19  N   UNL     1      49.886   5.355  17.630  0.00  0.00    +0.000 N 
ATOM     20  C   UNL     1      51.226   5.266  17.329  0.00  0.00    +0.000 C 
ATOM     21  O   UNL     1      51.712   5.880  16.381  0.00  0.00    +0.000 OA
ATOM     22  H   UNL     1      49.586   5.100  18.567  0.00  0.00    +0.000 HD
BRANCH  20  23
ATOM     23  C   UNL     1      52.032   4.351  18.141  0.00  0.00    +0.000 A 
ATOM     24  C   UNL     1      52.865   4.844  19.137  0.00  0.00    +0.000 A 
ATOM     25  S   UNL     1      53.975   3.683  19.716  0.00  0.00    +0.000 S 
ATOM     26  C   UNL     1      53.299   2.473  18.731  0.00  0.00    +0.000 A 
ATOM     27  N   UNL     1      53.841   1.226  18.646  0.00  0.00    +0.000 NA
ATOM     28  C   UNL     1      53.183   0.406  17.905  0.00  0.00    +0.000 A 
ATOM     29  N   UNL     1      51.993   0.695  17.277  0.00  0.00    +0.000 N 
ATOM     30  C   UNL     1      51.394   1.929  17.363  0.00  0.00    +0.000 A 
ATOM     31  O   UNL     1      50.280   2.141  16.897  0.00  0.00    +0.000 OA
ATOM     32  C   UNL     1      52.174   2.922  18.070  0.00  0.00    +0.000 A 
ATOM     33  H   UNL     1      51.478  -0.022  16.793  0.00  0.00    +0.000 HD
ENDBRANCH  20  23
ENDBRANCH  18  19
ENDBRANCH   4  18
TORSDOF 7
ENDMDL
MODEL 5
REMARK VINA RESULT:    -7.490      3.205      9.023
REMARK INTER + INTRA:         -11.470
REMARK INTER:                 -10.382
REMARK INTRA:                  -1.087
REMARK UNBOUND:                -0.915
REMARK  Name = 
REMARK  8 active torsions:
REMARK  status: ('A' for Active; 'I' for Inactive)
REMARK    1  A    between atoms: C_1  and  C_2
REMARK    2  A    between atoms: C_2  and  N_3
REMARK    3  A    between atoms: C_2  and  C_25
REMARK    4  A    between atoms: N_3  and  C_4
REMARK    5  A    between atoms: C_4  and  C_5
REMARK    6  A    between atoms: C_8  and  C_9
REMARK    7  A    between atoms: C_9  and  N_10
REMARK    8  A    between atoms: C_11  and  C_13
REMARK                            x       y       z     vdW  Elec       q    Type
REMARK                         _______ _______ _______ _____ _____    ______ ____
ROOT
ATOM      1  C   UNL     1      49.147   7.456  15.673  0.00  0.00    +0.000 A 
ATOM      2  N   UNL     1      48.944   6.282  15.037  0.00  0.00    +0.000 NA
ATOM      3  C   UNL     1      48.366   6.342  13.823  0.00  0.00    +0.000 A 
ATOM      4  C   UNL     1      47.978   7.514  13.215  0.00  0.00    +0.000 A 
ATOM      5  C   UNL     1      48.199   8.654  13.962  0.00  0.00    +0.000 A 
ATOM      6  N   UNL     1      48.785   8.657  15.177  0.00  0.00    +0.000 NA
ENDROOT
BRANCH   1   7
ATOM      7  C   UNL     1      49.823   7.420  17.041  0.00  0.00    +0.000 C 
BRANCH   7   8
ATOM      8  N   UNL     1      50.426   6.113  17.353  0.00  0.00    +0.000 NA
ATOM      9  H   UNL     1      51.426   6.252  17.499  0.00  0.00    +0.000 HD
BRANCH   8  11
ATOM     10  C   UNL     1      48.515   6.019  18.963  0.00  0.00    +0.000 C 
ATOM     11  C   UNL     1      49.843   5.401  18.499  0.00  0.00    +0.000 C 
BRANCH  11  12
ATOM     12  C   UNL     1      49.708   3.901  18.091  0.00  0.00    +0.000 C 
ATOM     13  C   UNL     1      51.036   3.285  17.600  0.00  0.00    +0.000 C 
ATOM     14  C   UNL     1      50.844   1.857  17.113  0.00  0.00    +0.000 C 
ATOM     15  O   UNL     1      49.835   1.795  16.109  0.00  0.00    +0.000 OA
ATOM     16  C   UNL     1      48.564   2.202  16.609  0.00  0.00    +0.000 C 
ATOM     17  C   UNL     1      48.602   3.659  17.049  0.00  0.00    +0.000 C 
ENDBRANCH  11  12
ENDBRANCH   8  11
ENDBRANCH   7   8
ENDBRANCH   1   7
BRANCH   4  18
ATOM     18  C   UNL     1      47.389   7.536  11.846  0.00  0.00    +0.000 C 
BRANCH  18  19
ATOM     19  N   UNL     1      46.702   6.318  11.507  0.00  0.00    +0.000 N 
ATOM     20  C   UNL     1      45.328   6.286  11.565  0.00  0.00    +0.000 C 
ATOM     21  O   UNL     1      44.682   7.242  11.991  0.00  0.00    +0.000 OA
ATOM     22  H   UNL     1      47.172   5.668  10.882  0.00  0.00    +0.000 HD
BRANCH  20  23
ATOM     23  C   UNL     1      44.673   5.038  11.167  0.00  0.00    +0.000 A 
ATOM     24  C   UNL     1      43.665   4.492  11.953  0.00  0.00    +0.000 A 
ATOM     25  S   UNL     1      43.286   2.882  11.528  0.00  0.00    +0.000 S 
ATOM     26  C   UNL     1      44.375   2.916  10.224  0.00  0.00    +0.000 A 
ATOM     27  N   UNL     1      44.637   1.809   9.473  0.00  0.00    +0.000 NA
ATOM     28  C   UNL     1      45.438   2.009   8.487  0.00  0.00    +0.000 A 
ATOM     29  N   UNL     1      45.969   3.230   8.140  0.00  0.00    +0.000 N 
ATOM     30  C   UNL     1      45.705   4.377   8.848  0.00  0.00    +0.000 A 
ATOM     31  O   UNL     1      46.087   5.477   8.463  0.00  0.00    +0.000 OA
ATOM     32  C   UNL     1      44.922   4.171  10.048  0.00  0.00    +0.000 A 
ATOM     33  H   UNL     1      46.511   3.336   7.297  0.00  0.00    +0.000 HD
ENDBRANCH  20  23
ENDBRANCH  18  19
ENDBRANCH   4  18
TORSDOF 7
ENDMDL
MODEL 6
REMARK VINA RESULT:    -6.955      3.972      5.495
REMARK INTER + INTRA:         -10.716
REMARK INTER:                  -9.711
REMARK INTRA:                  -1.004
REMARK UNBOUND:                -0.915
REMARK  Name = 
REMARK  8 active torsions:
REMARK  status: ('A' for Active; 'I' for Inactive)
REMARK    1  A    between atoms: C_1  and  C_2
REMARK    2  A    between atoms: C_2  and  N_3
REMARK    3  A    between atoms: C_2  and  C_25
REMARK    4  A    between atoms: N_3  and  C_4
REMARK    5  A    between atoms: C_4  and  C_5
REMARK    6  A    between atoms: C_8  and  C_9
REMARK    7  A    between atoms: C_9  and  N_10
REMARK    8  A    between atoms: C_11  and  C_13
REMARK                            x       y       z     vdW  Elec       q    Type
REMARK                         _______ _______ _______ _____ _____    ______ ____
ROOT
ATOM      1  C   UNL     1      47.528   5.074  14.556  0.00  0.00    +0.000 A 
ATOM      2  N   UNL     1      48.242   5.806  15.437  0.00  0.00    +0.000 NA
ATOM      3  C   UNL     1      48.594   5.199  16.586  0.00  0.00    +0.000 A 
ATOM      4  C   UNL     1      48.267   3.898  16.897  0.00  0.00    +0.000 A 
ATOM      5  C   UNL     1      47.509   3.248  15.945  0.00  0.00    +0.000 A 
ATOM      6  N   UNL     1      47.136   3.801  14.771  0.00  0.00    +0.000 NA
ENDROOT
BRANCH   1   7
ATOM      7  C   UNL     1      47.135   5.730  13.235  0.00  0.00    +0.000 C 
BRANCH   7   8
ATOM      8  N   UNL     1      46.124   6.789  13.394  0.00  0.00    +0.000 NA
ATOM      9  H   UNL     1      46.566   7.684  13.189  0.00  0.00    +0.000 HD
BRANCH   8  11
ATOM     10  C   UNL     1      44.852   7.612  11.405  0.00  0.00    +0.000 C 
ATOM     11  C   UNL     1      44.906   6.632  12.587  0.00  0.00    +0.000 C 
BRANCH  11  12
ATOM     12  C   UNL     1      44.836   5.138  12.143  0.00  0.00    +0.000 C 
ATOM     13  C   UNL     1      44.674   4.966  10.618  0.00  0.00    +0.000 C 
ATOM     14  C   UNL     1      44.505   3.503  10.234  0.00  0.00    +0.000 C 
ATOM     15  O   UNL     1      43.418   2.915  10.946  0.00  0.00    +0.000 OA
ATOM     16  C   UNL     1      43.644   2.917  12.353  0.00  0.00    +0.000 C 
ATOM     17  C   UNL     1      43.742   4.343  12.878  0.00  0.00    +0.000 C 
ENDBRANCH  11  12
ENDBRANCH   8  11
ENDBRANCH   7   8
ENDBRANCH   1   7
BRANCH   4  18
ATOM     18  C   UNL     1      48.726   3.250  18.159  0.00  0.00    +0.000 C 
BRANCH  18  19
ATOM     19  N   UNL     1      50.157   3.249  18.306  0.00  0.00    +0.000 N 
ATOM     20  C   UNL     1      50.903   2.347  17.583  0.00  0.00    +0.000 C 
ATOM     21  O   UNL     1      50.368   1.482  16.891  0.00  0.00    +0.000 OA
ATOM     22  H   UNL     1      50.602   4.113  18.603  0.00  0.00    +0.000 HD
BRANCH  20  23
ATOM     23  C   UNL     1      52.358   2.414  17.732  0.00  0.00    +0.000 A 
ATOM     24  C   UNL     1      53.109   1.250  17.837  0.00  0.00    +0.000 A 
ATOM     25  S   UNL     1      54.710   1.532  18.361  0.00  0.00    +0.000 S 
ATOM     26  C   UNL     1      54.469   3.214  18.356  0.00  0.00    +0.000 A 
ATOM     27  N   UNL     1      55.419   4.080  18.808  0.00  0.00    +0.000 NA
ATOM     28  C   UNL     1      55.111   5.323  18.685  0.00  0.00    +0.000 A 
ATOM     29  N   UNL     1      53.958   5.794  18.099  0.00  0.00    +0.000 N 
ATOM     30  C   UNL     1      52.989   4.957  17.600  0.00  0.00    +0.000 A 
ATOM     31  O   UNL     1      52.023   5.385  16.978  0.00  0.00    +0.000 OA
ATOM     32  C   UNL     1      53.231   3.552  17.847  0.00  0.00    +0.000 A 
ATOM     33  H   UNL     1      53.823   6.780  17.945  0.00  0.00    +0.000 HD
ENDBRANCH  20  23
ENDBRANCH  18  19
ENDBRANCH   4  18
TORSDOF 7
ENDMDL
MODEL 7
REMARK VINA RESULT:    -6.884      4.902      9.844
REMARK INTER + INTRA:         -10.616
REMARK INTER:                  -9.824
REMARK INTRA:                  -0.792
REMARK UNBOUND:                -0.915
REMARK  Name = 
REMARK  8 active torsions:
REMARK  status: ('A' for Active; 'I' for Inactive)
REMARK    1  A    between atoms: C_1  and  C_2
REMARK    2  A    between atoms: C_2  and  N_3
REMARK    3  A    between atoms: C_2  and  C_25
REMARK    4  A    between atoms: N_3  and  C_4
REMARK    5  A    between atoms: C_4  and  C_5
REMARK    6  A    between atoms: C_8  and  C_9
REMARK    7  A    between atoms: C_9  and  N_10
REMARK    8  A    between atoms: C_11  and  C_13
REMARK                            x       y       z     vdW  Elec       q    Type
REMARK                         _______ _______ _______ _____ _____    ______ ____
ROOT
ATOM      1  C   UNL     1      51.200   4.094  17.697  0.00  0.00    +0.000 A 
ATOM      2  N   UNL     1      50.453   5.207  17.534  0.00  0.00    +0.000 NA
ATOM      3  C   UNL     1      49.159   5.027  17.208  0.00  0.00    +0.000 A 
ATOM      4  C   UNL     1      48.577   3.792  17.034  0.00  0.00    +0.000 A 
ATOM      5  C   UNL     1      49.433   2.721  17.191  0.00  0.00    +0.000 A 
ATOM      6  N   UNL     1      50.734   2.839  17.529  0.00  0.00    +0.000 NA
ENDROOT
BRANCH   1   7
ATOM      7  C   UNL     1      52.664   4.267  18.090  0.00  0.00    +0.000 C 
BRANCH   7   8
ATOM      8  N   UNL     1      53.303   3.007  18.507  0.00  0.00    +0.000 NA
ATOM      9  H   UNL     1      52.571   2.312  18.649  0.00  0.00    +0.000 HD
BRANCH   8  11
ATOM     10  C   UNL     1      55.495   3.460  17.392  0.00  0.00    +0.000 C 
ATOM     11  C   UNL     1      54.328   2.482  17.594  0.00  0.00    +0.000 C 
BRANCH  11  12
ATOM     12  C   UNL     1      54.781   1.099  18.156  0.00  0.00    +0.000 C 
ATOM     13  C   UNL     1      53.729  -0.011  17.955  0.00  0.00    +0.000 C 
ATOM     14  C   UNL     1      54.160  -1.317  18.606  0.00  0.00    +0.000 C 
ATOM     15  O   UNL     1      54.457  -1.120  19.986  0.00  0.00    +0.000 OA
ATOM     16  C   UNL     1      55.549  -0.223  20.171  0.00  0.00    +0.000 C 
ATOM     17  C   UNL     1      55.202   1.159  19.635  0.00  0.00    +0.000 C 
ENDBRANCH  11  12
ENDBRANCH   8  11
ENDBRANCH   7   8
ENDBRANCH   1   7
BRANCH   4  18
ATOM     18  C   UNL     1      47.126   3.641  16.725  0.00  0.00    +0.000 C 
BRANCH  18  19
ATOM     19  N   UNL     1      46.684   4.496  15.656  0.00  0.00    +0.000 N 
ATOM     20  C   UNL     1      46.759   4.040  14.360  0.00  0.00    +0.000 C 
ATOM     21  O   UNL     1      47.282   2.961  14.090  0.00  0.00    +0.000 OA
ATOM     22  H   UNL     1      45.994   5.209  15.876  0.00  0.00    +0.000 HD
BRANCH  20  23
ATOM     23  C   UNL     1      46.254   4.929  13.311  0.00  0.00    +0.000 A 
ATOM     24  C   UNL     1      47.009   6.016  12.888  0.00  0.00    +0.000 A 
ATOM     25  S   UNL     1      46.117   7.120  11.939  0.00  0.00    +0.000 S 
ATOM     26  C   UNL     1      44.741   6.123  11.981  0.00  0.00    +0.000 A 
ATOM     27  N   UNL     1      43.551   6.513  11.446  0.00  0.00    +0.000 NA
ATOM     28  C   UNL     1      42.622   5.625  11.505  0.00  0.00    +0.000 A 
ATOM     29  N   UNL     1      42.780   4.352  12.002  0.00  0.00    +0.000 N 
ATOM     30  C   UNL     1      43.972   3.905  12.520  0.00  0.00    +0.000 A 
ATOM     31  O   UNL     1      44.135   2.737  12.853  0.00  0.00    +0.000 OA
ATOM     32  C   UNL     1      45.002   4.918  12.604  0.00  0.00    +0.000 A 
ATOM     33  H   UNL     1      42.040   3.673  11.928  0.00  0.00    +0.000 HD
ENDBRANCH  20  23
ENDBRANCH  18  19
ENDBRANCH   4  18
TORSDOF 7
ENDMDL
MODEL 8
REMARK VINA RESULT:    -6.791      4.405      5.724
REMARK INTER + INTRA:         -10.485
REMARK INTER:                  -9.716
REMARK INTRA:                  -0.769
REMARK UNBOUND:                -0.915
REMARK  Name = 
REMARK  8 active torsions:
REMARK  status: ('A' for Active; 'I' for Inactive)
REMARK    1  A    between atoms: C_1  and  C_2
REMARK    2  A    between atoms: C_2  and  N_3
REMARK    3  A    between atoms: C_2  and  C_25
REMARK    4  A    between atoms: N_3  and  C_4
REMARK    5  A    between atoms: C_4  and  C_5
REMARK    6  A    between atoms: C_8  and  C_9
REMARK    7  A    between atoms: C_9  and  N_10
REMARK    8  A    between atoms: C_11  and  C_13
REMARK                            x       y       z     vdW  Elec       q    Type
REMARK                         _______ _______ _______ _____ _____    ______ ____
ROOT
ATOM      1  C   UNL     1      47.494   4.898  14.750  0.00  0.00    +0.000 A 
ATOM      2  N   UNL     1      48.217   5.713  15.547  0.00  0.00    +0.000 NA
ATOM      3  C   UNL     1      48.776   5.156  16.638  0.00  0.00    +0.000 A 
ATOM      4  C   UNL     1      48.646   3.827  16.972  0.00  0.00    +0.000 A 
ATOM      5  C   UNL     1      47.862   3.088  16.110  0.00  0.00    +0.000 A 
ATOM      6  N   UNL     1      47.287   3.588  14.997  0.00  0.00    +0.000 NA
ENDROOT
BRANCH   1   7
ATOM      7  C   UNL     1      46.869   5.497  13.493  0.00  0.00    +0.000 C 
BRANCH   7   8
ATOM      8  N   UNL     1      45.422   5.738  13.627  0.00  0.00    +0.000 NA
ATOM      9  H   UNL     1      45.268   6.279  14.477  0.00  0.00    +0.000 HD
BRANCH   8  11
ATOM     10  C   UNL     1      45.747   7.311  11.710  0.00  0.00    +0.000 C 
ATOM     11  C   UNL     1      44.780   6.401  12.483  0.00  0.00    +0.000 C 
BRANCH  11  12
ATOM     12  C   UNL     1      44.153   5.283  11.594  0.00  0.00    +0.000 C 
ATOM     13  C   UNL     1      43.882   3.975  12.367  0.00  0.00    +0.000 C 
ATOM     14  C   UNL     1      43.370   2.877  11.447  0.00  0.00    +0.000 C 
ATOM     15  O   UNL     1      44.267   2.667  10.360  0.00  0.00    +0.000 OA
ATOM     16  C   UNL     1      44.387   3.826   9.540  0.00  0.00    +0.000 C 
ATOM     17  C   UNL     1      44.980   4.983  10.332  0.00  0.00    +0.000 C 
ENDBRANCH  11  12
ENDBRANCH   8  11
ENDBRANCH   7   8
ENDBRANCH   1   7
BRANCH   4  18
ATOM     18  C   UNL     1      49.328   3.243  18.162  0.00  0.00    +0.000 C 
BRANCH  18  19
ATOM     19  N   UNL     1      50.702   2.896  17.913  0.00  0.00    +0.000 N 
ATOM     20  C   UNL     1      51.697   3.641  18.503  0.00  0.00    +0.000 C 
ATOM     21  O   UNL     1      51.440   4.650  19.157  0.00  0.00    +0.000 OA
ATOM     22  H   UNL     1      50.908   1.934  17.658  0.00  0.00    +0.000 HD
BRANCH  20  23
ATOM     23  C   UNL     1      53.079   3.222  18.255  0.00  0.00    +0.000 A 
ATOM     24  C   UNL     1      54.127   4.117  18.429  0.00  0.00    +0.000 A 
ATOM     25  S   UNL     1      55.596   3.566  17.754  0.00  0.00    +0.000 S 
ATOM     26  C   UNL     1      54.894   2.081  17.315  0.00  0.00    +0.000 A 
ATOM     27  N   UNL     1      55.574   1.149  16.589  0.00  0.00    +0.000 NA
ATOM     28  C   UNL     1      54.928   0.055  16.386  0.00  0.00    +0.000 A 
ATOM     29  N   UNL     1      53.678  -0.226  16.888  0.00  0.00    +0.000 N 
ATOM     30  C   UNL     1      52.972   0.671  17.652  0.00  0.00    +0.000 A 
ATOM     31  O   UNL     1      51.912   0.369  18.190  0.00  0.00    +0.000 OA
ATOM     32  C   UNL     1      53.601   1.968  17.785  0.00  0.00    +0.000 A 
ATOM     33  H   UNL     1      53.270  -1.140  16.775  0.00  0.00    +0.000 HD
ENDBRANCH  20  23
ENDBRANCH  18  19
ENDBRANCH   4  18
TORSDOF 7
ENDMDL
MODEL 9
REMARK VINA RESULT:    -6.504      2.203      3.299
REMARK INTER + INTRA:         -10.080
REMARK INTER:                  -9.134
REMARK INTRA:                  -0.946
REMARK UNBOUND:                -0.915
REMARK  Name = 
REMARK  8 active torsions:
REMARK  status: ('A' for Active; 'I' for Inactive)
REMARK    1  A    between atoms: C_1  and  C_2
REMARK    2  A    between atoms: C_2  and  N_3
REMARK    3  A    between atoms: C_2  and  C_25
REMARK    4  A    between atoms: N_3  and  C_4
REMARK    5  A    between atoms: C_4  and  C_5
REMARK    6  A    between atoms: C_8  and  C_9
REMARK    7  A    between atoms: C_9  and  N_10
REMARK    8  A    between atoms: C_11  and  C_13
REMARK                            x       y       z     vdW  Elec       q    Type
REMARK                         _______ _______ _______ _____ _____    ______ ____
ROOT
ATOM      1  C   UNL     1      46.243   7.601  12.427  0.00  0.00    +0.000 A 
ATOM      2  N   UNL     1      47.124   6.648  12.055  0.00  0.00    +0.000 NA
ATOM      3  C   UNL     1      48.304   6.626  12.702  0.00  0.00    +0.000 A 
ATOM      4  C   UNL     1      48.648   7.511  13.700  0.00  0.00    +0.000 A 
ATOM      5  C   UNL     1      47.692   8.465  13.982  0.00  0.00    +0.000 A 
ATOM      6  N   UNL     1      46.488   8.529  13.376  0.00  0.00    +0.000 NA
ENDROOT
BRANCH   1   7
ATOM      7  C   UNL     1      44.888   7.634  11.726  0.00  0.00    +0.000 C 
BRANCH   7   8
ATOM      8  N   UNL     1      44.768   6.632  10.653  0.00  0.00    +0.000 NA
ATOM      9  H   UNL     1      45.697   6.466  10.269  0.00  0.00    +0.000 HD
BRANCH   8  11
ATOM     10  C   UNL     1      42.683   5.524  11.478  0.00  0.00    +0.000 C 
ATOM     11  C   UNL     1      44.146   5.357  11.040  0.00  0.00    +0.000 C 
BRANCH  11  12
ATOM     12  C   UNL     1      44.315   4.378   9.838  0.00  0.00    +0.000 C 
ATOM     13  C   UNL     1      44.337   2.894  10.264  0.00  0.00    +0.000 C 
ATOM     14  C   UNL     1      44.608   1.976   9.081  0.00  0.00    +0.000 C 
ATOM     15  O   UNL     1      45.813   2.348   8.417  0.00  0.00    +0.000 OA
ATOM     16  C   UNL     1      45.732   3.661   7.869  0.00  0.00    +0.000 C 
ATOM     17  C   UNL     1      45.550   4.692   8.975  0.00  0.00    +0.000 C 
ENDBRANCH  11  12
ENDBRANCH   8  11
ENDBRANCH   7   8
ENDBRANCH   1   7
BRANCH   4  18
ATOM     18  C   UNL     1      49.946   7.415  14.426  0.00  0.00    +0.000 C 
BRANCH  18  19
ATOM     19  N   UNL     1      49.823   7.655  15.839  0.00  0.00    +0.000 N 
ATOM     20  C   UNL     1      49.450   6.618  16.663  0.00  0.00    +0.000 C 
ATOM     21  O   UNL     1      49.128   5.522  16.208  0.00  0.00    +0.000 OA
ATOM     22  H   UNL     1      50.366   8.416  16.239  0.00  0.00    +0.000 HD
BRANCH  20  23
ATOM     23  C   UNL     1      49.382   6.899  18.099  0.00  0.00    +0.000 A 
ATOM     24  C   UNL     1      50.059   6.094  19.006  0.00  0.00    +0.000 A 
ATOM     25  S   UNL     1      49.573   6.354  20.623  0.00  0.00    +0.000 S 
ATOM     26  C   UNL     1      48.534   7.617  20.160  0.00  0.00    +0.000 A 
ATOM     27  N   UNL     1      47.707   8.233  21.051  0.00  0.00    +0.000 NA
ATOM     28  C   UNL     1      47.025   9.208  20.561  0.00  0.00    +0.000 A 
ATOM     29  N   UNL     1      47.127   9.667  19.268  0.00  0.00    +0.000 N 
ATOM     30  C   UNL     1      47.971   9.097  18.346  0.00  0.00    +0.000 A 
ATOM     31  O   UNL     1      48.140   9.586  17.235  0.00  0.00    +0.000 OA
ATOM     32  C   UNL     1      48.651   7.909  18.816  0.00  0.00    +0.000 A 
ATOM     33  H   UNL     1      46.637  10.498  18.975  0.00  0.00    +0.000 HD
ENDBRANCH  20  23
ENDBRANCH  18  19
ENDBRANCH   4  18
TORSDOF 7
ENDMDL
