MODEL 1
REMARK VINA RESULT:    -6.814      0.000      0.000
REMARK INTER + INTRA:          -8.661
REMARK INTER:                  -8.607
REMARK INTRA:                  -0.055
REMARK UNBOUND:                -0.055
REMARK  Name = 
REMARK  6 active torsions:
REMARK  status: ('A' for Active; 'I' for Inactive)
REMARK    1  A    between atoms: C_1  and  C_2
REMARK    2  A    between atoms: C_2  and  C_3
REMARK    3  A    between atoms: C_2  and  N_15
REMARK    4  A    between atoms: C_9  and  C_10
REMARK    5  A    between atoms: C_18  and  C_19
REMARK    6  A    between atoms: C_19  and  N_20
REMARK                            x       y       z     vdW  Elec       q    Type
REMARK                         _______ _______ _______ _____ _____    ______ ____
ROOT
ATOM      1  C   UNL     1      46.818   6.068  13.266  0.00  0.00    +0.000 A 
ATOM      2  C   UNL     1      46.443   7.434  12.889  0.00  0.00    +0.000 A 
ATOM      3  C   UNL     1      45.291   7.707  12.251  0.00  0.00    +0.000 A 
ATOM      4  C   UNL     1      44.402   6.649  11.912  0.00  0.00    +0.000 A 
ATOM      5  N   UNL     1      43.219   6.682  11.342  0.00  0.00    +0.000 NA
ATOM      6  C   UNL     1      42.834   5.373  11.253  0.00  0.00    +0.000 A 
ATOM      7  C   UNL     1      43.791   4.508  11.757  0.00  0.00    +0.000 A 
ATOM      8  N   UNL     1      44.795   5.349  12.222  0.00  0.00    +0.000 N 
ATOM      9  C   UNL     1      45.988   5.067  12.897  0.00  0.00    +0.000 A 
ENDROOT
BRANCH   7  10
ATOM     10  C   UNL     1      43.799   3.071  11.817  0.00  0.00    +0.000 C 
ATOM     11  N   UNL     1      44.233   2.418  10.698  0.00  0.00    +0.000 N 
ATOM     12  O   UNL     1      43.462   2.402  12.789  0.00  0.00    +0.000 OA
ATOM     13  H   UNL     1      44.563   2.876   9.863  0.00  0.00    +0.000 HD
ATOM     14  H   UNL     1      44.272   1.409  10.741  0.00  0.00    +0.000 HD
ENDBRANCH   7  10
BRANCH   1  16
ATOM     15  C   UNL     1      48.932   7.127  14.061  0.00  0.00    +0.000 C 
ATOM     16  C   UNL     1      48.086   5.839  14.086  0.00  0.00    +0.000 C 
BRANCH  16  17
ATOM     17  N   UNL     1      47.785   5.337  15.464  0.00  0.00    +0.000 NA
ATOM     18  C   UNL     1      47.532   3.877  15.423  0.00  0.00    +0.000 C 
ATOM     19  C   UNL     1      47.335   3.252  16.805  0.00  0.00    +0.000 C 
ATOM     20  C   UNL     1      48.520   3.531  17.733  0.00  0.00    +0.000 C 
ATOM     21  C   UNL     1      48.688   5.052  17.802  0.00  0.00    +0.000 C 
ATOM     22  C   UNL     1      48.855   5.682  16.416  0.00  0.00    +0.000 C 
BRANCH  20  23
ATOM     23  C   UNL     1      49.829   2.847  17.290  0.00  0.00    +0.000 C 
BRANCH  23  24
ATOM     24  N   UNL     1      49.589   1.776  16.329  0.00  0.00    +0.000 NA
ATOM     25  H   UNL     1      49.477   2.170  15.396  0.00  0.00    +0.000 HD
ATOM     26  H   UNL     1      48.708   1.314  16.552  0.00  0.00    +0.000 HD
ENDBRANCH  23  24
ENDBRANCH  20  23
ENDBRANCH  16  17
ENDBRANCH   1  16
TORSDOF 5
ENDMDL
MODEL 2
REMARK VINA RESULT:    -6.595      3.747      6.384
REMARK INTER + INTRA:          -8.385
REMARK INTER:                  -7.933
REMARK INTRA:                  -0.452
REMARK UNBOUND:                -0.055
REMARK  Name = 
REMARK  6 active torsions:
REMARK  status: ('A' for Active; 'I' for Inactive)
REMARK    1  A    between atoms: C_1  and  C_2
REMARK    2  A    between atoms: C_2  and  C_3
REMARK    3  A    between atoms: C_2  and  N_15
REMARK    4  A    between atoms: C_9  and  C_10
REMARK    5  A    between atoms: C_18  and  C_19
REMARK    6  A    between atoms: C_19  and  N_20
REMARK                            x       y       z     vdW  Elec       q    Type
REMARK                         _______ _______ _______ _____ _____    ______ ____
ROOT
ATOM      1  C   UNL     1      46.369   6.848  11.980  0.00  0.00    +0.000 A 
ATOM      2  C   UNL     1      47.727   7.392  12.065  0.00  0.00    +0.000 A 
ATOM      3  C   UNL     1      47.968   8.714  12.039  0.00  0.00    +0.000 A 
ATOM      4  C   UNL     1      46.887   9.629  11.912  0.00  0.00    +0.000 A 
ATOM      5  N   UNL     1      46.878  10.942  11.913  0.00  0.00    +0.000 NA
ATOM      6  C   UNL     1      45.566  11.288  11.748  0.00  0.00    +0.000 A 
ATOM      7  C   UNL     1      44.743  10.180  11.625  0.00  0.00    +0.000 A 
ATOM      8  N   UNL     1      45.605   9.100  11.773  0.00  0.00    +0.000 N 
ATOM      9  C   UNL     1      45.353   7.724  11.814  0.00  0.00    +0.000 A 
ENDROOT
BRANCH   7  10
ATOM     10  C   UNL     1      43.324  10.103  11.402  0.00  0.00    +0.000 C 
ATOM     11  N   UNL     1      42.543  10.924  12.166  0.00  0.00    +0.000 N 
ATOM     12  O   UNL     1      42.776   9.374  10.580  0.00  0.00    +0.000 OA
ATOM     13  H   UNL     1      42.898  11.581  12.842  0.00  0.00    +0.000 HD
ATOM     14  H   UNL     1      41.547  10.899  11.995  0.00  0.00    +0.000 HD
ENDBRANCH   7  10
BRANCH   1  16
ATOM     15  C   UNL     1      45.805   5.033  13.596  0.00  0.00    +0.000 C 
ATOM     16  C   UNL     1      46.154   5.343  12.127  0.00  0.00    +0.000 C 
BRANCH  16  17
ATOM     17  N   UNL     1      45.157   4.815  11.143  0.00  0.00    +0.000 NA
ATOM     18  C   UNL     1      45.671   4.988   9.763  0.00  0.00    +0.000 C 
ATOM     19  C   UNL     1      44.773   4.367   8.693  0.00  0.00    +0.000 C 
ATOM     20  C   UNL     1      44.520   2.879   8.953  0.00  0.00    +0.000 C 
ATOM     21  C   UNL     1      43.916   2.764  10.355  0.00  0.00    +0.000 C 
ATOM     22  C   UNL     1      44.801   3.414  11.424  0.00  0.00    +0.000 C 
BRANCH  20  23
ATOM     23  C   UNL     1      45.781   2.002   8.817  0.00  0.00    +0.000 C 
BRANCH  23  24
ATOM     24  N   UNL     1      46.549   2.331   7.622  0.00  0.00    +0.000 NA
ATOM     25  H   UNL     1      46.691   3.339   7.571  0.00  0.00    +0.000 HD
ATOM     26  H   UNL     1      46.012   2.076   6.794  0.00  0.00    +0.000 HD
ENDBRANCH  23  24
ENDBRANCH  20  23
ENDBRANCH  16  17
ENDBRANCH   1  16
TORSDOF 5
ENDMDL
MODEL 3
REMARK VINA RESULT:    -6.535      3.008      4.155
REMARK INTER + INTRA:          -8.310
REMARK INTER:                  -7.933
REMARK INTRA:                  -0.377
REMARK UNBOUND:                -0.055
REMARK  Name = 
REMARK  6 active torsions:
REMARK  status: ('A' for Active; 'I' for Inactive)
REMARK    1  A    between atoms: C_1  and  C_2
REMARK    2  A    between atoms: C_2  and  C_3
REMARK    3  A    between atoms: C_2  and  N_15
REMARK    4  A    between atoms: C_9  and  C_10
REMARK    5  A    between atoms: C_18  and  C_19
REMARK    6  A    between atoms: C_19  and  N_20
REMARK                            x       y       z     vdW  Elec       q    Type
REMARK                         _______ _______ _______ _____ _____    ______ ____
ROOT
ATOM      1  C   UNL     1      45.191   6.311  11.621  0.00  0.00    +0.000 A 
ATOM      2  C   UNL     1      44.160   5.825  12.542  0.00  0.00    +0.000 A 
ATOM      3  C   UNL     1      43.559   4.634  12.374  0.00  0.00    +0.000 A 
ATOM      4  C   UNL     1      43.912   3.813  11.268  0.00  0.00    +0.000 A 
ATOM      5  N   UNL     1      43.501   2.610  10.936  0.00  0.00    +0.000 NA
ATOM      6  C   UNL     1      44.165   2.317   9.777  0.00  0.00    +0.000 A 
ATOM      7  C   UNL     1      44.990   3.352   9.368  0.00  0.00    +0.000 A 
ATOM      8  N   UNL     1      44.851   4.310  10.367  0.00  0.00    +0.000 N 
ATOM      9  C   UNL     1      45.486   5.543  10.549  0.00  0.00    +0.000 A 
ENDROOT
BRANCH   7  10
ATOM     10  C   UNL     1      45.821   3.466   8.200  0.00  0.00    +0.000 C 
ATOM     11  N   UNL     1      46.422   2.317   7.768  0.00  0.00    +0.000 N 
ATOM     12  O   UNL     1      46.015   4.500   7.568  0.00  0.00    +0.000 OA
ATOM     13  H   UNL     1      46.298   1.414   8.196  0.00  0.00    +0.000 HD
ATOM     14  H   UNL     1      46.983   2.381   6.929  0.00  0.00    +0.000 HD
ENDBRANCH   7  10
BRANCH   1  16
ATOM     15  C   UNL     1      44.922   8.788  11.747  0.00  0.00    +0.000 C 
ATOM     16  C   UNL     1      45.913   7.622  11.930  0.00  0.00    +0.000 C 
BRANCH  16  17
ATOM     17  N   UNL     1      46.580   7.598  13.270  0.00  0.00    +0.000 NA
ATOM     18  C   UNL     1      47.525   6.458  13.341  0.00  0.00    +0.000 C 
ATOM     19  C   UNL     1      48.345   6.423  14.631  0.00  0.00    +0.000 C 
ATOM     20  C   UNL     1      49.114   7.728  14.855  0.00  0.00    +0.000 C 
ATOM     21  C   UNL     1      48.085   8.862  14.852  0.00  0.00    +0.000 C 
ATOM     22  C   UNL     1      47.242   8.878  13.572  0.00  0.00    +0.000 C 
BRANCH  20  23
ATOM     23  C   UNL     1      50.223   7.981  13.814  0.00  0.00    +0.000 C 
BRANCH  23  24
ATOM     24  N   UNL     1      51.551   7.715  14.354  0.00  0.00    +0.000 NA
ATOM     25  H   UNL     1      52.223   8.365  13.948  0.00  0.00    +0.000 HD
ATOM     26  H   UNL     1      51.851   6.782  14.072  0.00  0.00    +0.000 HD
ENDBRANCH  23  24
ENDBRANCH  20  23
ENDBRANCH  16  17
ENDBRANCH   1  16
TORSDOF 5
ENDMDL
MODEL 4
REMARK VINA RESULT:    -6.345      1.930      2.831
REMARK INTER + INTRA:          -8.069
REMARK INTER:                  -7.578
REMARK INTRA:                  -0.491
REMARK UNBOUND:                -0.055
REMARK  Name = 
REMARK  6 active torsions:
REMARK  status: ('A' for Active; 'I' for Inactive)
REMARK    1  A    between atoms: C_1  and  C_2
REMARK    2  A    between atoms: C_2  and  C_3
REMARK    3  A    between atoms: C_2  and  N_15
REMARK    4  A    between atoms: C_9  and  C_10
REMARK    5  A    between atoms: C_18  and  C_19
REMARK    6  A    between atoms: C_19  and  N_20
REMARK                            x       y       z     vdW  Elec       q    Type
REMARK                         _______ _______ _______ _____ _____    ______ ____
ROOT
ATOM      1  C   UNL     1      47.144   4.765  14.942  0.00  0.00    +0.000 A 
ATOM      2  C   UNL     1      47.890   5.934  14.468  0.00  0.00    +0.000 A 
ATOM      3  C   UNL     1      47.668   6.480  13.260  0.00  0.00    +0.000 A 
ATOM      4  C   UNL     1      46.692   5.912  12.395  0.00  0.00    +0.000 A 
ATOM      5  N   UNL     1      46.277   6.299  11.210  0.00  0.00    +0.000 NA
ATOM      6  C   UNL     1      45.338   5.374  10.846  0.00  0.00    +0.000 A 
ATOM      7  C   UNL     1      45.172   4.388  11.804  0.00  0.00    +0.000 A 
ATOM      8  N   UNL     1      46.030   4.766  12.831  0.00  0.00    +0.000 N 
ATOM      9  C   UNL     1      46.252   4.206  14.093  0.00  0.00    +0.000 A 
ENDROOT
BRANCH   7  10
ATOM     10  C   UNL     1      44.326   3.225  11.798  0.00  0.00    +0.000 C 
ATOM     11  N   UNL     1      44.335   2.474  10.656  0.00  0.00    +0.000 N 
ATOM     12  O   UNL     1      43.619   2.860  12.732  0.00  0.00    +0.000 OA
ATOM     13  H   UNL     1      44.905   2.669   9.850  0.00  0.00    +0.000 HD
ATOM     14  H   UNL     1      43.766   1.637  10.653  0.00  0.00    +0.000 HD
ENDBRANCH   7  10
BRANCH   1  16
ATOM     15  C   UNL     1      48.259   3.007  16.315  0.00  0.00    +0.000 C 
ATOM     16  C   UNL     1      47.366   4.261  16.366  0.00  0.00    +0.000 C 
BRANCH  16  17
ATOM     17  N   UNL     1      47.881   5.336  17.273  0.00  0.00    +0.000 NA
ATOM     18  C   UNL     1      46.994   5.466  18.453  0.00  0.00    +0.000 C 
ATOM     19  C   UNL     1      47.507   6.458  19.497  0.00  0.00    +0.000 C 
ATOM     20  C   UNL     1      48.922   6.112  19.967  0.00  0.00    +0.000 C 
ATOM     21  C   UNL     1      49.812   6.068  18.722  0.00  0.00    +0.000 C 
ATOM     22  C   UNL     1      49.281   5.097  17.662  0.00  0.00    +0.000 C 
BRANCH  20  23
ATOM     23  C   UNL     1      49.007   4.790  20.757  0.00  0.00    +0.000 C 
BRANCH  23  24
ATOM     24  N   UNL     1      50.381   4.453  21.114  0.00  0.00    +0.000 NA
ATOM     25  H   UNL     1      50.957   4.428  20.274  0.00  0.00    +0.000 HD
ATOM     26  H   UNL     1      50.407   3.512  21.507  0.00  0.00    +0.000 HD
ENDBRANCH  23  24
ENDBRANCH  20  23
ENDBRANCH  16  17
ENDBRANCH   1  16
TORSDOF 5
ENDMDL
MODEL 5
REMARK VINA RESULT:    -6.286      3.323      6.828
REMARK INTER + INTRA:          -7.995
REMARK INTER:                  -7.554
REMARK INTRA:                  -0.440
REMARK UNBOUND:                -0.055
REMARK  Name = 
REMARK  6 active torsions:
REMARK  status: ('A' for Active; 'I' for Inactive)
REMARK    1  A    between atoms: C_1  and  C_2
REMARK    2  A    between atoms: C_2  and  C_3
REMARK    3  A    between atoms: C_2  and  N_15
REMARK    4  A    between atoms: C_9  and  C_10
REMARK    5  A    between atoms: C_18  and  C_19
REMARK    6  A    between atoms: C_19  and  N_20
REMARK                            x       y       z     vdW  Elec       q    Type
REMARK                         _______ _______ _______ _____ _____    ______ ____
ROOT
ATOM      1  C   UNL     1      45.030   5.092  11.689  0.00  0.00    +0.000 A 
ATOM      2  C   UNL     1      44.050   6.117  11.321  0.00  0.00    +0.000 A 
ATOM      3  C   UNL     1      44.197   7.405  11.678  0.00  0.00    +0.000 A 
ATOM      4  C   UNL     1      45.325   7.802  12.448  0.00  0.00    +0.000 A 
ATOM      5  N   UNL     1      45.696   8.992  12.863  0.00  0.00    +0.000 NA
ATOM      6  C   UNL     1      46.849   8.777  13.566  0.00  0.00    +0.000 A 
ATOM      7  C   UNL     1      47.197   7.437  13.607  0.00  0.00    +0.000 A 
ATOM      8  N   UNL     1      46.221   6.810  12.841  0.00  0.00    +0.000 N 
ATOM      9  C   UNL     1      46.075   5.472  12.459  0.00  0.00    +0.000 A 
ENDROOT
BRANCH   7  10
ATOM     10  C   UNL     1      48.299   6.788  14.265  0.00  0.00    +0.000 C 
ATOM     11  N   UNL     1      48.047   6.270  15.505  0.00  0.00    +0.000 N 
ATOM     12  O   UNL     1      49.425   6.657  13.796  0.00  0.00    +0.000 OA
ATOM     13  H   UNL     1      47.149   6.295  15.960  0.00  0.00    +0.000 HD
ATOM     14  H   UNL     1      48.807   5.785  15.962  0.00  0.00    +0.000 HD
ENDBRANCH   7  10
BRANCH   1  16
ATOM     15  C   UNL     1      43.655   3.019  11.860  0.00  0.00    +0.000 C 
ATOM     16  C   UNL     1      44.862   3.670  11.158  0.00  0.00    +0.000 C 
BRANCH  16  17
ATOM     17  N   UNL     1      44.789   3.629   9.663  0.00  0.00    +0.000 NA
ATOM     18  C   UNL     1      45.893   4.431   9.083  0.00  0.00    +0.000 C 
ATOM     19  C   UNL     1      45.972   4.350   7.558  0.00  0.00    +0.000 C 
ATOM     20  C   UNL     1      46.090   2.904   7.069  0.00  0.00    +0.000 C 
ATOM     21  C   UNL     1      44.887   2.140   7.629  0.00  0.00    +0.000 C 
ATOM     22  C   UNL     1      44.790   2.247   9.154  0.00  0.00    +0.000 C 
BRANCH  20  23
ATOM     23  C   UNL     1      47.416   2.222   7.465  0.00  0.00    +0.000 C 
BRANCH  23  24
ATOM     24  N   UNL     1      47.960   1.413   6.380  0.00  0.00    +0.000 NA
ATOM     25  H   UNL     1      47.367   1.500   5.556  0.00  0.00    +0.000 HD
ATOM     26  H   UNL     1      47.936   0.430   6.647  0.00  0.00    +0.000 HD
ENDBRANCH  23  24
ENDBRANCH  20  23
ENDBRANCH  16  17
ENDBRANCH   1  16
TORSDOF 5
ENDMDL
MODEL 6
REMARK VINA RESULT:    -6.256      3.262      5.229
REMARK INTER + INTRA:          -7.956
REMARK INTER:                  -7.621
REMARK INTRA:                  -0.335
REMARK UNBOUND:                -0.055
REMARK  Name = 
REMARK  6 active torsions:
REMARK  status: ('A' for Active; 'I' for Inactive)
REMARK    1  A    between atoms: C_1  and  C_2
REMARK    2  A    between atoms: C_2  and  C_3
REMARK    3  A    between atoms: C_2  and  N_15
REMARK    4  A    between atoms: C_9  and  C_10
REMARK    5  A    between atoms: C_18  and  C_19
REMARK    6  A    between atoms: C_19  and  N_20
REMARK                            x       y       z     vdW  Elec       q    Type
REMARK                         _______ _______ _______ _____ _____    ______ ____
ROOT
ATOM      1  C   UNL     1      45.268   4.989  12.284  0.00  0.00    +0.000 A 
ATOM      2  C   UNL     1      44.256   4.119  12.888  0.00  0.00    +0.000 A 
ATOM      3  C   UNL     1      43.695   3.101  12.212  0.00  0.00    +0.000 A 
ATOM      4  C   UNL     1      44.071   2.855  10.863  0.00  0.00    +0.000 A 
ATOM      5  N   UNL     1      43.699   1.906  10.035  0.00  0.00    +0.000 NA
ATOM      6  C   UNL     1      44.368   2.168   8.872  0.00  0.00    +0.000 A 
ATOM      7  C   UNL     1      45.157   3.303   8.964  0.00  0.00    +0.000 A 
ATOM      8  N   UNL     1      44.990   3.724  10.279  0.00  0.00    +0.000 N 
ATOM      9  C   UNL     1      45.584   4.775  10.987  0.00  0.00    +0.000 A 
ENDROOT
BRANCH   7  10
ATOM     10  C   UNL     1      45.980   3.940   7.972  0.00  0.00    +0.000 C 
ATOM     11  N   UNL     1      46.271   3.202   6.859  0.00  0.00    +0.000 N 
ATOM     12  O   UNL     1      46.421   5.083   8.046  0.00  0.00    +0.000 OA
ATOM     13  H   UNL     1      45.929   2.270   6.688  0.00  0.00    +0.000 HD
ATOM     14  H   UNL     1      46.824   3.652   6.141  0.00  0.00    +0.000 HD
ENDBRANCH   7  10
BRANCH   1  16
ATOM     15  C   UNL     1      46.902   5.363  14.131  0.00  0.00    +0.000 C 
ATOM     16  C   UNL     1      45.947   6.056  13.140  0.00  0.00    +0.000 C 
BRANCH  16  17
ATOM     17  N   UNL     1      46.600   7.117  12.310  0.00  0.00    +0.000 NA
ATOM     18  C   UNL     1      46.206   8.457  12.805  0.00  0.00    +0.000 C 
ATOM     19  C   UNL     1      46.921   9.606  12.094  0.00  0.00    +0.000 C 
ATOM     20  C   UNL     1      48.444   9.468  12.173  0.00  0.00    +0.000 C 
ATOM     21  C   UNL     1      48.803   8.104  11.578  0.00  0.00    +0.000 C 
ATOM     22  C   UNL     1      48.063   6.955  12.270  0.00  0.00    +0.000 C 
BRANCH  20  23
ATOM     23  C   UNL     1      49.007   9.617  13.601  0.00  0.00    +0.000 C 
BRANCH  23  24
ATOM     24  N   UNL     1      48.403  10.738  14.313  0.00  0.00    +0.000 NA
ATOM     25  H   UNL     1      47.517  10.447  14.724  0.00  0.00    +0.000 HD
ATOM     26  H   UNL     1      48.181  11.479  13.650  0.00  0.00    +0.000 HD
ENDBRANCH  23  24
ENDBRANCH  20  23
ENDBRANCH  16  17
ENDBRANCH   1  16
TORSDOF 5
ENDMDL
MODEL 7
REMARK VINA RESULT:    -6.178      1.861      2.412
REMARK INTER + INTRA:          -7.859
REMARK INTER:                  -7.622
REMARK INTRA:                  -0.237
REMARK UNBOUND:                -0.055
REMARK  Name = 
REMARK  6 active torsions:
REMARK  status: ('A' for Active; 'I' for Inactive)
REMARK    1  A    between atoms: C_1  and  C_2
REMARK    2  A    between atoms: C_2  and  C_3
REMARK    3  A    between atoms: C_2  and  N_15
REMARK    4  A    between atoms: C_9  and  C_10
REMARK    5  A    between atoms: C_18  and  C_19
REMARK    6  A    between atoms: C_19  and  N_20
REMARK                            x       y       z     vdW  Elec       q    Type
REMARK                         _______ _______ _______ _____ _____    ______ ____
ROOT
ATOM      1  C   UNL     1      48.222   6.610  14.228  0.00  0.00    +0.000 A 
ATOM      2  C   UNL     1      48.463   7.695  13.274  0.00  0.00    +0.000 A 
ATOM      3  C   UNL     1      47.707   7.860  12.175  0.00  0.00    +0.000 A 
ATOM      4  C   UNL     1      46.643   6.955  11.906  0.00  0.00    +0.000 A 
ATOM      5  N   UNL     1      45.755   6.948  10.937  0.00  0.00    +0.000 NA
ATOM      6  C   UNL     1      44.984   5.843  11.172  0.00  0.00    +0.000 A 
ATOM      7  C   UNL     1      45.401   5.140  12.290  0.00  0.00    +0.000 A 
ATOM      8  N   UNL     1      46.458   5.892  12.789  0.00  0.00    +0.000 N 
ATOM      9  C   UNL     1      47.238   5.729  13.939  0.00  0.00    +0.000 A 
ENDROOT
BRANCH   7  10
ATOM     10  C   UNL     1      44.895   3.918  12.856  0.00  0.00    +0.000 C 
ATOM     11  N   UNL     1      45.733   2.839  12.817  0.00  0.00    +0.000 N 
ATOM     12  O   UNL     1      43.791   3.781  13.372  0.00  0.00    +0.000 OA
ATOM     13  H   UNL     1      46.670   2.858  12.447  0.00  0.00    +0.000 HD
ATOM     14  H   UNL     1      45.399   1.983  13.239  0.00  0.00    +0.000 HD
ENDBRANCH   7  10
BRANCH   1  16
ATOM     15  C   UNL     1      48.608   7.692  16.442  0.00  0.00    +0.000 C 
ATOM     16  C   UNL     1      49.047   6.544  15.512  0.00  0.00    +0.000 C 
BRANCH  16  17
ATOM     17  N   UNL     1      48.991   5.191  16.152  0.00  0.00    +0.000 NA
ATOM     18  C   UNL     1      50.209   4.970  16.967  0.00  0.00    +0.000 C 
ATOM     19  C   UNL     1      50.186   3.661  17.757  0.00  0.00    +0.000 C 
ATOM     20  C   UNL     1      48.953   3.560  18.658  0.00  0.00    +0.000 C 
ATOM     21  C   UNL     1      47.725   3.715  17.758  0.00  0.00    +0.000 C 
ATOM     22  C   UNL     1      47.762   5.012  16.943  0.00  0.00    +0.000 C 
BRANCH  20  23
ATOM     23  C   UNL     1      48.936   4.591  19.805  0.00  0.00    +0.000 C 
BRANCH  23  24
ATOM     24  N   UNL     1      48.355   4.043  21.025  0.00  0.00    +0.000 NA
ATOM     25  H   UNL     1      48.137   3.057  20.889  0.00  0.00    +0.000 HD
ATOM     26  H   UNL     1      47.467   4.508  21.215  0.00  0.00    +0.000 HD
ENDBRANCH  23  24
ENDBRANCH  20  23
ENDBRANCH  16  17
ENDBRANCH   1  16
TORSDOF 5
ENDMDL
MODEL 8
REMARK VINA RESULT:    -6.069      2.201      6.468
REMARK INTER + INTRA:          -7.720
REMARK INTER:                  -7.031
REMARK INTRA:                  -0.689
REMARK UNBOUND:                -0.055
REMARK  Name = 
REMARK  6 active torsions:
REMARK  status: ('A' for Active; 'I' for Inactive)
REMARK    1  A    between atoms: C_1  and  C_2
REMARK    2  A    between atoms: C_2  and  C_3
REMARK    3  A    between atoms: C_2  and  N_15
REMARK    4  A    between atoms: C_9  and  C_10
REMARK    5  A    between atoms: C_18  and  C_19
REMARK    6  A    between atoms: C_19  and  N_20
REMARK                            x       y       z     vdW  Elec       q    Type
REMARK                         _______ _______ _______ _____ _____    ______ ____
ROOT
ATOM      1  C   UNL     1      47.786   6.700  14.127  0.00  0.00    +0.000 A 
ATOM      2  C   UNL     1      49.015   7.469  13.915  0.00  0.00    +0.000 A 
ATOM      3  C   UNL     1      50.062   7.385  14.753  0.00  0.00    +0.000 A 
ATOM      4  C   UNL     1      49.990   6.540  15.895  0.00  0.00    +0.000 A 
ATOM      5  N   UNL     1      50.891   6.266  16.810  0.00  0.00    +0.000 NA
ATOM      6  C   UNL     1      50.271   5.404  17.670  0.00  0.00    +0.000 A 
ATOM      7  C   UNL     1      48.961   5.145  17.302  0.00  0.00    +0.000 A 
ATOM      8  N   UNL     1      48.795   5.858  16.119  0.00  0.00    +0.000 N 
ATOM      9  C   UNL     1      47.710   5.936  15.239  0.00  0.00    +0.000 A 
ENDROOT
BRANCH   7  10
ATOM     10  C   UNL     1      47.961   4.336  17.945  0.00  0.00    +0.000 C 
ATOM     11  N   UNL     1      47.002   5.004  18.653  0.00  0.00    +0.000 N 
ATOM     12  O   UNL     1      47.902   3.111  17.894  0.00  0.00    +0.000 OA
ATOM     13  H   UNL     1      46.943   6.007  18.727  0.00  0.00    +0.000 HD
ATOM     14  H   UNL     1      46.277   4.446  19.084  0.00  0.00    +0.000 HD
ENDBRANCH   7  10
BRANCH   1  16
ATOM     15  C   UNL     1      47.320   6.842  11.681  0.00  0.00    +0.000 C 
ATOM     16  C   UNL     1      46.677   6.756  13.079  0.00  0.00    +0.000 C 
BRANCH  16  17
ATOM     17  N   UNL     1      45.700   5.631  13.228  0.00  0.00    +0.000 NA
ATOM     18  C   UNL     1      44.336   6.099  12.884  0.00  0.00    +0.000 C 
ATOM     19  C   UNL     1      43.288   4.986  12.891  0.00  0.00    +0.000 C 
ATOM     20  C   UNL     1      43.673   3.833  11.961  0.00  0.00    +0.000 C 
ATOM     21  C   UNL     1      45.050   3.335  12.408  0.00  0.00    +0.000 C 
ATOM     22  C   UNL     1      46.094   4.456  12.431  0.00  0.00    +0.000 C 
BRANCH  20  23
ATOM     23  C   UNL     1      43.679   4.216  10.467  0.00  0.00    +0.000 C 
BRANCH  23  24
ATOM     24  N   UNL     1      43.937   3.067   9.608  0.00  0.00    +0.000 NA
ATOM     25  H   UNL     1      43.066   2.567   9.432  0.00  0.00    +0.000 HD
ATOM     26  H   UNL     1      44.549   2.412  10.094  0.00  0.00    +0.000 HD
ENDBRANCH  23  24
ENDBRANCH  20  23
ENDBRANCH  16  17
ENDBRANCH   1  16
TORSDOF 5
ENDMDL
MODEL 9
REMARK VINA RESULT:    -6.040      2.361      6.521
REMARK INTER + INTRA:          -7.683
REMARK INTER:                  -7.694
REMARK INTRA:                   0.011
REMARK UNBOUND:                -0.055
REMARK  Name = 
REMARK  6 active torsions:
REMARK  status: ('A' for Active; 'I' for Inactive)
REMARK    1  A    between atoms: C_1  and  C_2
REMARK    2  A    between atoms: C_2  and  C_3
REMARK    3  A    between atoms: C_2  and  N_15
REMARK    4  A    between atoms: C_9  and  C_10
REMARK    5  A    between atoms: C_18  and  C_19
REMARK    6  A    between atoms: C_19  and  N_20
REMARK                            x       y       z     vdW  Elec       q    Type
REMARK                         _______ _______ _______ _____ _____    ______ ____
ROOT
ATOM      1  C   UNL     1      46.890   5.695  13.472  0.00  0.00    +0.000 A 
ATOM      2  C   UNL     1      46.768   4.266  13.172  0.00  0.00    +0.000 A 
ATOM      3  C   UNL     1      47.117   3.319  14.061  0.00  0.00    +0.000 A 
ATOM      4  C   UNL     1      47.636   3.696  15.330  0.00  0.00    +0.000 A 
ATOM      5  N   UNL     1      47.991   2.959  16.358  0.00  0.00    +0.000 NA
ATOM      6  C   UNL     1      48.423   3.850  17.300  0.00  0.00    +0.000 A 
ATOM      7  C   UNL     1      48.355   5.160  16.854  0.00  0.00    +0.000 A 
ATOM      8  N   UNL     1      47.802   5.056  15.583  0.00  0.00    +0.000 N 
ATOM      9  C   UNL     1      47.426   6.041  14.663  0.00  0.00    +0.000 A 
ENDROOT
BRANCH   7  10
ATOM     10  C   UNL     1      48.743   6.381  17.508  0.00  0.00    +0.000 C 
ATOM     11  N   UNL     1      47.756   7.055  18.170  0.00  0.00    +0.000 N 
ATOM     12  O   UNL     1      49.879   6.844  17.525  0.00  0.00    +0.000 OA
ATOM     13  H   UNL     1      46.802   6.741  18.245  0.00  0.00    +0.000 HD
ATOM     14  H   UNL     1      48.025   7.899  18.659  0.00  0.00    +0.000 HD
ENDBRANCH   7  10
BRANCH   1  16
ATOM     15  C   UNL     1      47.466   6.972  11.408  0.00  0.00    +0.000 C 
ATOM     16  C   UNL     1      46.372   6.718  12.463  0.00  0.00    +0.000 C 
BRANCH  16  17
ATOM     17  N   UNL     1      45.050   6.321  11.882  0.00  0.00    +0.000 NA
ATOM     18  C   UNL     1      45.247   5.264  10.861  0.00  0.00    +0.000 C 
ATOM     19  C   UNL     1      43.939   4.709  10.297  0.00  0.00    +0.000 C 
ATOM     20  C   UNL     1      43.021   4.176  11.402  0.00  0.00    +0.000 C 
ATOM     21  C   UNL     1      42.787   5.327  12.384  0.00  0.00    +0.000 C 
ATOM     22  C   UNL     1      44.099   5.905  12.926  0.00  0.00    +0.000 C 
BRANCH  20  23
ATOM     23  C   UNL     1      43.577   2.933  12.124  0.00  0.00    +0.000 C 
BRANCH  23  24
ATOM     24  N   UNL     1      43.071   1.693  11.547  0.00  0.00    +0.000 NA
ATOM     25  H   UNL     1      42.924   1.815  10.546  0.00  0.00    +0.000 HD
ATOM     26  H   UNL     1      42.157   1.481  11.947  0.00  0.00    +0.000 HD
ENDBRANCH  23  24
ENDBRANCH  20  23
ENDBRANCH  16  17
ENDBRANCH   1  16
TORSDOF 5
ENDMDL
