MODEL 1
REMARK VINA RESULT:    -8.462      0.000      0.000
REMARK INTER + INTRA:         -10.426
REMARK INTER:                 -10.440
REMARK INTRA:                   0.015
REMARK UNBOUND:                 0.015
REMARK  Name = 
REMARK  5 active torsions:
REMARK  status: ('A' for Active; 'I' for Inactive)
REMARK    1  A    between atoms: C_1  and  C_2
REMARK    2  A    between atoms: C_5  and  C_6
REMARK    3  A    between atoms: C_6  and  N_7
REMARK    4  A    between atoms: N_7  and  C_8
REMARK    5  A    between atoms: C_11  and  C_12
REMARK                            x       y       z     vdW  Elec       q    Type
REMARK                         _______ _______ _______ _____ _____    ______ ____
ROOT
ATOM      1  N   UNL     1      43.765   4.715  10.022  0.00  0.00    +0.000 N 
ATOM      2  H   UNL     1      42.828   4.410   9.758  0.00  0.00    +0.000 HD
ENDROOT
BRANCH   1   3
ATOM      3  C   UNL     1      44.742   3.978   9.320  0.00  0.00    +0.000 A 
ATOM      4  C   UNL     1      45.635   4.534   8.401  0.00  0.00    +0.000 A 
ATOM      5  C   UNL     1      46.485   3.713   7.642  0.00  0.00    +0.000 A 
ATOM      6  C   UNL     1      46.449   2.322   7.789  0.00  0.00    +0.000 A 
ATOM      7  C   UNL     1      45.546   1.753   8.689  0.00  0.00    +0.000 A 
ATOM      8  C   UNL     1      44.699   2.577   9.434  0.00  0.00    +0.000 A 
BRANCH   6   9
ATOM      9  C   UNL     1      47.336   1.481   6.939  0.00  0.00    +0.000 C 
ATOM     10  N   UNL     1      48.402   2.096   6.339  0.00  0.00    +0.000 N 
ATOM     11  O   UNL     1      47.118   0.290   6.759  0.00  0.00    +0.000 OA
ATOM     12  H   UNL     1      48.489   3.099   6.269  0.00  0.00    +0.000 HD
ATOM     13  H   UNL     1      48.946   1.530   5.700  0.00  0.00    +0.000 HD
ENDBRANCH   6   9
ENDBRANCH   1   3
BRANCH   1  14
ATOM     14  C   UNL     1      43.838   5.028  11.477  0.00  0.00    +0.000 C 
ATOM     15  C   UNL     1      42.601   5.308  12.308  0.00  0.00    +0.000 C 
ATOM     16  C   UNL     1      43.212   3.947  12.364  0.00  0.00    +0.000 C 
BRANCH  14  21
ATOM     17  C   UNL     1      49.047   6.959  13.010  0.00  0.00    +0.000 C 
ATOM     18  C   UNL     1      47.684   6.471  12.661  0.00  0.00    +0.000 A 
ATOM     19  C   UNL     1      47.098   5.378  13.257  0.00  0.00    +0.000 A 
ATOM     20  N   UNL     1      45.881   4.904  12.926  0.00  0.00    +0.000 NA
ATOM     21  C   UNL     1      45.209   5.554  11.951  0.00  0.00    +0.000 A 
ATOM     22  N   UNL     1      45.698   6.656  11.327  0.00  0.00    +0.000 NA
ATOM     23  C   UNL     1      46.919   7.081  11.694  0.00  0.00    +0.000 A 
ENDBRANCH  14  21
ENDBRANCH   1  14
TORSDOF 4
ENDMDL
MODEL 2
REMARK VINA RESULT:    -7.335      3.288      6.619
REMARK INTER + INTRA:          -9.035
REMARK INTER:                  -8.774
REMARK INTRA:                  -0.262
REMARK UNBOUND:                 0.015
REMARK  Name = 
REMARK  5 active torsions:
REMARK  status: ('A' for Active; 'I' for Inactive)
REMARK    1  A    between atoms: C_1  and  C_2
REMARK    2  A    between atoms: C_5  and  C_6
REMARK    3  A    between atoms: C_6  and  N_7
REMARK    4  A    between atoms: N_7  and  C_8
REMARK    5  A    between atoms: C_11  and  C_12
REMARK                            x       y       z     vdW  Elec       q    Type
REMARK                         _______ _______ _______ _____ _____    ______ ____
ROOT
ATOM      1  N   UNL     1      44.586   5.947  10.648  0.00  0.00    +0.000 N 
ATOM      2  H   UNL     1      44.527   6.290   9.689  0.00  0.00    +0.000 HD
ENDROOT
BRANCH   1   3
ATOM      3  C   UNL     1      45.466   6.747  11.407  0.00  0.00    +0.000 A 
ATOM      4  C   UNL     1      46.759   6.362  11.772  0.00  0.00    +0.000 A 
ATOM      5  C   UNL     1      47.522   7.155  12.643  0.00  0.00    +0.000 A 
ATOM      6  C   UNL     1      47.001   8.345  13.166  0.00  0.00    +0.000 A 
ATOM      7  C   UNL     1      45.702   8.728  12.825  0.00  0.00    +0.000 A 
ATOM      8  C   UNL     1      44.947   7.928  11.963  0.00  0.00    +0.000 A 
BRANCH   6   9
ATOM      9  C   UNL     1      47.824   9.140  14.118  0.00  0.00    +0.000 C 
ATOM     10  N   UNL     1      47.553   9.001  15.452  0.00  0.00    +0.000 N 
ATOM     11  O   UNL     1      48.696   9.907  13.733  0.00  0.00    +0.000 OA
ATOM     12  H   UNL     1      46.710   8.570  15.800  0.00  0.00    +0.000 HD
ATOM     13  H   UNL     1      48.065   9.609  16.080  0.00  0.00    +0.000 HD
ENDBRANCH   6   9
ENDBRANCH   1   3
BRANCH   1  14
ATOM     14  C   UNL     1      44.564   4.458  10.687  0.00  0.00    +0.000 C 
ATOM     15  C   UNL     1      44.400   3.684  11.981  0.00  0.00    +0.000 C 
ATOM     16  C   UNL     1      43.208   3.880  11.104  0.00  0.00    +0.000 C 
BRANCH  14  21
ATOM     17  C   UNL     1      47.203   1.810   6.302  0.00  0.00    +0.000 C 
ATOM     18  C   UNL     1      46.485   2.510   7.402  0.00  0.00    +0.000 A 
ATOM     19  C   UNL     1      46.324   3.875   7.450  0.00  0.00    +0.000 A 
ATOM     20  N   UNL     1      45.708   4.525   8.457  0.00  0.00    +0.000 NA
ATOM     21  C   UNL     1      45.224   3.775   9.471  0.00  0.00    +0.000 A 
ATOM     22  N   UNL     1      45.315   2.421   9.495  0.00  0.00    +0.000 NA
ATOM     23  C   UNL     1      45.943   1.826   8.467  0.00  0.00    +0.000 A 
ENDBRANCH  14  21
ENDBRANCH   1  14
TORSDOF 4
ENDMDL
MODEL 3
REMARK VINA RESULT:    -7.108      3.029      6.249
REMARK INTER + INTRA:          -8.756
REMARK INTER:                  -8.322
REMARK INTRA:                  -0.434
REMARK UNBOUND:                 0.015
REMARK  Name = 
REMARK  5 active torsions:
REMARK  status: ('A' for Active; 'I' for Inactive)
REMARK    1  A    between atoms: C_1  and  C_2
REMARK    2  A    between atoms: C_5  and  C_6
REMARK    3  A    between atoms: C_6  and  N_7
REMARK    4  A    between atoms: N_7  and  C_8
REMARK    5  A    between atoms: C_11  and  C_12
REMARK                            x       y       z     vdW  Elec       q    Type
REMARK                         _______ _______ _______ _____ _____    ______ ____
ROOT
ATOM      1  N   UNL     1      45.029   5.702  11.391  0.00  0.00    +0.000 N 
ATOM      2  H   UNL     1      44.958   6.365  10.619  0.00  0.00    +0.000 HD
ENDROOT
BRANCH   1   3
ATOM      3  C   UNL     1      46.216   5.919  12.122  0.00  0.00    +0.000 A 
ATOM      4  C   UNL     1      46.446   5.428  13.410  0.00  0.00    +0.000 A 
ATOM      5  C   UNL     1      47.596   5.801  14.124  0.00  0.00    +0.000 A 
ATOM      6  C   UNL     1      48.531   6.676  13.560  0.00  0.00    +0.000 A 
ATOM      7  C   UNL     1      48.301   7.191  12.284  0.00  0.00    +0.000 A 
ATOM      8  C   UNL     1      47.151   6.820  11.583  0.00  0.00    +0.000 A 
BRANCH   6   9
ATOM      9  C   UNL     1      49.718   7.082  14.363  0.00  0.00    +0.000 C 
ATOM     10  N   UNL     1      50.638   7.896  13.760  0.00  0.00    +0.000 N 
ATOM     11  O   UNL     1      49.887   6.690  15.509  0.00  0.00    +0.000 OA
ATOM     12  H   UNL     1      50.663   8.054  12.763  0.00  0.00    +0.000 HD
ATOM     13  H   UNL     1      51.478   8.095  14.289  0.00  0.00    +0.000 HD
ENDBRANCH   6   9
ENDBRANCH   1   3
BRANCH   1  14
ATOM     14  C   UNL     1      44.525   4.358  10.993  0.00  0.00    +0.000 C 
ATOM     15  C   UNL     1      43.896   3.402  11.988  0.00  0.00    +0.000 C 
ATOM     16  C   UNL     1      43.004   4.218  11.113  0.00  0.00    +0.000 C 
BRANCH  14  21
ATOM     17  C   UNL     1      46.984   2.183   6.257  0.00  0.00    +0.000 C 
ATOM     18  C   UNL     1      46.311   2.764   7.451  0.00  0.00    +0.000 A 
ATOM     19  C   UNL     1      46.154   4.117   7.646  0.00  0.00    +0.000 A 
ATOM     20  N   UNL     1      45.579   4.658   8.738  0.00  0.00    +0.000 NA
ATOM     21  C   UNL     1      45.135   3.806   9.688  0.00  0.00    +0.000 A 
ATOM     22  N   UNL     1      45.225   2.457   9.569  0.00  0.00    +0.000 NA
ATOM     23  C   UNL     1      45.812   1.973   8.461  0.00  0.00    +0.000 A 
ENDBRANCH  14  21
ENDBRANCH   1  14
TORSDOF 4
ENDMDL
MODEL 4
REMARK VINA RESULT:    -7.048      3.083      6.559
REMARK INTER + INTRA:          -8.682
REMARK INTER:                  -8.511
REMARK INTRA:                  -0.171
REMARK UNBOUND:                 0.015
REMARK  Name = 
REMARK  5 active torsions:
REMARK  status: ('A' for Active; 'I' for Inactive)
REMARK    1  A    between atoms: C_1  and  C_2
REMARK    2  A    between atoms: C_5  and  C_6
REMARK    3  A    between atoms: C_6  and  N_7
REMARK    4  A    between atoms: N_7  and  C_8
REMARK    5  A    between atoms: C_11  and  C_12
REMARK                            x       y       z     vdW  Elec       q    Type
REMARK                         _______ _______ _______ _____ _____    ______ ____
ROOT
ATOM      1  N   UNL     1      45.334   5.673  11.454  0.00  0.00    +0.000 N 
ATOM      2  H   UNL     1      45.785   6.209  10.713  0.00  0.00    +0.000 HD
ENDROOT
BRANCH   1   3
ATOM      3  C   UNL     1      46.181   5.572  12.578  0.00  0.00    +0.000 A 
ATOM      4  C   UNL     1      46.044   4.608  13.580  0.00  0.00    +0.000 A 
ATOM      5  C   UNL     1      46.840   4.658  14.735  0.00  0.00    +0.000 A 
ATOM      6  C   UNL     1      47.784   5.678  14.906  0.00  0.00    +0.000 A 
ATOM      7  C   UNL     1      47.915   6.659  13.922  0.00  0.00    +0.000 A 
ATOM      8  C   UNL     1      47.113   6.605  12.779  0.00  0.00    +0.000 A 
BRANCH   6   9
ATOM      9  C   UNL     1      48.583   5.722  16.162  0.00  0.00    +0.000 C 
ATOM     10  N   UNL     1      47.898   5.671  17.346  0.00  0.00    +0.000 N 
ATOM     11  O   UNL     1      49.802   5.822  16.149  0.00  0.00    +0.000 OA
ATOM     12  H   UNL     1      46.902   5.821  17.412  0.00  0.00    +0.000 HD
ATOM     13  H   UNL     1      48.448   5.785  18.188  0.00  0.00    +0.000 HD
ENDBRANCH   6   9
ENDBRANCH   1   3
BRANCH   1  14
ATOM     14  C   UNL     1      44.550   4.537  10.893  0.00  0.00    +0.000 C 
ATOM     15  C   UNL     1      43.558   3.748  11.726  0.00  0.00    +0.000 C 
ATOM     16  C   UNL     1      43.045   4.816  10.817  0.00  0.00    +0.000 C 
BRANCH  14  21
ATOM     17  C   UNL     1      47.014   2.027   6.328  0.00  0.00    +0.000 C 
ATOM     18  C   UNL     1      46.341   2.695   7.476  0.00  0.00    +0.000 A 
ATOM     19  C   UNL     1      46.251   4.062   7.607  0.00  0.00    +0.000 A 
ATOM     20  N   UNL     1      45.677   4.680   8.657  0.00  0.00    +0.000 NA
ATOM     21  C   UNL     1      45.164   3.896   9.631  0.00  0.00    +0.000 A 
ATOM     22  N   UNL     1      45.185   2.540   9.574  0.00  0.00    +0.000 NA
ATOM     23  C   UNL     1      45.774   1.978   8.504  0.00  0.00    +0.000 A 
ENDBRANCH  14  21
ENDBRANCH   1  14
TORSDOF 4
ENDMDL
MODEL 5
REMARK VINA RESULT:    -6.488      2.843      4.723
REMARK INTER + INTRA:          -7.990
REMARK INTER:                  -7.936
REMARK INTRA:                  -0.054
REMARK UNBOUND:                 0.015
REMARK  Name = 
REMARK  5 active torsions:
REMARK  status: ('A' for Active; 'I' for Inactive)
REMARK    1  A    between atoms: C_1  and  C_2
REMARK    2  A    between atoms: C_5  and  C_6
REMARK    3  A    between atoms: C_6  and  N_7
REMARK    4  A    between atoms: N_7  and  C_8
REMARK    5  A    between atoms: C_11  and  C_12
REMARK                            x       y       z     vdW  Elec       q    Type
REMARK                         _______ _______ _______ _____ _____    ______ ____
ROOT
ATOM      1  N   UNL     1      46.081   6.147  13.509  0.00  0.00    +0.000 N 
ATOM      2  H   UNL     1      45.466   6.081  14.320  0.00  0.00    +0.000 HD
ENDROOT
BRANCH   1   3
ATOM      3  C   UNL     1      45.601   5.338  12.457  0.00  0.00    +0.000 A 
ATOM      4  C   UNL     1      45.225   4.001  12.604  0.00  0.00    +0.000 A 
ATOM      5  C   UNL     1      44.889   3.224  11.484  0.00  0.00    +0.000 A 
ATOM      6  C   UNL     1      44.930   3.774  10.197  0.00  0.00    +0.000 A 
ATOM      7  C   UNL     1      45.326   5.103  10.036  0.00  0.00    +0.000 A 
ATOM      8  C   UNL     1      45.666   5.866  11.156  0.00  0.00    +0.000 A 
BRANCH   6   9
ATOM      9  C   UNL     1      44.607   2.909   9.030  0.00  0.00    +0.000 C 
ATOM     10  N   UNL     1      44.353   3.530   7.837  0.00  0.00    +0.000 N 
ATOM     11  O   UNL     1      44.545   1.691   9.126  0.00  0.00    +0.000 OA
ATOM     12  H   UNL     1      44.166   4.519   7.761  0.00  0.00    +0.000 HD
ATOM     13  H   UNL     1      44.054   2.934   7.075  0.00  0.00    +0.000 HD
ENDBRANCH   6   9
ENDBRANCH   1   3
BRANCH   1  14
ATOM     14  C   UNL     1      47.510   6.220  13.923  0.00  0.00    +0.000 C 
ATOM     15  C   UNL     1      48.618   6.575  12.950  0.00  0.00    +0.000 C 
ATOM     16  C   UNL     1      48.091   7.636  13.858  0.00  0.00    +0.000 C 
BRANCH  14  21
ATOM     17  C   UNL     1      48.539   3.339  18.807  0.00  0.00    +0.000 C 
ATOM     18  C   UNL     1      48.318   4.065  17.526  0.00  0.00    +0.000 A 
ATOM     19  C   UNL     1      49.128   5.087  17.088  0.00  0.00    +0.000 A 
ATOM     20  N   UNL     1      48.919   5.777  15.950  0.00  0.00    +0.000 NA
ATOM     21  C   UNL     1      47.846   5.431  15.206  0.00  0.00    +0.000 A 
ATOM     22  N   UNL     1      47.007   4.419  15.547  0.00  0.00    +0.000 NA
ATOM     23  C   UNL     1      47.262   3.769  16.695  0.00  0.00    +0.000 A 
ENDBRANCH  14  21
ENDBRANCH   1  14
TORSDOF 4
ENDMDL
MODEL 6
REMARK VINA RESULT:    -6.110      3.143      5.279
REMARK INTER + INTRA:          -7.524
REMARK INTER:                  -7.082
REMARK INTRA:                  -0.442
REMARK UNBOUND:                 0.015
REMARK  Name = 
REMARK  5 active torsions:
REMARK  status: ('A' for Active; 'I' for Inactive)
REMARK    1  A    between atoms: C_1  and  C_2
REMARK    2  A    between atoms: C_5  and  C_6
REMARK    3  A    between atoms: C_6  and  N_7
REMARK    4  A    between atoms: N_7  and  C_8
REMARK    5  A    between atoms: C_11  and  C_12
REMARK                            x       y       z     vdW  Elec       q    Type
REMARK                         _______ _______ _______ _____ _____    ______ ____
ROOT
ATOM      1  N   UNL     1      46.701   7.610  12.738  0.00  0.00    +0.000 N 
ATOM      2  H   UNL     1      46.198   8.183  13.416  0.00  0.00    +0.000 HD
ENDROOT
BRANCH   1   3
ATOM      3  C   UNL     1      45.934   6.482  12.378  0.00  0.00    +0.000 A 
ATOM      4  C   UNL     1      45.485   5.516  13.282  0.00  0.00    +0.000 A 
ATOM      5  C   UNL     1      44.845   4.352  12.828  0.00  0.00    +0.000 A 
ATOM      6  C   UNL     1      44.648   4.135  11.459  0.00  0.00    +0.000 A 
ATOM      7  C   UNL     1      45.112   5.083  10.545  0.00  0.00    +0.000 A 
ATOM      8  C   UNL     1      45.754   6.234  11.006  0.00  0.00    +0.000 A 
BRANCH   6   9
ATOM      9  C   UNL     1      44.002   2.871  11.012  0.00  0.00    +0.000 C 
ATOM     10  N   UNL     1      44.558   2.223   9.942  0.00  0.00    +0.000 N 
ATOM     11  O   UNL     1      42.999   2.431  11.557  0.00  0.00    +0.000 OA
ATOM     12  H   UNL     1      45.229   2.656   9.326  0.00  0.00    +0.000 HD
ATOM     13  H   UNL     1      44.059   1.412   9.600  0.00  0.00    +0.000 HD
ENDBRANCH   6   9
ENDBRANCH   1   3
BRANCH   1  14
ATOM     14  C   UNL     1      48.158   7.566  13.048  0.00  0.00    +0.000 C 
ATOM     15  C   UNL     1      49.185   7.080  12.043  0.00  0.00    +0.000 C 
ATOM     16  C   UNL     1      48.986   8.549  12.215  0.00  0.00    +0.000 C 
BRANCH  14  21
ATOM     17  C   UNL     1      49.231   7.270  18.702  0.00  0.00    +0.000 C 
ATOM     18  C   UNL     1      48.992   7.380  17.237  0.00  0.00    +0.000 A 
ATOM     19  C   UNL     1      48.569   8.538  16.626  0.00  0.00    +0.000 A 
ATOM     20  N   UNL     1      48.314   8.643  15.307  0.00  0.00    +0.000 NA
ATOM     21  C   UNL     1      48.492   7.536  14.554  0.00  0.00    +0.000 A 
ATOM     22  N   UNL     1      48.932   6.358  15.066  0.00  0.00    +0.000 NA
ATOM     23  C   UNL     1      49.165   6.310  16.389  0.00  0.00    +0.000 A 
ENDBRANCH  14  21
ENDBRANCH   1  14
TORSDOF 4
ENDMDL
MODEL 7
REMARK VINA RESULT:    -5.842      3.377      6.561
REMARK INTER + INTRA:          -7.193
REMARK INTER:                  -7.663
REMARK INTRA:                   0.470
REMARK UNBOUND:                 0.015
REMARK  Name = 
REMARK  5 active torsions:
REMARK  status: ('A' for Active; 'I' for Inactive)
REMARK    1  A    between atoms: C_1  and  C_2
REMARK    2  A    between atoms: C_5  and  C_6
REMARK    3  A    between atoms: C_6  and  N_7
REMARK    4  A    between atoms: N_7  and  C_8
REMARK    5  A    between atoms: C_11  and  C_12
REMARK                            x       y       z     vdW  Elec       q    Type
REMARK                         _______ _______ _______ _____ _____    ______ ____
ROOT
ATOM      1  N   UNL     1      45.569   3.894  13.338  0.00  0.00    +0.000 N 
ATOM      2  H   UNL     1      45.205   3.266  14.054  0.00  0.00    +0.000 HD
ENDROOT
BRANCH   1   3
ATOM      3  C   UNL     1      46.510   4.787  13.893  0.00  0.00    +0.000 A 
ATOM      4  C   UNL     1      47.120   5.826  13.186  0.00  0.00    +0.000 A 
ATOM      5  C   UNL     1      48.147   6.583  13.770  0.00  0.00    +0.000 A 
ATOM      6  C   UNL     1      48.582   6.309  15.072  0.00  0.00    +0.000 A 
ATOM      7  C   UNL     1      47.996   5.260  15.781  0.00  0.00    +0.000 A 
ATOM      8  C   UNL     1      46.979   4.506  15.188  0.00  0.00    +0.000 A 
BRANCH   6   9
ATOM      9  C   UNL     1      49.701   7.108  15.645  0.00  0.00    +0.000 C 
ATOM     10  N   UNL     1      50.618   6.445  16.414  0.00  0.00    +0.000 N 
ATOM     11  O   UNL     1      49.794   8.314  15.459  0.00  0.00    +0.000 OA
ATOM     12  H   UNL     1      50.461   5.518  16.781  0.00  0.00    +0.000 HD
ATOM     13  H   UNL     1      51.324   7.016  16.862  0.00  0.00    +0.000 HD
ENDBRANCH   6   9
ENDBRANCH   1   3
BRANCH   1  14
ATOM     14  C   UNL     1      44.499   4.295  12.382  0.00  0.00    +0.000 C 
ATOM     15  C   UNL     1      43.042   4.395  12.793  0.00  0.00    +0.000 C 
ATOM     16  C   UNL     1      43.856   5.644  12.719  0.00  0.00    +0.000 C 
BRANCH  14  21
ATOM     17  C   UNL     1      46.007   3.356   6.900  0.00  0.00    +0.000 C 
ATOM     18  C   UNL     1      45.581   3.632   8.299  0.00  0.00    +0.000 A 
ATOM     19  C   UNL     1      45.728   4.859   8.905  0.00  0.00    +0.000 A 
ATOM     20  N   UNL     1      45.381   5.113  10.182  0.00  0.00    +0.000 NA
ATOM     21  C   UNL     1      44.858   4.092  10.895  0.00  0.00    +0.000 A 
ATOM     22  N   UNL     1      44.654   2.856  10.373  0.00  0.00    +0.000 NA
ATOM     23  C   UNL     1      45.023   2.658   9.095  0.00  0.00    +0.000 A 
ENDBRANCH  14  21
ENDBRANCH   1  14
TORSDOF 4
ENDMDL
