MODEL 1
REMARK VINA RESULT:    -8.621      0.000      0.000
REMARK INTER + INTRA:         -13.338
REMARK INTER:                 -12.401
REMARK INTRA:                  -0.937
REMARK UNBOUND:                -0.937
REMARK  Name = 
REMARK  8 active torsions:
REMARK  status: ('A' for Active; 'I' for Inactive)
REMARK    1  A    between atoms: N_1  and  C_2
REMARK    2  A    between atoms: C_2  and  C_3
REMARK    3  A    between atoms: C_3  and  N_4
REMARK    4  A    between atoms: C_3  and  C_17
REMARK    5  A    between atoms: C_5  and  C_7
REMARK    6  A    between atoms: C_20  and  O_21
REMARK    7  A    between atoms: O_21  and  C_22
REMARK    8  A    between atoms: C_22  and  C_23
REMARK                            x       y       z     vdW  Elec       q    Type
REMARK                         _______ _______ _______ _____ _____    ______ ____
ROOT
ATOM      1  C   UNL     1      46.505   7.828  12.791  0.00  0.00    +0.000 C 
ENDROOT
BRANCH   1   2
ATOM      2  C   UNL     1      45.937   6.687  11.952  0.00  0.00    +0.000 A 
ATOM      3  C   UNL     1      44.939   5.850  12.468  0.00  0.00    +0.000 A 
ATOM      4  C   UNL     1      44.355   4.866  11.663  0.00  0.00    +0.000 A 
ATOM      5  C   UNL     1      44.748   4.720  10.332  0.00  0.00    +0.000 A 
ATOM      6  C   UNL     1      45.791   5.498   9.834  0.00  0.00    +0.000 A 
ATOM      7  C   UNL     1      46.370   6.482  10.631  0.00  0.00    +0.000 A 
BRANCH   5   8
ATOM      8  O   UNL     1      44.046   3.807   9.591  0.00  0.00    +0.000 OA
BRANCH   8   9
ATOM      9  C   UNL     1      44.629   2.496   9.572  0.00  0.00    +0.000 C 
BRANCH   9  10
ATOM     10  C   UNL     1      45.565   2.309   8.402  0.00  0.00    +0.000 A 
ATOM     11  C   UNL     1      45.687   3.274   7.407  0.00  0.00    +0.000 A 
ATOM     12  C   UNL     1      46.548   3.032   6.341  0.00  0.00    +0.000 A 
ATOM     13  C   UNL     1      47.253   1.835   6.288  0.00  0.00    +0.000 A 
ATOM     14  C   UNL     1      47.063   0.920   7.307  0.00  0.00    +0.000 A 
ATOM     15  N   UNL     1      46.234   1.126   8.352  0.00  0.00    +0.000 NA
ENDBRANCH   9  10
ENDBRANCH   8   9
ENDBRANCH   5   8
ENDBRANCH   1   2
BRANCH   1  16
ATOM     16  N   UNL     1      47.057   7.245  14.004  0.00  0.00    +0.000 N 
ATOM     17  C   UNL     1      48.318   6.729  14.122  0.00  0.00    +0.000 C 
ATOM     18  O   UNL     1      49.071   6.574  13.168  0.00  0.00    +0.000 OA
ATOM     19  H   UNL     1      46.556   7.476  14.850  0.00  0.00    +0.000 HD
BRANCH  17  20
ATOM     20  C   UNL     1      48.685   6.313  15.484  0.00  0.00    +0.000 A 
ATOM     21  C   UNL     1      49.609   7.040  16.220  0.00  0.00    +0.000 A 
ATOM     22  S   UNL     1      49.954   6.350  17.744  0.00  0.00    +0.000 S 
ATOM     23  C   UNL     1      48.854   5.076  17.485  0.00  0.00    +0.000 A 
ATOM     24  N   UNL     1      48.672   4.098  18.415  0.00  0.00    +0.000 NA
ATOM     25  C   UNL     1      47.800   3.204  18.089  0.00  0.00    +0.000 A 
ATOM     26  N   UNL     1      47.077   3.208  16.924  0.00  0.00    +0.000 N 
ATOM     27  C   UNL     1      47.226   4.172  15.958  0.00  0.00    +0.000 A 
ATOM     28  O   UNL     1      46.572   4.133  14.919  0.00  0.00    +0.000 OA
ATOM     29  C   UNL     1      48.220   5.184  16.261  0.00  0.00    +0.000 A 
ATOM     30  H   UNL     1      46.405   2.481  16.730  0.00  0.00    +0.000 HD
ENDBRANCH  17  20
ENDBRANCH   1  16
BRANCH   1  31
ATOM     31  C   UNL     1      45.418   8.888  13.138  0.00  0.00    +0.000 C 
BRANCH  31  32
ATOM     32  N   UNL     1      44.594   9.309  11.997  0.00  0.00    +0.000 NA
ATOM     33  H   UNL     1      44.405   8.499  11.408  0.00  0.00    +0.000 HD
ATOM     34  H   UNL     1      45.126   9.960  11.417  0.00  0.00    +0.000 HD
ENDBRANCH  31  32
ENDBRANCH   1  31
TORSDOF 8
ENDMDL
MODEL 2
REMARK VINA RESULT:    -8.247      2.166      2.875
REMARK INTER + INTRA:         -12.800
REMARK INTER:                 -11.586
REMARK INTRA:                  -1.214
REMARK UNBOUND:                -0.937
REMARK  Name = 
REMARK  8 active torsions:
REMARK  status: ('A' for Active; 'I' for Inactive)
REMARK    1  A    between atoms: N_1  and  C_2
REMARK    2  A    between atoms: C_2  and  C_3
REMARK    3  A    between atoms: C_3  and  N_4
REMARK    4  A    between atoms: C_3  and  C_17
REMARK    5  A    between atoms: C_5  and  C_7
REMARK    6  A    between atoms: C_20  and  O_21
REMARK    7  A    between atoms: O_21  and  C_22
REMARK    8  A    between atoms: C_22  and  C_23
REMARK                            x       y       z     vdW  Elec       q    Type
REMARK                         _______ _______ _______ _____ _____    ______ ____
ROOT
ATOM      1  C   UNL     1      47.898   6.800  13.553  0.00  0.00    +0.000 C 
ENDROOT
BRANCH   1   2
ATOM      2  C   UNL     1      46.828   5.996  12.821  0.00  0.00    +0.000 A 
ATOM      3  C   UNL     1      46.259   6.478  11.636  0.00  0.00    +0.000 A 
ATOM      4  C   UNL     1      45.348   5.695  10.918  0.00  0.00    +0.000 A 
ATOM      5  C   UNL     1      45.010   4.417  11.368  0.00  0.00    +0.000 A 
ATOM      6  C   UNL     1      45.515   3.961  12.584  0.00  0.00    +0.000 A 
ATOM      7  C   UNL     1      46.426   4.736  13.296  0.00  0.00    +0.000 A 
BRANCH   5   8
ATOM      8  O   UNL     1      44.198   3.682  10.545  0.00  0.00    +0.000 OA
BRANCH   8   9
ATOM      9  C   UNL     1      44.258   4.070   9.165  0.00  0.00    +0.000 C 
BRANCH   9  10
ATOM     10  C   UNL     1      45.299   3.287   8.401  0.00  0.00    +0.000 A 
ATOM     11  C   UNL     1      45.540   1.943   8.671  0.00  0.00    +0.000 A 
ATOM     12  C   UNL     1      46.529   1.282   7.949  0.00  0.00    +0.000 A 
ATOM     13  C   UNL     1      47.257   1.977   6.990  0.00  0.00    +0.000 A 
ATOM     14  C   UNL     1      46.968   3.315   6.794  0.00  0.00    +0.000 A 
ATOM     15  N   UNL     1      46.017   3.983   7.479  0.00  0.00    +0.000 NA
ENDBRANCH   9  10
ENDBRANCH   8   9
ENDBRANCH   5   8
ENDBRANCH   1   2
BRANCH   1  16
ATOM     16  N   UNL     1      47.952   6.311  14.922  0.00  0.00    +0.000 N 
ATOM     17  C   UNL     1      49.064   6.333  15.718  0.00  0.00    +0.000 C 
ATOM     18  O   UNL     1      50.177   6.641  15.308  0.00  0.00    +0.000 OA
ATOM     19  H   UNL     1      47.052   6.190  15.364  0.00  0.00    +0.000 HD
BRANCH  17  20
ATOM     20  C   UNL     1      48.833   5.898  17.104  0.00  0.00    +0.000 A 
ATOM     21  C   UNL     1      49.026   4.574  17.469  0.00  0.00    +0.000 A 
ATOM     22  S   UNL     1      48.631   4.257  19.101  0.00  0.00    +0.000 S 
ATOM     23  C   UNL     1      48.223   5.886  19.382  0.00  0.00    +0.000 A 
ATOM     24  N   UNL     1      47.778   6.305  20.599  0.00  0.00    +0.000 NA
ATOM     25  C   UNL     1      47.517   7.567  20.670  0.00  0.00    +0.000 A 
ATOM     26  N   UNL     1      47.679   8.456  19.639  0.00  0.00    +0.000 N 
ATOM     27  C   UNL     1      48.125   8.081  18.395  0.00  0.00    +0.000 A 
ATOM     28  O   UNL     1      48.242   8.904  17.490  0.00  0.00    +0.000 OA
ATOM     29  C   UNL     1      48.401   6.664  18.252  0.00  0.00    +0.000 A 
ATOM     30  H   UNL     1      47.462   9.433  19.759  0.00  0.00    +0.000 HD
ENDBRANCH  17  20
ENDBRANCH   1  16
BRANCH   1  31
ATOM     31  C   UNL     1      47.591   8.327  13.529  0.00  0.00    +0.000 C 
BRANCH  31  32
ATOM     32  N   UNL     1      47.126   8.873  14.812  0.00  0.00    +0.000 NA
ATOM     33  H   UNL     1      47.826   9.521  15.170  0.00  0.00    +0.000 HD
ATOM     34  H   UNL     1      47.063   8.119  15.498  0.00  0.00    +0.000 HD
ENDBRANCH  31  32
ENDBRANCH   1  31
TORSDOF 8
ENDMDL
MODEL 3
REMARK VINA RESULT:    -8.050      1.722      2.165
REMARK INTER + INTRA:         -12.517
REMARK INTER:                 -11.460
REMARK INTRA:                  -1.057
REMARK UNBOUND:                -0.937
REMARK  Name = 
REMARK  8 active torsions:
REMARK  status: ('A' for Active; 'I' for Inactive)
REMARK    1  A    between atoms: N_1  and  C_2
REMARK    2  A    between atoms: C_2  and  C_3
REMARK    3  A    between atoms: C_3  and  N_4
REMARK    4  A    between atoms: C_3  and  C_17
REMARK    5  A    between atoms: C_5  and  C_7
REMARK    6  A    between atoms: C_20  and  O_21
REMARK    7  A    between atoms: O_21  and  C_22
REMARK    8  A    between atoms: C_22  and  C_23
REMARK                            x       y       z     vdW  Elec       q    Type
REMARK                         _______ _______ _______ _____ _____    ______ ____
ROOT
ATOM      1  C   UNL     1      48.112   7.026  13.488  0.00  0.00    +0.000 C 
ENDROOT
BRANCH   1   2
ATOM      2  C   UNL     1      47.050   6.119  12.875  0.00  0.00    +0.000 A 
ATOM      3  C   UNL     1      46.433   6.460  11.665  0.00  0.00    +0.000 A 
ATOM      4  C   UNL     1      45.529   5.580  11.058  0.00  0.00    +0.000 A 
ATOM      5  C   UNL     1      45.247   4.345  11.644  0.00  0.00    +0.000 A 
ATOM      6  C   UNL     1      45.800   4.031  12.884  0.00  0.00    +0.000 A 
ATOM      7  C   UNL     1      46.704   4.902  13.486  0.00  0.00    +0.000 A 
BRANCH   5   8
ATOM      8  O   UNL     1      44.438   3.506  10.925  0.00  0.00    +0.000 OA
BRANCH   8   9
ATOM      9  C   UNL     1      44.309   3.862   9.541  0.00  0.00    +0.000 C 
BRANCH   9  10
ATOM     10  C   UNL     1      45.311   3.137   8.674  0.00  0.00    +0.000 A 
ATOM     11  C   UNL     1      46.041   3.803   7.694  0.00  0.00    +0.000 A 
ATOM     12  C   UNL     1      46.931   3.075   6.911  0.00  0.00    +0.000 A 
ATOM     13  C   UNL     1      47.062   1.707   7.115  0.00  0.00    +0.000 A 
ATOM     14  C   UNL     1      46.288   1.116   8.097  0.00  0.00    +0.000 A 
ATOM     15  N   UNL     1      45.416   1.796   8.871  0.00  0.00    +0.000 NA
ENDBRANCH   9  10
ENDBRANCH   8   9
ENDBRANCH   5   8
ENDBRANCH   1   2
BRANCH   1  16
ATOM     16  N   UNL     1      48.011   6.900  14.934  0.00  0.00    +0.000 N 
ATOM     17  C   UNL     1      49.075   6.802  15.788  0.00  0.00    +0.000 C 
ATOM     18  O   UNL     1      50.231   6.665  15.406  0.00  0.00    +0.000 OA
ATOM     19  H   UNL     1      47.114   7.157  15.320  0.00  0.00    +0.000 HD
BRANCH  17  20
ATOM     20  C   UNL     1      48.718   6.812  17.215  0.00  0.00    +0.000 A 
ATOM     21  C   UNL     1      48.299   7.982  17.830  0.00  0.00    +0.000 A 
ATOM     22  S   UNL     1      48.007   7.800  19.503  0.00  0.00    +0.000 S 
ATOM     23  C   UNL     1      48.399   6.144  19.454  0.00  0.00    +0.000 A 
ATOM     24  N   UNL     1      48.370   5.375  20.578  0.00  0.00    +0.000 NA
ATOM     25  C   UNL     1      48.679   4.137  20.389  0.00  0.00    +0.000 A 
ATOM     26  N   UNL     1      48.996   3.588  19.173  0.00  0.00    +0.000 N 
ATOM     27  C   UNL     1      49.038   4.322  18.013  0.00  0.00    +0.000 A 
ATOM     28  O   UNL     1      49.343   3.800  16.944  0.00  0.00    +0.000 OA
ATOM     29  C   UNL     1      48.731   5.731  18.177  0.00  0.00    +0.000 A 
ATOM     30  H   UNL     1      49.225   2.610  19.091  0.00  0.00    +0.000 HD
ENDBRANCH  17  20
ENDBRANCH   1  16
BRANCH   1  31
ATOM     31  C   UNL     1      47.927   8.510  13.054  0.00  0.00    +0.000 C 
BRANCH  31  32
ATOM     32  N   UNL     1      46.941   9.256  13.847  0.00  0.00    +0.000 NA
ATOM     33  H   UNL     1      46.831  10.188  13.448  0.00  0.00    +0.000 HD
ATOM     34  H   UNL     1      47.301   9.396  14.792  0.00  0.00    +0.000 HD
ENDBRANCH  31  32
ENDBRANCH   1  31
TORSDOF 8
ENDMDL
MODEL 4
REMARK VINA RESULT:    -7.743      2.820      4.084
REMARK INTER + INTRA:         -12.075
REMARK INTER:                 -10.641
REMARK INTRA:                  -1.434
REMARK UNBOUND:                -0.937
REMARK  Name = 
REMARK  8 active torsions:
REMARK  status: ('A' for Active; 'I' for Inactive)
REMARK    1  A    between atoms: N_1  and  C_2
REMARK    2  A    between atoms: C_2  and  C_3
REMARK    3  A    between atoms: C_3  and  N_4
REMARK    4  A    between atoms: C_3  and  C_17
REMARK    5  A    between atoms: C_5  and  C_7
REMARK    6  A    between atoms: C_20  and  O_21
REMARK    7  A    between atoms: O_21  and  C_22
REMARK    8  A    between atoms: C_22  and  C_23
REMARK                            x       y       z     vdW  Elec       q    Type
REMARK                         _______ _______ _______ _____ _____    ______ ____
ROOT
ATOM      1  C   UNL     1      46.948   5.957  14.059  0.00  0.00    +0.000 C 
ENDROOT
BRANCH   1   2
ATOM      2  C   UNL     1      46.281   5.282  12.864  0.00  0.00    +0.000 A 
ATOM      3  C   UNL     1      45.873   3.944  12.936  0.00  0.00    +0.000 A 
ATOM      4  C   UNL     1      45.178   3.358  11.873  0.00  0.00    +0.000 A 
ATOM      5  C   UNL     1      44.868   4.106  10.736  0.00  0.00    +0.000 A 
ATOM      6  C   UNL     1      45.335   5.414  10.626  0.00  0.00    +0.000 A 
ATOM      7  C   UNL     1      46.022   6.001  11.685  0.00  0.00    +0.000 A 
BRANCH   5   8
ATOM      8  O   UNL     1      44.091   3.482   9.795  0.00  0.00    +0.000 OA
BRANCH   8   9
ATOM      9  C   UNL     1      44.557   2.176   9.425  0.00  0.00    +0.000 C 
BRANCH   9  10
ATOM     10  C   UNL     1      45.607   2.234   8.341  0.00  0.00    +0.000 A 
ATOM     11  C   UNL     1      45.723   3.336   7.500  0.00  0.00    +0.000 A 
ATOM     12  C   UNL     1      46.694   3.320   6.504  0.00  0.00    +0.000 A 
ATOM     13  C   UNL     1      47.514   2.206   6.366  0.00  0.00    +0.000 A 
ATOM     14  C   UNL     1      47.325   1.144   7.232  0.00  0.00    +0.000 A 
ATOM     15  N   UNL     1      46.390   1.131   8.205  0.00  0.00    +0.000 NA
ENDBRANCH   9  10
ENDBRANCH   8   9
ENDBRANCH   5   8
ENDBRANCH   1   2
BRANCH   1  16
ATOM     16  N   UNL     1      48.102   6.688  13.559  0.00  0.00    +0.000 N 
ATOM     17  C   UNL     1      48.222   8.050  13.551  0.00  0.00    +0.000 C 
ATOM     18  O   UNL     1      47.301   8.807  13.835  0.00  0.00    +0.000 OA
ATOM     19  H   UNL     1      48.941   6.136  13.457  0.00  0.00    +0.000 HD
BRANCH  17  20
ATOM     20  C   UNL     1      49.535   8.546  13.111  0.00  0.00    +0.000 A 
ATOM     21  C   UNL     1      49.645   9.363  11.996  0.00  0.00    +0.000 A 
ATOM     22  S   UNL     1      51.259   9.766  11.608  0.00  0.00    +0.000 S 
ATOM     23  C   UNL     1      51.862   8.891  12.938  0.00  0.00    +0.000 A 
ATOM     24  N   UNL     1      53.199   8.809  13.184  0.00  0.00    +0.000 NA
ATOM     25  C   UNL     1      53.511   8.123  14.232  0.00  0.00    +0.000 A 
ATOM     26  N   UNL     1      52.605   7.525  15.070  0.00  0.00    +0.000 N 
ATOM     27  C   UNL     1      51.248   7.580  14.863  0.00  0.00    +0.000 A 
ATOM     28  O   UNL     1      50.468   7.018  15.627  0.00  0.00    +0.000 OA
ATOM     29  C   UNL     1      50.846   8.313  13.677  0.00  0.00    +0.000 A 
ATOM     30  H   UNL     1      52.912   7.005  15.877  0.00  0.00    +0.000 HD
ENDBRANCH  17  20
ENDBRANCH   1  16
BRANCH   1  31
ATOM     31  C   UNL     1      47.381   4.923  15.140  0.00  0.00    +0.000 C 
BRANCH  31  32
ATOM     32  N   UNL     1      47.827   5.520  16.406  0.00  0.00    +0.000 NA
ATOM     33  H   UNL     1      48.803   5.798  16.315  0.00  0.00    +0.000 HD
ATOM     34  H   UNL     1      47.804   4.813  17.142  0.00  0.00    +0.000 HD
ENDBRANCH  31  32
ENDBRANCH   1  31
TORSDOF 8
ENDMDL
MODEL 5
REMARK VINA RESULT:    -7.162      1.779      2.498
REMARK INTER + INTRA:         -11.239
REMARK INTER:                 -10.667
REMARK INTRA:                  -0.573
REMARK UNBOUND:                -0.937
REMARK  Name = 
REMARK  8 active torsions:
REMARK  status: ('A' for Active; 'I' for Inactive)
REMARK    1  A    between atoms: N_1  and  C_2
REMARK    2  A    between atoms: C_2  and  C_3
REMARK    3  A    between atoms: C_3  and  N_4
REMARK    4  A    between atoms: C_3  and  C_17
REMARK    5  A    between atoms: C_5  and  C_7
REMARK    6  A    between atoms: C_20  and  O_21
REMARK    7  A    between atoms: O_21  and  C_22
REMARK    8  A    between atoms: C_22  and  C_23
REMARK                            x       y       z     vdW  Elec       q    Type
REMARK                         _______ _______ _______ _____ _____    ______ ____
ROOT
ATOM      1  C   UNL     1      47.433   7.157  13.250  0.00  0.00    +0.000 C 
ENDROOT
BRANCH   1   2
ATOM      2  C   UNL     1      46.481   6.270  12.455  0.00  0.00    +0.000 A 
ATOM      3  C   UNL     1      45.979   6.692  11.217  0.00  0.00    +0.000 A 
ATOM      4  C   UNL     1      45.182   5.837  10.448  0.00  0.00    +0.000 A 
ATOM      5  C   UNL     1      44.893   4.548  10.898  0.00  0.00    +0.000 A 
ATOM      6  C   UNL     1      45.327   4.148  12.160  0.00  0.00    +0.000 A 
ATOM      7  C   UNL     1      46.125   4.995  12.925  0.00  0.00    +0.000 A 
BRANCH   5   8
ATOM      8  O   UNL     1      44.200   3.746  10.031  0.00  0.00    +0.000 OA
BRANCH   8   9
ATOM      9  C   UNL     1      44.790   2.453   9.831  0.00  0.00    +0.000 C 
BRANCH   9  10
ATOM     10  C   UNL     1      45.624   2.399   8.573  0.00  0.00    +0.000 A 
ATOM     11  C   UNL     1      45.620   3.443   7.653  0.00  0.00    +0.000 A 
ATOM     12  C   UNL     1      46.391   3.322   6.500  0.00  0.00    +0.000 A 
ATOM     13  C   UNL     1      47.133   2.166   6.291  0.00  0.00    +0.000 A 
ATOM     14  C   UNL     1      47.070   1.168   7.246  0.00  0.00    +0.000 A 
ATOM     15  N   UNL     1      46.330   1.255   8.371  0.00  0.00    +0.000 NA
ENDBRANCH   9  10
ENDBRANCH   8   9
ENDBRANCH   5   8
ENDBRANCH   1   2
BRANCH   1  16
ATOM     16  N   UNL     1      47.894   6.386  14.395  0.00  0.00    +0.000 N 
ATOM     17  C   UNL     1      48.742   6.851  15.363  0.00  0.00    +0.000 C 
ATOM     18  O   UNL     1      49.318   7.929  15.288  0.00  0.00    +0.000 OA
ATOM     19  H   UNL     1      47.348   5.561  14.597  0.00  0.00    +0.000 HD
BRANCH  17  20
ATOM     20  C   UNL     1      48.959   5.924  16.483  0.00  0.00    +0.000 A 
ATOM     21  C   UNL     1      47.890   5.265  17.072  0.00  0.00    +0.000 A 
ATOM     22  S   UNL     1      48.343   4.295  18.404  0.00  0.00    +0.000 S 
ATOM     23  C   UNL     1      49.987   4.697  18.215  0.00  0.00    +0.000 A 
ATOM     24  N   UNL     1      50.936   4.207  19.060  0.00  0.00    +0.000 NA
ATOM     25  C   UNL     1      52.141   4.586  18.791  0.00  0.00    +0.000 A 
ATOM     26  N   UNL     1      52.487   5.397  17.741  0.00  0.00    +0.000 N 
ATOM     27  C   UNL     1      51.565   5.914  16.863  0.00  0.00    +0.000 A 
ATOM     28  O   UNL     1      51.911   6.652  15.944  0.00  0.00    +0.000 OA
ATOM     29  C   UNL     1      50.190   5.545  17.143  0.00  0.00    +0.000 A 
ATOM     30  H   UNL     1      53.448   5.654  17.581  0.00  0.00    +0.000 HD
ENDBRANCH  17  20
ENDBRANCH   1  16
BRANCH   1  31
ATOM     31  C   UNL     1      46.744   8.473  13.719  0.00  0.00    +0.000 C 
BRANCH  31  32
ATOM     32  N   UNL     1      47.224   9.684  13.039  0.00  0.00    +0.000 NA
ATOM     33  H   UNL     1      46.674  10.481  13.355  0.00  0.00    +0.000 HD
ATOM     34  H   UNL     1      47.048   9.602  12.036  0.00  0.00    +0.000 HD
ENDBRANCH  31  32
ENDBRANCH   1  31
TORSDOF 8
ENDMDL
MODEL 6
REMARK VINA RESULT:    -6.702      3.156      8.251
REMARK INTER + INTRA:         -10.577
REMARK INTER:                  -9.615
REMARK INTRA:                  -0.963
REMARK UNBOUND:                -0.937
REMARK  Name = 
REMARK  8 active torsions:
REMARK  status: ('A' for Active; 'I' for Inactive)
REMARK    1  A    between atoms: N_1  and  C_2
REMARK    2  A    between atoms: C_2  and  C_3
REMARK    3  A    between atoms: C_3  and  N_4
REMARK    4  A    between atoms: C_3  and  C_17
REMARK    5  A    between atoms: C_5  and  C_7
REMARK    6  A    between atoms: C_20  and  O_21
REMARK    7  A    between atoms: O_21  and  C_22
REMARK    8  A    between atoms: C_22  and  C_23
REMARK                            x       y       z     vdW  Elec       q    Type
REMARK                         _______ _______ _______ _____ _____    ______ ____
ROOT
ATOM      1  C   UNL     1      47.591   7.408  12.914  0.00  0.00    +0.000 C 
ENDROOT
BRANCH   1   2
ATOM      2  C   UNL     1      48.344   7.024  14.184  0.00  0.00    +0.000 A 
ATOM      3  C   UNL     1      47.878   5.989  15.005  0.00  0.00    +0.000 A 
ATOM      4  C   UNL     1      48.621   5.578  16.116  0.00  0.00    +0.000 A 
ATOM      5  C   UNL     1      49.845   6.182  16.408  0.00  0.00    +0.000 A 
ATOM      6  C   UNL     1      50.279   7.260  15.640  0.00  0.00    +0.000 A 
ATOM      7  C   UNL     1      49.544   7.667  14.530  0.00  0.00    +0.000 A 
BRANCH   5   8
ATOM      8  O   UNL     1      50.554   5.641  17.448  0.00  0.00    +0.000 OA
BRANCH   8   9
ATOM      9  C   UNL     1      50.075   4.358  17.877  0.00  0.00    +0.000 C 
BRANCH   9  10
ATOM     10  C   UNL     1      51.160   3.308  17.844  0.00  0.00    +0.000 A 
ATOM     11  C   UNL     1      50.906   2.014  17.401  0.00  0.00    +0.000 A 
ATOM     12  C   UNL     1      51.941   1.084  17.419  0.00  0.00    +0.000 A 
ATOM     13  C   UNL     1      53.194   1.464  17.886  0.00  0.00    +0.000 A 
ATOM     14  C   UNL     1      53.361   2.765  18.325  0.00  0.00    +0.000 A 
ATOM     15  N   UNL     1      52.376   3.687  18.322  0.00  0.00    +0.000 NA
ENDBRANCH   9  10
ENDBRANCH   8   9
ENDBRANCH   5   8
ENDBRANCH   1   2
BRANCH   1  16
ATOM     16  N   UNL     1      46.702   6.304  12.583  0.00  0.00    +0.000 N 
ATOM     17  C   UNL     1      45.545   6.419  11.863  0.00  0.00    +0.000 C 
ATOM     18  O   UNL     1      45.060   7.497  11.541  0.00  0.00    +0.000 OA
ATOM     19  H   UNL     1      47.112   5.387  12.681  0.00  0.00    +0.000 HD
BRANCH  17  20
ATOM     20  C   UNL     1      44.887   5.141  11.553  0.00  0.00    +0.000 A 
ATOM     21  C   UNL     1      44.094   4.507  12.497  0.00  0.00    +0.000 A 
ATOM     22  S   UNL     1      43.485   3.001  11.970  0.00  0.00    +0.000 S 
ATOM     23  C   UNL     1      44.235   3.162  10.450  0.00  0.00    +0.000 A 
ATOM     24  N   UNL     1      44.127   2.190   9.501  0.00  0.00    +0.000 NA
ATOM     25  C   UNL     1      44.737   2.451   8.394  0.00  0.00    +0.000 A 
ATOM     26  N   UNL     1      45.430   3.607   8.139  0.00  0.00    +0.000 N 
ATOM     27  C   UNL     1      45.565   4.614   9.063  0.00  0.00    +0.000 A 
ATOM     28  O   UNL     1      46.207   5.628   8.804  0.00  0.00    +0.000 OA
ATOM     29  C   UNL     1      44.925   4.354  10.339  0.00  0.00    +0.000 A 
ATOM     30  H   UNL     1      45.881   3.753   7.250  0.00  0.00    +0.000 HD
ENDBRANCH  17  20
ENDBRANCH   1  16
BRANCH   1  31
ATOM     31  C   UNL     1      48.561   7.702  11.732  0.00  0.00    +0.000 C 
BRANCH  31  32
ATOM     32  N   UNL     1      48.806   9.131  11.489  0.00  0.00    +0.000 NA
ATOM     33  H   UNL     1      47.928   9.577  11.229  0.00  0.00    +0.000 HD
ATOM     34  H   UNL     1      49.424   9.237  10.684  0.00  0.00    +0.000 HD
ENDBRANCH  31  32
ENDBRANCH   1  31
TORSDOF 8
ENDMDL
MODEL 7
REMARK VINA RESULT:    -5.870      2.364      3.383
REMARK INTER + INTRA:          -9.381
REMARK INTER:                  -8.485
REMARK INTRA:                  -0.896
REMARK UNBOUND:                -0.937
REMARK  Name = 
REMARK  8 active torsions:
REMARK  status: ('A' for Active; 'I' for Inactive)
REMARK    1  A    between atoms: N_1  and  C_2
REMARK    2  A    between atoms: C_2  and  C_3
REMARK    3  A    between atoms: C_3  and  N_4
REMARK    4  A    between atoms: C_3  and  C_17
REMARK    5  A    between atoms: C_5  and  C_7
REMARK    6  A    between atoms: C_20  and  O_21
REMARK    7  A    between atoms: O_21  and  C_22
REMARK    8  A    between atoms: C_22  and  C_23
REMARK                            x       y       z     vdW  Elec       q    Type
REMARK                         _______ _______ _______ _____ _____    ______ ____
ROOT
ATOM      1  C   UNL     1      49.698   8.426  14.252  0.00  0.00    +0.000 C 
ENDROOT
BRANCH   1   2
ATOM      2  C   UNL     1      48.474   8.065  13.416  0.00  0.00    +0.000 A 
ATOM      3  C   UNL     1      48.535   7.034  12.469  0.00  0.00    +0.000 A 
ATOM      4  C   UNL     1      47.387   6.643  11.773  0.00  0.00    +0.000 A 
ATOM      5  C   UNL     1      46.163   7.266  12.027  0.00  0.00    +0.000 A 
ATOM      6  C   UNL     1      46.110   8.341  12.911  0.00  0.00    +0.000 A 
ATOM      7  C   UNL     1      47.250   8.727  13.610  0.00  0.00    +0.000 A 
BRANCH   5   8
ATOM      8  O   UNL     1      45.074   6.744  11.379  0.00  0.00    +0.000 OA
BRANCH   8   9
ATOM      9  C   UNL     1      44.817   5.366  11.685  0.00  0.00    +0.000 C 
BRANCH   9  10
ATOM     10  C   UNL     1      44.933   4.484  10.465  0.00  0.00    +0.000 A 
ATOM     11  C   UNL     1      45.480   4.956   9.276  0.00  0.00    +0.000 A 
ATOM     12  C   UNL     1      45.536   4.102   8.178  0.00  0.00    +0.000 A 
ATOM     13  C   UNL     1      45.038   2.809   8.291  0.00  0.00    +0.000 A 
ATOM     14  C   UNL     1      44.494   2.422   9.502  0.00  0.00    +0.000 A 
ATOM     15  N   UNL     1      44.424   3.228  10.582  0.00  0.00    +0.000 NA
ENDBRANCH   9  10
ENDBRANCH   8   9
ENDBRANCH   5   8
ENDBRANCH   1   2
BRANCH   1  16
ATOM     16  N   UNL     1      49.420   8.033  15.625  0.00  0.00    +0.000 N 
ATOM     17  C   UNL     1      50.196   7.189  16.370  0.00  0.00    +0.000 C 
ATOM     18  O   UNL     1      51.139   6.559  15.906  0.00  0.00    +0.000 OA
ATOM     19  H   UNL     1      48.760   8.624  16.109  0.00  0.00    +0.000 HD
BRANCH  17  20
ATOM     20  C   UNL     1      49.774   7.046  17.772  0.00  0.00    +0.000 A 
ATOM     21  C   UNL     1      49.739   8.147  18.614  0.00  0.00    +0.000 A 
ATOM     22  S   UNL     1      49.297   7.758  20.218  0.00  0.00    +0.000 S 
ATOM     23  C   UNL     1      49.105   6.111  19.831  0.00  0.00    +0.000 A 
ATOM     24  N   UNL     1      48.745   5.199  20.776  0.00  0.00    +0.000 NA
ATOM     25  C   UNL     1      48.626   3.991  20.337  0.00  0.00    +0.000 A 
ATOM     26  N   UNL     1      48.816   3.612  19.033  0.00  0.00    +0.000 N 
ATOM     27  C   UNL     1      49.178   4.496  18.046  0.00  0.00    +0.000 A 
ATOM     28  O   UNL     1      49.355   4.116  16.891  0.00  0.00    +0.000 OA
ATOM     29  C   UNL     1      49.358   5.864  18.494  0.00  0.00    +0.000 A 
ATOM     30  H   UNL     1      48.703   2.651  18.752  0.00  0.00    +0.000 HD
ENDBRANCH  17  20
ENDBRANCH   1  16
BRANCH   1  31
ATOM     31  C   UNL     1      50.025   9.947  14.173  0.00  0.00    +0.000 C 
BRANCH  31  32
ATOM     32  N   UNL     1      50.535  10.392  12.869  0.00  0.00    +0.000 NA
ATOM     33  H   UNL     1      50.298  11.374  12.739  0.00  0.00    +0.000 HD
ATOM     34  H   UNL     1      50.053   9.885  12.126  0.00  0.00    +0.000 HD
ENDBRANCH  31  32
ENDBRANCH   1  31
TORSDOF 8
ENDMDL
