MODEL 1
REMARK VINA RESULT:    -7.582      0.000      0.000
REMARK INTER + INTRA:         -11.159
REMARK INTER:                 -10.242
REMARK INTRA:                  -0.917
REMARK UNBOUND:                -0.917
REMARK  Name = 
REMARK  6 active torsions:
REMARK  status: ('A' for Active; 'I' for Inactive)
REMARK    1  A    between atoms: C_2  and  C_3
REMARK    2  A    between atoms: C_7  and  C_8
REMARK    3  A    between atoms: C_8  and  C_9
REMARK    4  A    between atoms: C_12  and  C_13
REMARK    5  A    between atoms: C_13  and  N_14
REMARK    6  A    between atoms: C_15  and  C_17
REMARK                            x       y       z     vdW  Elec       q    Type
REMARK                         _______ _______ _______ _____ _____    ______ ____
ROOT
ATOM      1  C   UNL     1      47.851   7.168  13.822  0.00  0.00    +0.000 C 
ENDROOT
BRANCH   1   5
ATOM      2  C   UNL     1      45.292   4.791  11.269  0.00  0.00    +0.000 A 
ATOM      3  C   UNL     1      45.441   6.165  11.040  0.00  0.00    +0.000 A 
ATOM      4  C   UNL     1      46.245   6.941  11.882  0.00  0.00    +0.000 A 
ATOM      5  C   UNL     1      46.932   6.352  12.951  0.00  0.00    +0.000 A 
ATOM      6  C   UNL     1      46.735   4.991  13.213  0.00  0.00    +0.000 A 
ATOM      7  C   UNL     1      45.924   4.217  12.380  0.00  0.00    +0.000 A 
BRANCH   2   8
ATOM      8  C   UNL     1      44.517   3.931  10.293  0.00  0.00    +0.000 C 
BRANCH   8  13
ATOM      9  C   UNL     1      46.307   1.759   7.893  0.00  0.00    +0.000 A 
ATOM     10  C   UNL     1      46.792   2.626   6.921  0.00  0.00    +0.000 A 
ATOM     11  C   UNL     1      46.531   3.983   7.064  0.00  0.00    +0.000 A 
ATOM     12  C   UNL     1      45.798   4.423   8.163  0.00  0.00    +0.000 A 
ATOM     13  C   UNL     1      45.329   3.490   9.092  0.00  0.00    +0.000 A 
ATOM     14  N   UNL     1      45.585   2.163   8.969  0.00  0.00    +0.000 NA
BRANCH   9  16
ATOM     15  N   UNL     1      46.779  -0.787   7.683  0.00  0.00    +0.000 NA
ATOM     16  C   UNL     1      46.562   0.349   7.801  0.00  0.00    +0.000 C 
ENDBRANCH   9  16
ENDBRANCH   8  13
ENDBRANCH   2   8
ENDBRANCH   1   5
BRANCH   1  17
ATOM     17  N   UNL     1      47.805   6.723  15.189  0.00  0.00    +0.000 N 
ATOM     18  C   UNL     1      48.953   6.433  15.879  0.00  0.00    +0.000 C 
ATOM     19  O   UNL     1      50.067   6.578  15.383  0.00  0.00    +0.000 OA
ATOM     20  H   UNL     1      46.912   6.387  15.534  0.00  0.00    +0.000 HD
BRANCH  18  21
ATOM     21  C   UNL     1      48.782   6.004  17.271  0.00  0.00    +0.000 A 
ATOM     22  C   UNL     1      49.070   4.694  17.630  0.00  0.00    +0.000 A 
ATOM     23  S   UNL     1      48.890   4.389  19.297  0.00  0.00    +0.000 S 
ATOM     24  C   UNL     1      48.368   5.981  19.590  0.00  0.00    +0.000 A 
ATOM     25  N   UNL     1      48.031   6.389  20.843  0.00  0.00    +0.000 NA
ATOM     26  C   UNL     1      47.620   7.612  20.914  0.00  0.00    +0.000 A 
ATOM     27  N   UNL     1      47.517   8.463  19.846  0.00  0.00    +0.000 N 
ATOM     28  C   UNL     1      47.872   8.105  18.568  0.00  0.00    +0.000 A 
ATOM     29  O   UNL     1      47.803   8.905  17.640  0.00  0.00    +0.000 OA
ATOM     30  C   UNL     1      48.339   6.739  18.433  0.00  0.00    +0.000 A 
ATOM     31  H   UNL     1      47.190   9.410  19.969  0.00  0.00    +0.000 HD
ENDBRANCH  18  21
ENDBRANCH   1  17
TORSDOF 6
ENDMDL
MODEL 2
REMARK VINA RESULT:    -7.351      2.315      2.990
REMARK INTER + INTRA:         -10.846
REMARK INTER:                  -9.807
REMARK INTRA:                  -1.040
REMARK UNBOUND:                -0.917
REMARK  Name = 
REMARK  6 active torsions:
REMARK  status: ('A' for Active; 'I' for Inactive)
REMARK    1  A    between atoms: C_2  and  C_3
REMARK    2  A    between atoms: C_7  and  C_8
REMARK    3  A    between atoms: C_8  and  C_9
REMARK    4  A    between atoms: C_12  and  C_13
REMARK    5  A    between atoms: C_13  and  N_14
REMARK    6  A    between atoms: C_15  and  C_17
REMARK                            x       y       z     vdW  Elec       q    Type
REMARK                         _______ _______ _______ _____ _____    ______ ____
ROOT
ATOM      1  C   UNL     1      47.801   8.341  13.801  0.00  0.00    +0.000 C 
ENDROOT
BRANCH   1   5
ATOM      2  C   UNL     1      44.931   6.501  11.138  0.00  0.00    +0.000 A 
ATOM      3  C   UNL     1      46.189   5.917  11.337  0.00  0.00    +0.000 A 
ATOM      4  C   UNL     1      47.129   6.526  12.174  0.00  0.00    +0.000 A 
ATOM      5  C   UNL     1      46.819   7.715  12.846  0.00  0.00    +0.000 A 
ATOM      6  C   UNL     1      45.584   8.328  12.600  0.00  0.00    +0.000 A 
ATOM      7  C   UNL     1      44.649   7.727  11.756  0.00  0.00    +0.000 A 
BRANCH   2   8
ATOM      8  C   UNL     1      43.874   5.785  10.324  0.00  0.00    +0.000 C 
BRANCH   8  13
ATOM      9  C   UNL     1      45.445   3.281   8.101  0.00  0.00    +0.000 A 
ATOM     10  C   UNL     1      45.203   2.058   8.715  0.00  0.00    +0.000 A 
ATOM     11  C   UNL     1      44.485   2.052   9.904  0.00  0.00    +0.000 A 
ATOM     12  C   UNL     1      44.038   3.259  10.436  0.00  0.00    +0.000 A 
ATOM     13  C   UNL     1      44.333   4.451   9.769  0.00  0.00    +0.000 A 
ATOM     14  N   UNL     1      45.025   4.471   8.603  0.00  0.00    +0.000 NA
BRANCH   9  16
ATOM     15  N   UNL     1      46.787   3.417   5.880  0.00  0.00    +0.000 NA
ATOM     16  C   UNL     1      46.169   3.342   6.863  0.00  0.00    +0.000 C 
ENDBRANCH   9  16
ENDBRANCH   8  13
ENDBRANCH   2   8
ENDBRANCH   1   5
BRANCH   1  17
ATOM     17  N   UNL     1      48.037   7.493  14.938  0.00  0.00    +0.000 N 
ATOM     18  C   UNL     1      49.298   7.051  15.243  0.00  0.00    +0.000 C 
ATOM     19  O   UNL     1      50.283   7.389  14.593  0.00  0.00    +0.000 OA
ATOM     20  H   UNL     1      47.230   7.030  15.342  0.00  0.00    +0.000 HD
BRANCH  18  21
ATOM     21  C   UNL     1      49.418   6.204  16.435  0.00  0.00    +0.000 A 
ATOM     22  C   UNL     1      50.401   6.476  17.378  0.00  0.00    +0.000 A 
ATOM     23  S   UNL     1      50.349   5.443  18.733  0.00  0.00    +0.000 S 
ATOM     24  C   UNL     1      49.049   4.561  18.082  0.00  0.00    +0.000 A 
ATOM     25  N   UNL     1      48.514   3.504  18.750  0.00  0.00    +0.000 NA
ATOM     26  C   UNL     1      47.556   2.905  18.124  0.00  0.00    +0.000 A 
ATOM     27  N   UNL     1      47.083   3.270  16.891  0.00  0.00    +0.000 N 
ATOM     28  C   UNL     1      47.571   4.346  16.191  0.00  0.00    +0.000 A 
ATOM     29  O   UNL     1      47.099   4.667  15.106  0.00  0.00    +0.000 OA
ATOM     30  C   UNL     1      48.653   5.053  16.851  0.00  0.00    +0.000 A 
ATOM     31  H   UNL     1      46.328   2.761  16.456  0.00  0.00    +0.000 HD
ENDBRANCH  18  21
ENDBRANCH   1  17
TORSDOF 6
ENDMDL
MODEL 3
REMARK VINA RESULT:    -7.347      2.679      3.991
REMARK INTER + INTRA:         -10.842
REMARK INTER:                  -9.674
REMARK INTRA:                  -1.168
REMARK UNBOUND:                -0.917
REMARK  Name = 
REMARK  6 active torsions:
REMARK  status: ('A' for Active; 'I' for Inactive)
REMARK    1  A    between atoms: C_2  and  C_3
REMARK    2  A    between atoms: C_7  and  C_8
REMARK    3  A    between atoms: C_8  and  C_9
REMARK    4  A    between atoms: C_12  and  C_13
REMARK    5  A    between atoms: C_13  and  N_14
REMARK    6  A    between atoms: C_15  and  C_17
REMARK                            x       y       z     vdW  Elec       q    Type
REMARK                         _______ _______ _______ _____ _____    ______ ____
ROOT
ATOM      1  C   UNL     1      47.124   5.038  14.770  0.00  0.00    +0.000 C 
ENDROOT
BRANCH   1   5
ATOM      2  C   UNL     1      45.008   4.310  11.068  0.00  0.00    +0.000 A 
ATOM      3  C   UNL     1      45.487   5.591  11.370  0.00  0.00    +0.000 A 
ATOM      4  C   UNL     1      46.146   5.836  12.579  0.00  0.00    +0.000 A 
ATOM      5  C   UNL     1      46.358   4.798  13.496  0.00  0.00    +0.000 A 
ATOM      6  C   UNL     1      45.827   3.532  13.219  0.00  0.00    +0.000 A 
ATOM      7  C   UNL     1      45.160   3.290  12.017  0.00  0.00    +0.000 A 
BRANCH   2   8
ATOM      8  C   UNL     1      44.398   4.019   9.713  0.00  0.00    +0.000 C 
BRANCH   8  13
ATOM      9  C   UNL     1      46.476   1.708   7.707  0.00  0.00    +0.000 A 
ATOM     10  C   UNL     1      47.194   2.531   6.846  0.00  0.00    +0.000 A 
ATOM     11  C   UNL     1      46.997   3.903   6.934  0.00  0.00    +0.000 A 
ATOM     12  C   UNL     1      46.095   4.403   7.870  0.00  0.00    +0.000 A 
ATOM     13  C   UNL     1      45.398   3.513   8.692  0.00  0.00    +0.000 A 
ATOM     14  N   UNL     1      45.587   2.171   8.622  0.00  0.00    +0.000 NA
BRANCH   9  16
ATOM     15  N   UNL     1      46.819  -0.865   7.595  0.00  0.00    +0.000 NA
ATOM     16  C   UNL     1      46.654   0.285   7.667  0.00  0.00    +0.000 C 
ENDBRANCH   9  16
ENDBRANCH   8  13
ENDBRANCH   2   8
ENDBRANCH   1   5
BRANCH   1  17
ATOM     17  N   UNL     1      47.717   6.348  14.784  0.00  0.00    +0.000 N 
ATOM     18  C   UNL     1      48.859   6.602  15.498  0.00  0.00    +0.000 C 
ATOM     19  O   UNL     1      49.450   5.723  16.119  0.00  0.00    +0.000 OA
ATOM     20  H   UNL     1      47.136   7.119  14.474  0.00  0.00    +0.000 HD
BRANCH  18  21
ATOM     21  C   UNL     1      49.379   7.972  15.425  0.00  0.00    +0.000 A 
ATOM     22  C   UNL     1      49.513   8.723  16.585  0.00  0.00    +0.000 A 
ATOM     23  S   UNL     1      50.202  10.260  16.327  0.00  0.00    +0.000 S 
ATOM     24  C   UNL     1      50.295   9.998  14.649  0.00  0.00    +0.000 A 
ATOM     25  N   UNL     1      50.793  10.953  13.817  0.00  0.00    +0.000 NA
ATOM     26  C   UNL     1      50.773  10.634  12.566  0.00  0.00    +0.000 A 
ATOM     27  N   UNL     1      50.302   9.446  12.071  0.00  0.00    +0.000 N 
ATOM     28  C   UNL     1      49.816   8.442  12.873  0.00  0.00    +0.000 A 
ATOM     29  O   UNL     1      49.437   7.377  12.400  0.00  0.00    +0.000 OA
ATOM     30  C   UNL     1      49.815   8.751  14.290  0.00  0.00    +0.000 A 
ATOM     31  H   UNL     1      50.316   9.257  11.080  0.00  0.00    +0.000 HD
ENDBRANCH  18  21
ENDBRANCH   1  17
TORSDOF 6
ENDMDL
MODEL 4
REMARK VINA RESULT:    -7.156      5.042      9.331
REMARK INTER + INTRA:         -10.584
REMARK INTER:                  -9.868
REMARK INTRA:                  -0.715
REMARK UNBOUND:                -0.917
REMARK  Name = 
REMARK  6 active torsions:
REMARK  status: ('A' for Active; 'I' for Inactive)
REMARK    1  A    between atoms: C_2  and  C_3
REMARK    2  A    between atoms: C_7  and  C_8
REMARK    3  A    between atoms: C_8  and  C_9
REMARK    4  A    between atoms: C_12  and  C_13
REMARK    5  A    between atoms: C_13  and  N_14
REMARK    6  A    between atoms: C_15  and  C_17
REMARK                            x       y       z     vdW  Elec       q    Type
REMARK                         _______ _______ _______ _____ _____    ______ ____
ROOT
ATOM      1  C   UNL     1      47.385   3.247  16.945  0.00  0.00    +0.000 C 
ENDROOT
BRANCH   1   5
ATOM      2  C   UNL     1      51.585   3.212  17.980  0.00  0.00    +0.000 A 
ATOM      3  C   UNL     1      50.803   4.346  18.233  0.00  0.00    +0.000 A 
ATOM      4  C   UNL     1      49.452   4.371  17.873  0.00  0.00    +0.000 A 
ATOM      5  C   UNL     1      48.854   3.254  17.276  0.00  0.00    +0.000 A 
ATOM      6  C   UNL     1      49.651   2.143  16.970  0.00  0.00    +0.000 A 
ATOM      7  C   UNL     1      51.003   2.121  17.319  0.00  0.00    +0.000 A 
BRANCH   2   8
ATOM      8  C   UNL     1      53.015   3.141  18.473  0.00  0.00    +0.000 C 
BRANCH   8  13
ATOM      9  C   UNL     1      54.208  -0.348  18.185  0.00  0.00    +0.000 A 
ATOM     10  C   UNL     1      55.103  -0.332  17.121  0.00  0.00    +0.000 A 
ATOM     11  C   UNL     1      55.334   0.877  16.477  0.00  0.00    +0.000 A 
ATOM     12  C   UNL     1      54.667   2.019  16.913  0.00  0.00    +0.000 A 
ATOM     13  C   UNL     1      53.769   1.922  17.980  0.00  0.00    +0.000 A 
ATOM     14  N   UNL     1      53.541   0.750  18.623  0.00  0.00    +0.000 NA
BRANCH   9  16
ATOM     15  N   UNL     1      53.718  -2.532  19.504  0.00  0.00    +0.000 NA
ATOM     16  C   UNL     1      53.945  -1.568  18.894  0.00  0.00    +0.000 C 
ENDBRANCH   9  16
ENDBRANCH   8  13
ENDBRANCH   2   8
ENDBRANCH   1   5
BRANCH   1  17
ATOM     17  N   UNL     1      47.054   4.297  16.019  0.00  0.00    +0.000 N 
ATOM     18  C   UNL     1      47.078   4.082  14.666  0.00  0.00    +0.000 C 
ATOM     19  O   UNL     1      47.339   2.983  14.184  0.00  0.00    +0.000 OA
ATOM     20  H   UNL     1      47.059   5.246  16.378  0.00  0.00    +0.000 HD
BRANCH  18  21
ATOM     21  C   UNL     1      46.707   5.222  13.821  0.00  0.00    +0.000 A 
ATOM     22  C   UNL     1      47.586   6.286  13.671  0.00  0.00    +0.000 A 
ATOM     23  S   UNL     1      47.028   7.486  12.597  0.00  0.00    +0.000 S 
ATOM     24  C   UNL     1      45.567   6.655  12.338  0.00  0.00    +0.000 A 
ATOM     25  N   UNL     1      44.612   7.157  11.510  0.00  0.00    +0.000 NA
ATOM     26  C   UNL     1      43.541   6.439  11.433  0.00  0.00    +0.000 A 
ATOM     27  N   UNL     1      43.340   5.263  12.107  0.00  0.00    +0.000 N 
ATOM     28  C   UNL     1      44.286   4.703  12.930  0.00  0.00    +0.000 A 
ATOM     29  O   UNL     1      44.087   3.629  13.489  0.00  0.00    +0.000 OA
ATOM     30  C   UNL     1      45.509   5.472  13.054  0.00  0.00    +0.000 A 
ATOM     31  H   UNL     1      42.479   4.747  12.001  0.00  0.00    +0.000 HD
ENDBRANCH  18  21
ENDBRANCH   1  17
TORSDOF 6
ENDMDL
MODEL 5
REMARK VINA RESULT:    -6.924      3.345      9.085
REMARK INTER + INTRA:         -10.269
REMARK INTER:                  -9.186
REMARK INTRA:                  -1.083
REMARK UNBOUND:                -0.917
REMARK  Name = 
REMARK  6 active torsions:
REMARK  status: ('A' for Active; 'I' for Inactive)
REMARK    1  A    between atoms: C_2  and  C_3
REMARK    2  A    between atoms: C_7  and  C_8
REMARK    3  A    between atoms: C_8  and  C_9
REMARK    4  A    between atoms: C_12  and  C_13
REMARK    5  A    between atoms: C_13  and  N_14
REMARK    6  A    between atoms: C_15  and  C_17
REMARK                            x       y       z     vdW  Elec       q    Type
REMARK                         _______ _______ _______ _____ _____    ______ ____
ROOT
ATOM      1  C   UNL     1      47.324   7.991  11.754  0.00  0.00    +0.000 C 
ENDROOT
BRANCH   1   5
ATOM      2  C   UNL     1      49.481   7.972  15.504  0.00  0.00    +0.000 A 
ATOM      3  C   UNL     1      48.235   8.605  15.406  0.00  0.00    +0.000 A 
ATOM      4  C   UNL     1      47.550   8.638  14.188  0.00  0.00    +0.000 A 
ATOM      5  C   UNL     1      48.086   8.018  13.053  0.00  0.00    +0.000 A 
ATOM      6  C   UNL     1      49.358   7.437  13.137  0.00  0.00    +0.000 A 
ATOM      7  C   UNL     1      50.048   7.412  14.351  0.00  0.00    +0.000 A 
BRANCH   2   8
ATOM      8  C   UNL     1      50.169   7.836  16.846  0.00  0.00    +0.000 C 
BRANCH   8  13
ATOM      9  C   UNL     1      48.934   4.460  17.716  0.00  0.00    +0.000 A 
ATOM     10  C   UNL     1      49.978   3.869  18.418  0.00  0.00    +0.000 A 
ATOM     11  C   UNL     1      51.133   4.612  18.624  0.00  0.00    +0.000 A 
ATOM     12  C   UNL     1      51.206   5.910  18.125  0.00  0.00    +0.000 A 
ATOM     13  C   UNL     1      50.121   6.432  17.415  0.00  0.00    +0.000 A 
ATOM     14  N   UNL     1      48.983   5.720  17.214  0.00  0.00    +0.000 NA
BRANCH   9  16
ATOM     15  N   UNL     1      46.703   3.197  17.292  0.00  0.00    +0.000 NA
ATOM     16  C   UNL     1      47.713   3.741  17.489  0.00  0.00    +0.000 C 
ENDBRANCH   9  16
ENDBRANCH   8  13
ENDBRANCH   2   8
ENDBRANCH   1   5
BRANCH   1  17
ATOM     17  N   UNL     1      46.688   6.718  11.548  0.00  0.00    +0.000 N 
ATOM     18  C   UNL     1      45.323   6.600  11.539  0.00  0.00    +0.000 C 
ATOM     19  O   UNL     1      44.583   7.573  11.662  0.00  0.00    +0.000 OA
ATOM     20  H   UNL     1      47.263   5.891  11.670  0.00  0.00    +0.000 HD
BRANCH  18  21
ATOM     21  C   UNL     1      44.788   5.255  11.305  0.00  0.00    +0.000 A 
ATOM     22  C   UNL     1      44.027   4.633  12.286  0.00  0.00    +0.000 A 
ATOM     23  S   UNL     1      43.424   3.109  11.818  0.00  0.00    +0.000 S 
ATOM     24  C   UNL     1      44.204   3.201  10.309  0.00  0.00    +0.000 A 
ATOM     25  N   UNL     1      44.104   2.189   9.406  0.00  0.00    +0.000 NA
ATOM     26  C   UNL     1      44.775   2.376   8.318  0.00  0.00    +0.000 A 
ATOM     27  N   UNL     1      45.534   3.485   8.051  0.00  0.00    +0.000 N 
ATOM     28  C   UNL     1      45.642   4.544   8.919  0.00  0.00    +0.000 A 
ATOM     29  O   UNL     1      46.301   5.538   8.633  0.00  0.00    +0.000 OA
ATOM     30  C   UNL     1      44.909   4.382  10.160  0.00  0.00    +0.000 A 
ATOM     31  H   UNL     1      46.033   3.572   7.178  0.00  0.00    +0.000 HD
ENDBRANCH  18  21
ENDBRANCH   1  17
TORSDOF 6
ENDMDL
MODEL 6
REMARK VINA RESULT:    -6.890      3.913      5.639
REMARK INTER + INTRA:         -10.224
REMARK INTER:                  -9.367
REMARK INTRA:                  -0.856
REMARK UNBOUND:                -0.917
REMARK  Name = 
REMARK  6 active torsions:
REMARK  status: ('A' for Active; 'I' for Inactive)
REMARK    1  A    between atoms: C_2  and  C_3
REMARK    2  A    between atoms: C_7  and  C_8
REMARK    3  A    between atoms: C_8  and  C_9
REMARK    4  A    between atoms: C_12  and  C_13
REMARK    5  A    between atoms: C_13  and  N_14
REMARK    6  A    between atoms: C_15  and  C_17
REMARK                            x       y       z     vdW  Elec       q    Type
REMARK                         _______ _______ _______ _____ _____    ______ ____
ROOT
ATOM      1  C   UNL     1      48.748   4.865  17.571  0.00  0.00    +0.000 C 
ENDROOT
BRANCH   1   5
ATOM      2  C   UNL     1      47.181   5.886  13.670  0.00  0.00    +0.000 A 
ATOM      3  C   UNL     1      46.757   4.720  14.321  0.00  0.00    +0.000 A 
ATOM      4  C   UNL     1      47.284   4.372  15.569  0.00  0.00    +0.000 A 
ATOM      5  C   UNL     1      48.225   5.197  16.198  0.00  0.00    +0.000 A 
ATOM      6  C   UNL     1      48.691   6.330  15.521  0.00  0.00    +0.000 A 
ATOM      7  C   UNL     1      48.174   6.673  14.270  0.00  0.00    +0.000 A 
BRANCH   2   8
ATOM      8  C   UNL     1      46.529   6.322  12.375  0.00  0.00    +0.000 C 
BRANCH   8  13
ATOM      9  C   UNL     1      44.304   3.815  10.811  0.00  0.00    +0.000 A 
ATOM     10  C   UNL     1      43.050   4.058  11.362  0.00  0.00    +0.000 A 
ATOM     11  C   UNL     1      42.927   5.095  12.277  0.00  0.00    +0.000 A 
ATOM     12  C   UNL     1      44.051   5.847  12.610  0.00  0.00    +0.000 A 
ATOM     13  C   UNL     1      45.281   5.534  12.027  0.00  0.00    +0.000 A 
ATOM     14  N   UNL     1      45.415   4.529  11.125  0.00  0.00    +0.000 NA
BRANCH   9  16
ATOM     15  N   UNL     1      44.644   1.887   9.103  0.00  0.00    +0.000 NA
ATOM     16  C   UNL     1      44.483   2.765   9.849  0.00  0.00    +0.000 C 
ENDBRANCH   9  16
ENDBRANCH   8  13
ENDBRANCH   2   8
ENDBRANCH   1   5
BRANCH   1  17
ATOM     17  N   UNL     1      50.087   4.346  17.508  0.00  0.00    +0.000 N 
ATOM     18  C   UNL     1      50.906   4.360  18.607  0.00  0.00    +0.000 C 
ATOM     19  O   UNL     1      50.525   4.772  19.699  0.00  0.00    +0.000 OA
ATOM     20  H   UNL     1      50.487   4.215  16.585  0.00  0.00    +0.000 HD
BRANCH  18  21
ATOM     21  C   UNL     1      52.245   3.789  18.426  0.00  0.00    +0.000 A 
ATOM     22  C   UNL     1      53.366   4.547  18.738  0.00  0.00    +0.000 A 
ATOM     23  S   UNL     1      54.835   3.705  18.541  0.00  0.00    +0.000 S 
ATOM     24  C   UNL     1      54.029   2.317  17.980  0.00  0.00    +0.000 A 
ATOM     25  N   UNL     1      54.720   1.203  17.617  0.00  0.00    +0.000 NA
ATOM     26  C   UNL     1      53.984   0.237  17.177  0.00  0.00    +0.000 A 
ATOM     27  N   UNL     1      52.619   0.283  17.071  0.00  0.00    +0.000 N 
ATOM     28  C   UNL     1      51.876   1.374  17.452  0.00  0.00    +0.000 A 
ATOM     29  O   UNL     1      50.652   1.367  17.377  0.00  0.00    +0.000 OA
ATOM     30  C   UNL     1      52.656   2.490  17.951  0.00  0.00    +0.000 A 
ATOM     31  H   UNL     1      52.101  -0.509  16.721  0.00  0.00    +0.000 HD
ENDBRANCH  18  21
ENDBRANCH   1  17
TORSDOF 6
ENDMDL
MODEL 7
REMARK VINA RESULT:    -6.852      2.301      3.609
REMARK INTER + INTRA:         -10.173
REMARK INTER:                  -8.875
REMARK INTRA:                  -1.298
REMARK UNBOUND:                -0.917
REMARK  Name = 
REMARK  6 active torsions:
REMARK  status: ('A' for Active; 'I' for Inactive)
REMARK    1  A    between atoms: C_2  and  C_3
REMARK    2  A    between atoms: C_7  and  C_8
REMARK    3  A    between atoms: C_8  and  C_9
REMARK    4  A    between atoms: C_12  and  C_13
REMARK    5  A    between atoms: C_13  and  N_14
REMARK    6  A    between atoms: C_15  and  C_17
REMARK                            x       y       z     vdW  Elec       q    Type
REMARK                         _______ _______ _______ _____ _____    ______ ____
ROOT
ATOM      1  C   UNL     1      49.422   8.589  14.064  0.00  0.00    +0.000 C 
ENDROOT
BRANCH   1   5
ATOM      2  C   UNL     1      45.821   7.477  11.940  0.00  0.00    +0.000 A 
ATOM      3  C   UNL     1      46.950   6.648  11.904  0.00  0.00    +0.000 A 
ATOM      4  C   UNL     1      48.124   7.019  12.565  0.00  0.00    +0.000 A 
ATOM      5  C   UNL     1      48.183   8.213  13.294  0.00  0.00    +0.000 A 
ATOM      6  C   UNL     1      47.075   9.069  13.281  0.00  0.00    +0.000 A 
ATOM      7  C   UNL     1      45.904   8.705  12.612  0.00  0.00    +0.000 A 
BRANCH   2   8
ATOM      8  C   UNL     1      44.515   7.023  11.323  0.00  0.00    +0.000 C 
BRANCH   8  13
ATOM      9  C   UNL     1      44.193   3.377  10.788  0.00  0.00    +0.000 A 
ATOM     10  C   UNL     1      43.656   2.890  11.974  0.00  0.00    +0.000 A 
ATOM     11  C   UNL     1      43.378   3.796  12.989  0.00  0.00    +0.000 A 
ATOM     12  C   UNL     1      43.645   5.147  12.787  0.00  0.00    +0.000 A 
ATOM     13  C   UNL     1      44.199   5.562  11.573  0.00  0.00    +0.000 A 
ATOM     14  N   UNL     1      44.468   4.689  10.570  0.00  0.00    +0.000 NA
BRANCH   9  16
ATOM     15  N   UNL     1      44.745   1.736   8.851  0.00  0.00    +0.000 NA
ATOM     16  C   UNL     1      44.485   2.485   9.702  0.00  0.00    +0.000 C 
ENDBRANCH   9  16
ENDBRANCH   8  13
ENDBRANCH   2   8
ENDBRANCH   1   5
BRANCH   1  17
ATOM     17  N   UNL     1      49.560   7.791  15.253  0.00  0.00    +0.000 N 
ATOM     18  C   UNL     1      48.981   8.175  16.435  0.00  0.00    +0.000 C 
ATOM     19  O   UNL     1      48.290   9.186  16.525  0.00  0.00    +0.000 OA
ATOM     20  H   UNL     1      50.295   7.093  15.256  0.00  0.00    +0.000 HD
BRANCH  18  21
ATOM     21  C   UNL     1      49.176   7.274  17.576  0.00  0.00    +0.000 A 
ATOM     22  C   UNL     1      49.720   7.763  18.756  0.00  0.00    +0.000 A 
ATOM     23  S   UNL     1      49.805   6.600  20.000  0.00  0.00    +0.000 S 
ATOM     24  C   UNL     1      49.171   5.389  18.988  0.00  0.00    +0.000 A 
ATOM     25  N   UNL     1      48.992   4.119  19.442  0.00  0.00    +0.000 NA
ATOM     26  C   UNL     1      48.536   3.295  18.558  0.00  0.00    +0.000 A 
ATOM     27  N   UNL     1      48.240   3.627  17.262  0.00  0.00    +0.000 N 
ATOM     28  C   UNL     1      48.377   4.901  16.767  0.00  0.00    +0.000 A 
ATOM     29  O   UNL     1      48.068   5.172  15.611  0.00  0.00    +0.000 OA
ATOM     30  C   UNL     1      48.889   5.866  17.720  0.00  0.00    +0.000 A 
ATOM     31  H   UNL     1      47.883   2.935  16.620  0.00  0.00    +0.000 HD
ENDBRANCH  18  21
ENDBRANCH   1  17
TORSDOF 6
ENDMDL
MODEL 8
REMARK VINA RESULT:    -6.612      2.877      4.564
REMARK INTER + INTRA:          -9.848
REMARK INTER:                  -8.676
REMARK INTRA:                  -1.172
REMARK UNBOUND:                -0.917
REMARK  Name = 
REMARK  6 active torsions:
REMARK  status: ('A' for Active; 'I' for Inactive)
REMARK    1  A    between atoms: C_2  and  C_3
REMARK    2  A    between atoms: C_7  and  C_8
REMARK    3  A    between atoms: C_8  and  C_9
REMARK    4  A    between atoms: C_12  and  C_13
REMARK    5  A    between atoms: C_13  and  N_14
REMARK    6  A    between atoms: C_15  and  C_17
REMARK                            x       y       z     vdW  Elec       q    Type
REMARK                         _______ _______ _______ _____ _____    ______ ____
ROOT
ATOM      1  C   UNL     1      49.441   8.010  15.957  0.00  0.00    +0.000 C 
ENDROOT
BRANCH   1   5
ATOM      2  C   UNL     1      46.845   7.288  12.572  0.00  0.00    +0.000 A 
ATOM      3  C   UNL     1      47.801   6.335  12.949  0.00  0.00    +0.000 A 
ATOM      4  C   UNL     1      48.660   6.579  14.024  0.00  0.00    +0.000 A 
ATOM      5  C   UNL     1      48.564   7.768  14.757  0.00  0.00    +0.000 A 
ATOM      6  C   UNL     1      47.649   8.744  14.343  0.00  0.00    +0.000 A 
ATOM      7  C   UNL     1      46.797   8.507  13.263  0.00  0.00    +0.000 A 
BRANCH   2   8
ATOM      8  C   UNL     1      45.840   6.977  11.484  0.00  0.00    +0.000 C 
BRANCH   8  13
ATOM      9  C   UNL     1      44.466   3.591  10.914  0.00  0.00    +0.000 A 
ATOM     10  C   UNL     1      43.731   3.308  12.060  0.00  0.00    +0.000 A 
ATOM     11  C   UNL     1      43.674   4.273  13.058  0.00  0.00    +0.000 A 
ATOM     12  C   UNL     1      44.349   5.477  12.879  0.00  0.00    +0.000 A 
ATOM     13  C   UNL     1      45.081   5.684  11.707  0.00  0.00    +0.000 A 
ATOM     14  N   UNL     1      45.138   4.754  10.721  0.00  0.00    +0.000 NA
BRANCH   9  16
ATOM     15  N   UNL     1      44.624   1.828   9.012  0.00  0.00    +0.000 NA
ATOM     16  C   UNL     1      44.545   2.634   9.847  0.00  0.00    +0.000 C 
ENDBRANCH   9  16
ENDBRANCH   8  13
ENDBRANCH   2   8
ENDBRANCH   1   5
BRANCH   1  17
ATOM     17  N   UNL     1      50.275   6.871  16.232  0.00  0.00    +0.000 N 
ATOM     18  C   UNL     1      50.654   6.562  17.512  0.00  0.00    +0.000 C 
ATOM     19  O   UNL     1      50.268   7.209  18.482  0.00  0.00    +0.000 OA
ATOM     20  H   UNL     1      50.778   6.469  15.448  0.00  0.00    +0.000 HD
BRANCH  18  21
ATOM     21  C   UNL     1      51.492   5.369  17.671  0.00  0.00    +0.000 A 
ATOM     22  C   UNL     1      52.823   5.505  18.043  0.00  0.00    +0.000 A 
ATOM     23  S   UNL     1      53.627   4.017  18.255  0.00  0.00    +0.000 S 
ATOM     24  C   UNL     1      52.242   3.140  17.804  0.00  0.00    +0.000 A 
ATOM     25  N   UNL     1      52.256   1.780  17.762  0.00  0.00    +0.000 NA
ATOM     26  C   UNL     1      51.147   1.246  17.370  0.00  0.00    +0.000 A 
ATOM     27  N   UNL     1      50.025   1.949  17.018  0.00  0.00    +0.000 N 
ATOM     28  C   UNL     1      49.954   3.320  17.070  0.00  0.00    +0.000 A 
ATOM     29  O   UNL     1      48.921   3.916  16.783  0.00  0.00    +0.000 OA
ATOM     30  C   UNL     1      51.176   3.970  17.503  0.00  0.00    +0.000 A 
ATOM     31  H   UNL     1      49.187   1.471  16.721  0.00  0.00    +0.000 HD
ENDBRANCH  18  21
ENDBRANCH   1  17
TORSDOF 6
ENDMDL
MODEL 9
REMARK VINA RESULT:    -6.326      3.271      4.593
REMARK INTER + INTRA:          -9.461
REMARK INTER:                  -9.132
REMARK INTRA:                  -0.329
REMARK UNBOUND:                -0.917
REMARK  Name = 
REMARK  6 active torsions:
REMARK  status: ('A' for Active; 'I' for Inactive)
REMARK    1  A    between atoms: C_2  and  C_3
REMARK    2  A    between atoms: C_7  and  C_8
REMARK    3  A    between atoms: C_8  and  C_9
REMARK    4  A    between atoms: C_12  and  C_13
REMARK    5  A    between atoms: C_13  and  N_14
REMARK    6  A    between atoms: C_15  and  C_17
REMARK                            x       y       z     vdW  Elec       q    Type
REMARK                         _______ _______ _______ _____ _____    ______ ____
ROOT
ATOM      1  C   UNL     1      47.556   4.845  16.419  0.00  0.00    +0.000 C 
ENDROOT
BRANCH   1   5
ATOM      2  C   UNL     1      46.691   5.896  12.312  0.00  0.00    +0.000 A 
ATOM      3  C   UNL     1      46.104   4.763  12.893  0.00  0.00    +0.000 A 
ATOM      4  C   UNL     1      46.405   4.405  14.210  0.00  0.00    +0.000 A 
ATOM      5  C   UNL     1      47.278   5.186  14.978  0.00  0.00    +0.000 A 
ATOM      6  C   UNL     1      47.909   6.283  14.378  0.00  0.00    +0.000 A 
ATOM      7  C   UNL     1      47.618   6.636  13.059  0.00  0.00    +0.000 A 
BRANCH   2   8
ATOM      8  C   UNL     1      46.278   6.348  10.928  0.00  0.00    +0.000 C 
BRANCH   8  13
ATOM      9  C   UNL     1      45.673   3.955   8.173  0.00  0.00    +0.000 A 
ATOM     10  C   UNL     1      44.524   3.267   8.545  0.00  0.00    +0.000 A 
ATOM     11  C   UNL     1      43.915   3.609   9.746  0.00  0.00    +0.000 A 
ATOM     12  C   UNL     1      44.471   4.618  10.528  0.00  0.00    +0.000 A 
ATOM     13  C   UNL     1      45.637   5.255  10.096  0.00  0.00    +0.000 A 
ATOM     14  N   UNL     1      46.238   4.937   8.922  0.00  0.00    +0.000 NA
BRANCH   9  16
ATOM     15  N   UNL     1      46.829   3.385   5.917  0.00  0.00    +0.000 NA
ATOM     16  C   UNL     1      46.333   3.651   6.935  0.00  0.00    +0.000 C 
ENDBRANCH   9  16
ENDBRANCH   8  13
ENDBRANCH   2   8
ENDBRANCH   1   5
BRANCH   1  17
ATOM     17  N   UNL     1      48.926   4.451  16.607  0.00  0.00    +0.000 N 
ATOM     18  C   UNL     1      49.624   4.825  17.726  0.00  0.00    +0.000 C 
ATOM     19  O   UNL     1      49.106   5.470  18.633  0.00  0.00    +0.000 OA
ATOM     20  H   UNL     1      49.427   4.122  15.788  0.00  0.00    +0.000 HD
BRANCH  18  21
ATOM     21  C   UNL     1      51.009   4.351  17.815  0.00  0.00    +0.000 A 
ATOM     22  C   UNL     1      52.027   5.246  18.117  0.00  0.00    +0.000 A 
ATOM     23  S   UNL     1      53.560   4.514  18.256  0.00  0.00    +0.000 S 
ATOM     24  C   UNL     1      52.928   2.985  17.862  0.00  0.00    +0.000 A 
ATOM     25  N   UNL     1      53.733   1.890  17.793  0.00  0.00    +0.000 NA
ATOM     26  C   UNL     1      53.126   0.802  17.450  0.00  0.00    +0.000 A 
ATOM     27  N   UNL     1      51.788   0.710  17.172  0.00  0.00    +0.000 N 
ATOM     28  C   UNL     1      50.931   1.780  17.257  0.00  0.00    +0.000 A 
ATOM     29  O   UNL     1      49.731   1.655  17.037  0.00  0.00    +0.000 OA
ATOM     30  C   UNL     1      51.564   3.029  17.636  0.00  0.00    +0.000 A 
ATOM     31  H   UNL     1      51.373  -0.173  16.912  0.00  0.00    +0.000 HD
ENDBRANCH  18  21
ENDBRANCH   1  17
TORSDOF 6
ENDMDL
