MODEL 1
REMARK VINA RESULT:    -7.341      0.000      0.000
REMARK INTER + INTRA:         -11.898
REMARK INTER:                 -10.774
REMARK INTRA:                  -1.123
REMARK UNBOUND:                -1.123
REMARK  Name = 
REMARK  9 active torsions:
REMARK  status: ('A' for Active; 'I' for Inactive)
REMARK    1  A    between atoms: C_1  and  C_2
REMARK    2  A    between atoms: C_2  and  C_3
REMARK    3  A    between atoms: C_3  and  O_4
REMARK    4  A    between atoms: C_3  and  C_19
REMARK    5  A    between atoms: O_4  and  C_5
REMARK    6  A    between atoms: C_8  and  C_9
REMARK    7  A    between atoms: C_9  and  N_10
REMARK    8  A    between atoms: N_10  and  C_11
REMARK    9  A    between atoms: C_11  and  C_12
REMARK                            x       y       z     vdW  Elec       q    Type
REMARK                         _______ _______ _______ _____ _____    ______ ____
ROOT
ATOM      1  C   UNL     1      46.220   6.269  12.762  0.00  0.00    +0.000 A 
ATOM      2  C   UNL     1      45.286   5.358  13.250  0.00  0.00    +0.000 A 
ATOM      3  C   UNL     1      44.519   4.601  12.363  0.00  0.00    +0.000 A 
ATOM      4  C   UNL     1      44.698   4.789  10.994  0.00  0.00    +0.000 A 
ATOM      5  N   UNL     1      45.596   5.673  10.493  0.00  0.00    +0.000 NA
ATOM      6  C   UNL     1      46.326   6.392  11.384  0.00  0.00    +0.000 A 
ENDROOT
BRANCH   1   7
ATOM      7  O   UNL     1      46.910   6.979  13.697  0.00  0.00    +0.000 OA
BRANCH   7   8
ATOM      8  C   UNL     1      48.294   6.638  13.916  0.00  0.00    +0.000 C 
BRANCH   8   9
ATOM      9  C   UNL     1      48.481   6.400  15.405  0.00  0.00    +0.000 A 
ATOM     10  C   UNL     1      48.903   7.369  16.301  0.00  0.00    +0.000 A 
ATOM     11  S   UNL     1      48.873   6.845  17.926  0.00  0.00    +0.000 S 
ATOM     12  C   UNL     1      48.283   5.311  17.481  0.00  0.00    +0.000 A 
ATOM     13  N   UNL     1      47.966   4.378  18.419  0.00  0.00    +0.000 NA
ATOM     14  C   UNL     1      47.515   3.270  17.931  0.00  0.00    +0.000 A 
ATOM     15  N   UNL     1      47.383   2.996  16.594  0.00  0.00    +0.000 N 
ATOM     16  C   UNL     1      47.749   3.884  15.608  0.00  0.00    +0.000 A 
ATOM     17  O   UNL     1      47.732   3.571  14.423  0.00  0.00    +0.000 OA
ATOM     18  C   UNL     1      48.179   5.178  16.110  0.00  0.00    +0.000 A 
ATOM     19  H   UNL     1      47.074   2.089  16.281  0.00  0.00    +0.000 HD
ENDBRANCH   8   9
BRANCH   8  21
ATOM     20  C   UNL     1      49.775   7.486  12.016  0.00  0.00    +0.000 C 
ATOM     21  C   UNL     1      49.166   7.787  13.376  0.00  0.00    +0.000 C 
ENDBRANCH   8  21
ENDBRANCH   7   8
ENDBRANCH   1   7
BRANCH   4  22
ATOM     22  C   UNL     1      43.897   3.982   9.992  0.00  0.00    +0.000 C 
BRANCH  22  23
ATOM     23  N   UNL     1      44.162   4.342   8.589  0.00  0.00    +0.000 NA
ATOM     24  H   UNL     1      44.829   5.117   8.622  0.00  0.00    +0.000 HD
BRANCH  23  25
ATOM     25  C   UNL     1      44.765   3.235   7.833  0.00  0.00    +0.000 C 
BRANCH  25  26
ATOM     26  C   UNL     1      46.309   3.355   7.744  0.00  0.00    +0.000 C 
ATOM     27  C   UNL     1      47.045   2.027   7.611  0.00  0.00    +0.000 C 
ATOM     28  C   UNL     1      47.054   1.749   6.119  0.00  0.00    +0.000 C 
ATOM     29  C   UNL     1      46.946   3.117   5.467  0.00  0.00    +0.000 C 
ATOM     30  N   UNL     1      46.751   4.088   6.544  0.00  0.00    +0.000 NA
ATOM     31  H   UNL     1      46.077   4.801   6.273  0.00  0.00    +0.000 HD
ENDBRANCH  25  26
ENDBRANCH  23  25
ENDBRANCH  22  23
ENDBRANCH   4  22
TORSDOF 8
ENDMDL
MODEL 2
REMARK VINA RESULT:    -6.793      2.325      3.487
REMARK INTER + INTRA:         -11.094
REMARK INTER:                 -10.906
REMARK INTRA:                  -0.188
REMARK UNBOUND:                -1.123
REMARK  Name = 
REMARK  9 active torsions:
REMARK  status: ('A' for Active; 'I' for Inactive)
REMARK    1  A    between atoms: C_1  and  C_2
REMARK    2  A    between atoms: C_2  and  C_3
REMARK    3  A    between atoms: C_3  and  O_4
REMARK    4  A    between atoms: C_3  and  C_19
REMARK    5  A    between atoms: O_4  and  C_5
REMARK    6  A    between atoms: C_8  and  C_9
REMARK    7  A    between atoms: C_9  and  N_10
REMARK    8  A    between atoms: N_10  and  C_11
REMARK    9  A    between atoms: C_11  and  C_12
REMARK                            x       y       z     vdW  Elec       q    Type
REMARK                         _______ _______ _______ _____ _____    ______ ____
ROOT
ATOM      1  C   UNL     1      47.223   4.701  14.444  0.00  0.00    +0.000 A 
ATOM      2  C   UNL     1      47.701   5.844  13.806  0.00  0.00    +0.000 A 
ATOM      3  C   UNL     1      46.973   6.418  12.762  0.00  0.00    +0.000 A 
ATOM      4  C   UNL     1      45.779   5.817  12.370  0.00  0.00    +0.000 A 
ATOM      5  N   UNL     1      45.295   4.701  12.970  0.00  0.00    +0.000 NA
ATOM      6  C   UNL     1      46.028   4.170  13.981  0.00  0.00    +0.000 A 
ENDROOT
BRANCH   1   7
ATOM      7  O   UNL     1      48.007   4.198  15.436  0.00  0.00    +0.000 OA
BRANCH   7   8
ATOM      8  C   UNL     1      48.161   4.982  16.636  0.00  0.00    +0.000 C 
BRANCH   8   9
ATOM      9  C   UNL     1      49.609   4.864  17.083  0.00  0.00    +0.000 A 
ATOM     10  C   UNL     1      50.380   5.932  17.513  0.00  0.00    +0.000 A 
ATOM     11  S   UNL     1      51.918   5.464  18.091  0.00  0.00    +0.000 S 
ATOM     12  C   UNL     1      51.593   3.819  17.794  0.00  0.00    +0.000 A 
ATOM     13  N   UNL     1      52.486   2.851  18.136  0.00  0.00    +0.000 NA
ATOM     14  C   UNL     1      52.094   1.650  17.865  0.00  0.00    +0.000 A 
ATOM     15  N   UNL     1      50.908   1.330  17.254  0.00  0.00    +0.000 N 
ATOM     16  C   UNL     1      50.003   2.277  16.834  0.00  0.00    +0.000 A 
ATOM     17  O   UNL     1      49.006   1.972  16.187  0.00  0.00    +0.000 OA
ATOM     18  C   UNL     1      50.360   3.637  17.198  0.00  0.00    +0.000 A 
ATOM     19  H   UNL     1      50.688   0.373  17.024  0.00  0.00    +0.000 HD
ENDBRANCH   8   9
BRANCH   8  21
ATOM     20  C   UNL     1      46.991   5.405  18.867  0.00  0.00    +0.000 C 
ATOM     21  C   UNL     1      47.164   4.461  17.687  0.00  0.00    +0.000 C 
ENDBRANCH   8  21
ENDBRANCH   7   8
ENDBRANCH   1   7
BRANCH   4  22
ATOM     22  C   UNL     1      44.947   6.409  11.249  0.00  0.00    +0.000 C 
BRANCH  22  23
ATOM     23  N   UNL     1      44.448   5.414  10.287  0.00  0.00    +0.000 NA
ATOM     24  H   UNL     1      43.748   5.899   9.721  0.00  0.00    +0.000 HD
BRANCH  23  25
ATOM     25  C   UNL     1      45.508   4.915   9.400  0.00  0.00    +0.000 C 
BRANCH  25  26
ATOM     26  C   UNL     1      44.946   4.049   8.242  0.00  0.00    +0.000 C 
ATOM     27  C   UNL     1      46.003   3.467   7.310  0.00  0.00    +0.000 C 
ATOM     28  C   UNL     1      46.423   2.171   7.979  0.00  0.00    +0.000 C 
ATOM     29  C   UNL     1      45.224   1.759   8.818  0.00  0.00    +0.000 C 
ATOM     30  N   UNL     1      44.247   2.844   8.724  0.00  0.00    +0.000 NA
ATOM     31  H   UNL     1      43.798   3.008   9.623  0.00  0.00    +0.000 HD
ENDBRANCH  25  26
ENDBRANCH  23  25
ENDBRANCH  22  23
ENDBRANCH   4  22
TORSDOF 8
ENDMDL
MODEL 3
REMARK VINA RESULT:    -6.526      3.271      7.754
REMARK INTER + INTRA:         -10.702
REMARK INTER:                  -9.502
REMARK INTRA:                  -1.199
REMARK UNBOUND:                -1.123
REMARK  Name = 
REMARK  9 active torsions:
REMARK  status: ('A' for Active; 'I' for Inactive)
REMARK    1  A    between atoms: C_1  and  C_2
REMARK    2  A    between atoms: C_2  and  C_3
REMARK    3  A    between atoms: C_3  and  O_4
REMARK    4  A    between atoms: C_3  and  C_19
REMARK    5  A    between atoms: O_4  and  C_5
REMARK    6  A    between atoms: C_8  and  C_9
REMARK    7  A    between atoms: C_9  and  N_10
REMARK    8  A    between atoms: N_10  and  C_11
REMARK    9  A    between atoms: C_11  and  C_12
REMARK                            x       y       z     vdW  Elec       q    Type
REMARK                         _______ _______ _______ _____ _____    ______ ____
ROOT
ATOM      1  C   UNL     1      48.069   7.002  12.717  0.00  0.00    +0.000 A 
ATOM      2  C   UNL     1      49.197   7.820  12.746  0.00  0.00    +0.000 A 
ATOM      3  C   UNL     1      50.036   7.814  13.861  0.00  0.00    +0.000 A 
ATOM      4  C   UNL     1      49.712   6.991  14.938  0.00  0.00    +0.000 A 
ATOM      5  N   UNL     1      48.617   6.190  14.938  0.00  0.00    +0.000 NA
ATOM      6  C   UNL     1      47.824   6.221  13.837  0.00  0.00    +0.000 A 
ENDROOT
BRANCH   1   7
ATOM      7  O   UNL     1      47.297   7.086  11.599  0.00  0.00    +0.000 OA
BRANCH   7   8
ATOM      8  C   UNL     1      45.868   6.978  11.758  0.00  0.00    +0.000 C 
BRANCH   8   9
ATOM      9  C   UNL     1      45.394   5.820  10.894  0.00  0.00    +0.000 A 
ATOM     10  C   UNL     1      45.746   5.647   9.565  0.00  0.00    +0.000 A 
ATOM     11  S   UNL     1      45.182   4.177   8.904  0.00  0.00    +0.000 S 
ATOM     12  C   UNL     1      44.461   3.724  10.378  0.00  0.00    +0.000 A 
ATOM     13  N   UNL     1      43.855   2.515  10.524  0.00  0.00    +0.000 NA
ATOM     14  C   UNL     1      43.369   2.306  11.703  0.00  0.00    +0.000 A 
ATOM     15  N   UNL     1      43.403   3.205  12.738  0.00  0.00    +0.000 N 
ATOM     16  C   UNL     1      43.949   4.463  12.619  0.00  0.00    +0.000 A 
ATOM     17  O   UNL     1      43.863   5.289  13.520  0.00  0.00    +0.000 OA
ATOM     18  C   UNL     1      44.588   4.710  11.337  0.00  0.00    +0.000 A 
ATOM     19  H   UNL     1      42.957   2.998  13.618  0.00  0.00    +0.000 HD
ENDBRANCH   8   9
BRANCH   8  21
ATOM     20  C   UNL     1      45.247   9.346  12.487  0.00  0.00    +0.000 C 
ATOM     21  C   UNL     1      45.234   8.323  11.361  0.00  0.00    +0.000 C 
ENDBRANCH   8  21
ENDBRANCH   7   8
ENDBRANCH   1   7
BRANCH   4  22
ATOM     22  C   UNL     1      50.599   6.941  16.167  0.00  0.00    +0.000 C 
BRANCH  22  23
ATOM     23  N   UNL     1      50.022   6.181  17.287  0.00  0.00    +0.000 NA
ATOM     24  H   UNL     1      49.056   5.978  17.018  0.00  0.00    +0.000 HD
BRANCH  23  25
ATOM     25  C   UNL     1      50.722   4.910  17.518  0.00  0.00    +0.000 C 
BRANCH  25  26
ATOM     26  C   UNL     1      49.838   3.878  18.266  0.00  0.00    +0.000 C 
ATOM     27  C   UNL     1      48.349   3.969  17.956  0.00  0.00    +0.000 C 
ATOM     28  C   UNL     1      48.170   3.114  16.715  0.00  0.00    +0.000 C 
ATOM     29  C   UNL     1      49.313   2.114  16.762  0.00  0.00    +0.000 C 
ATOM     30  N   UNL     1      50.158   2.486  17.897  0.00  0.00    +0.000 NA
ATOM     31  H   UNL     1      51.143   2.379  17.669  0.00  0.00    +0.000 HD
ENDBRANCH  25  26
ENDBRANCH  23  25
ENDBRANCH  22  23
ENDBRANCH   4  22
TORSDOF 8
ENDMDL
MODEL 4
REMARK VINA RESULT:    -6.481      1.675      2.128
REMARK INTER + INTRA:         -10.636
REMARK INTER:                  -9.842
REMARK INTRA:                  -0.794
REMARK UNBOUND:                -1.123
REMARK  Name = 
REMARK  9 active torsions:
REMARK  status: ('A' for Active; 'I' for Inactive)
REMARK    1  A    between atoms: C_1  and  C_2
REMARK    2  A    between atoms: C_2  and  C_3
REMARK    3  A    between atoms: C_3  and  O_4
REMARK    4  A    between atoms: C_3  and  C_19
REMARK    5  A    between atoms: O_4  and  C_5
REMARK    6  A    between atoms: C_8  and  C_9
REMARK    7  A    between atoms: C_9  and  N_10
REMARK    8  A    between atoms: N_10  and  C_11
REMARK    9  A    between atoms: C_11  and  C_12
REMARK                            x       y       z     vdW  Elec       q    Type
REMARK                         _______ _______ _______ _____ _____    ______ ____
ROOT
ATOM      1  C   UNL     1      46.279   6.682  12.918  0.00  0.00    +0.000 A 
ATOM      2  C   UNL     1      46.239   5.475  13.613  0.00  0.00    +0.000 A 
ATOM      3  C   UNL     1      45.300   4.501  13.269  0.00  0.00    +0.000 A 
ATOM      4  C   UNL     1      44.406   4.769  12.235  0.00  0.00    +0.000 A 
ATOM      5  N   UNL     1      44.419   5.938  11.547  0.00  0.00    +0.000 NA
ATOM      6  C   UNL     1      45.345   6.862  11.907  0.00  0.00    +0.000 A 
ENDROOT
BRANCH   1   7
ATOM      7  O   UNL     1      47.212   7.582  13.333  0.00  0.00    +0.000 OA
BRANCH   7   8
ATOM      8  C   UNL     1      48.456   7.070  13.853  0.00  0.00    +0.000 C 
BRANCH   8   9
ATOM      9  C   UNL     1      48.669   7.685  15.227  0.00  0.00    +0.000 A 
ATOM     10  C   UNL     1      48.830   9.042  15.455  0.00  0.00    +0.000 A 
ATOM     11  S   UNL     1      48.900   9.444  17.114  0.00  0.00    +0.000 S 
ATOM     12  C   UNL     1      48.705   7.817  17.576  0.00  0.00    +0.000 A 
ATOM     13  N   UNL     1      48.605   7.462  18.885  0.00  0.00    +0.000 NA
ATOM     14  C   UNL     1      48.443   6.195  19.080  0.00  0.00    +0.000 A 
ATOM     15  N   UNL     1      48.404   5.247  18.089  0.00  0.00    +0.000 N 
ATOM     16  C   UNL     1      48.563   5.550  16.756  0.00  0.00    +0.000 A 
ATOM     17  O   UNL     1      48.641   4.674  15.902  0.00  0.00    +0.000 OA
ATOM     18  C   UNL     1      48.659   6.974  16.482  0.00  0.00    +0.000 A 
ATOM     19  H   UNL     1      48.328   4.268  18.315  0.00  0.00    +0.000 HD
ENDBRANCH   8   9
BRANCH   8  21
ATOM     20  C   UNL     1      49.053   7.844  11.494  0.00  0.00    +0.000 C 
ATOM     21  C   UNL     1      49.577   7.420  12.858  0.00  0.00    +0.000 C 
ENDBRANCH   8  21
ENDBRANCH   7   8
ENDBRANCH   1   7
BRANCH   4  22
ATOM     22  C   UNL     1      43.375   3.738  11.817  0.00  0.00    +0.000 C 
BRANCH  22  23
ATOM     23  N   UNL     1      43.955   2.533  11.202  0.00  0.00    +0.000 NA
ATOM     24  H   UNL     1      43.187   2.080  10.700  0.00  0.00    +0.000 HD
BRANCH  23  25
ATOM     25  C   UNL     1      45.021   2.853  10.244  0.00  0.00    +0.000 C 
BRANCH  25  26
ATOM     26  C   UNL     1      44.735   2.280   8.831  0.00  0.00    +0.000 C 
ATOM     27  C   UNL     1      44.924   3.271   7.689  0.00  0.00    +0.000 C 
ATOM     28  C   UNL     1      46.400   3.176   7.349  0.00  0.00    +0.000 C 
ATOM     29  C   UNL     1      46.813   1.782   7.791  0.00  0.00    +0.000 C 
ATOM     30  N   UNL     1      45.658   1.190   8.465  0.00  0.00    +0.000 NA
ATOM     31  H   UNL     1      45.947   0.656   9.282  0.00  0.00    +0.000 HD
ENDBRANCH  25  26
ENDBRANCH  23  25
ENDBRANCH  22  23
ENDBRANCH   4  22
TORSDOF 8
ENDMDL
MODEL 5
REMARK VINA RESULT:    -6.192      1.822      2.509
REMARK INTER + INTRA:         -10.212
REMARK INTER:                  -9.123
REMARK INTRA:                  -1.089
REMARK UNBOUND:                -1.123
REMARK  Name = 
REMARK  9 active torsions:
REMARK  status: ('A' for Active; 'I' for Inactive)
REMARK    1  A    between atoms: C_1  and  C_2
REMARK    2  A    between atoms: C_2  and  C_3
REMARK    3  A    between atoms: C_3  and  O_4
REMARK    4  A    between atoms: C_3  and  C_19
REMARK    5  A    between atoms: O_4  and  C_5
REMARK    6  A    between atoms: C_8  and  C_9
REMARK    7  A    between atoms: C_9  and  N_10
REMARK    8  A    between atoms: N_10  and  C_11
REMARK    9  A    between atoms: C_11  and  C_12
REMARK                            x       y       z     vdW  Elec       q    Type
REMARK                         _______ _______ _______ _____ _____    ______ ____
ROOT
ATOM      1  C   UNL     1      47.525   7.387  13.510  0.00  0.00    +0.000 A 
ATOM      2  C   UNL     1      46.486   8.080  12.890  0.00  0.00    +0.000 A 
ATOM      3  C   UNL     1      45.404   7.382  12.352  0.00  0.00    +0.000 A 
ATOM      4  C   UNL     1      45.396   5.991  12.436  0.00  0.00    +0.000 A 
ATOM      5  N   UNL     1      46.396   5.293  13.029  0.00  0.00    +0.000 NA
ATOM      6  C   UNL     1      47.433   6.003  13.541  0.00  0.00    +0.000 A 
ENDROOT
BRANCH   1   7
ATOM      7  O   UNL     1      48.548   8.146  13.988  0.00  0.00    +0.000 OA
BRANCH   7   8
ATOM      8  C   UNL     1      49.454   7.537  14.931  0.00  0.00    +0.000 C 
BRANCH   8   9
ATOM      9  C   UNL     1      48.980   7.904  16.328  0.00  0.00    +0.000 A 
ATOM     10  C   UNL     1      48.787   9.204  16.767  0.00  0.00    +0.000 A 
ATOM     11  S   UNL     1      48.108   9.293  18.332  0.00  0.00    +0.000 S 
ATOM     12  C   UNL     1      48.042   7.597  18.463  0.00  0.00    +0.000 A 
ATOM     13  N   UNL     1      47.490   6.994  19.551  0.00  0.00    +0.000 NA
ATOM     14  C   UNL     1      47.496   5.703  19.500  0.00  0.00    +0.000 A 
ATOM     15  N   UNL     1      48.032   4.959  18.480  0.00  0.00    +0.000 N 
ATOM     16  C   UNL     1      48.656   5.523  17.391  0.00  0.00    +0.000 A 
ATOM     17  O   UNL     1      49.230   4.836  16.552  0.00  0.00    +0.000 OA
ATOM     18  C   UNL     1      48.594   6.974  17.361  0.00  0.00    +0.000 A 
ATOM     19  H   UNL     1      48.051   3.952  18.530  0.00  0.00    +0.000 HD
ENDBRANCH   8   9
BRANCH   8  21
ATOM     20  C   UNL     1      51.075   8.429  13.170  0.00  0.00    +0.000 C 
ATOM     21  C   UNL     1      50.877   8.040  14.628  0.00  0.00    +0.000 C 
ENDBRANCH   8  21
ENDBRANCH   7   8
ENDBRANCH   1   7
BRANCH   4  22
ATOM     22  C   UNL     1      44.237   5.189  11.877  0.00  0.00    +0.000 C 
BRANCH  22  23
ATOM     23  N   UNL     1      44.062   5.331  10.422  0.00  0.00    +0.000 NA
ATOM     24  H   UNL     1      44.001   6.336  10.245  0.00  0.00    +0.000 HD
BRANCH  23  25
ATOM     25  C   UNL     1      45.199   4.787   9.668  0.00  0.00    +0.000 C 
BRANCH  25  26
ATOM     26  C   UNL     1      44.748   3.987   8.418  0.00  0.00    +0.000 C 
ATOM     27  C   UNL     1      45.882   3.536   7.505  0.00  0.00    +0.000 C 
ATOM     28  C   UNL     1      46.338   2.215   8.095  0.00  0.00    +0.000 C 
ATOM     29  C   UNL     1      45.122   1.677   8.833  0.00  0.00    +0.000 C 
ATOM     30  N   UNL     1      44.092   2.714   8.767  0.00  0.00    +0.000 NA
ATOM     31  H   UNL     1      43.589   2.783   9.649  0.00  0.00    +0.000 HD
ENDBRANCH  25  26
ENDBRANCH  23  25
ENDBRANCH  22  23
ENDBRANCH   4  22
TORSDOF 8
ENDMDL
MODEL 6
REMARK VINA RESULT:    -6.146      2.108      3.669
REMARK INTER + INTRA:         -10.143
REMARK INTER:                  -9.998
REMARK INTRA:                  -0.146
REMARK UNBOUND:                -1.123
REMARK  Name = 
REMARK  9 active torsions:
REMARK  status: ('A' for Active; 'I' for Inactive)
REMARK    1  A    between atoms: C_1  and  C_2
REMARK    2  A    between atoms: C_2  and  C_3
REMARK    3  A    between atoms: C_3  and  O_4
REMARK    4  A    between atoms: C_3  and  C_19
REMARK    5  A    between atoms: O_4  and  C_5
REMARK    6  A    between atoms: C_8  and  C_9
REMARK    7  A    between atoms: C_9  and  N_10
REMARK    8  A    between atoms: N_10  and  C_11
REMARK    9  A    between atoms: C_11  and  C_12
REMARK                            x       y       z     vdW  Elec       q    Type
REMARK                         _______ _______ _______ _____ _____    ______ ____
ROOT
ATOM      1  C   UNL     1      47.491   5.054  14.711  0.00  0.00    +0.000 A 
ATOM      2  C   UNL     1      47.881   6.266  14.144  0.00  0.00    +0.000 A 
ATOM      3  C   UNL     1      47.229   6.748  13.008  0.00  0.00    +0.000 A 
ATOM      4  C   UNL     1      46.200   5.989  12.454  0.00  0.00    +0.000 A 
ATOM      5  N   UNL     1      45.805   4.804  12.982  0.00  0.00    +0.000 NA
ATOM      6  C   UNL     1      46.460   4.366  14.087  0.00  0.00    +0.000 A 
ENDROOT
BRANCH   1   7
ATOM      7  O   UNL     1      48.194   4.651  15.804  0.00  0.00    +0.000 OA
BRANCH   7   8
ATOM      8  C   UNL     1      47.453   4.288  16.986  0.00  0.00    +0.000 C 
BRANCH   8   9
ATOM      9  C   UNL     1      47.783   5.303  18.068  0.00  0.00    +0.000 A 
ATOM     10  C   UNL     1      46.849   5.852  18.931  0.00  0.00    +0.000 A 
ATOM     11  S   UNL     1      47.543   6.846  20.134  0.00  0.00    +0.000 S 
ATOM     12  C   UNL     1      49.115   6.561  19.544  0.00  0.00    +0.000 A 
ATOM     13  N   UNL     1      50.208   7.070  20.174  0.00  0.00    +0.000 NA
ATOM     14  C   UNL     1      51.332   6.755  19.620  0.00  0.00    +0.000 A 
ATOM     15  N   UNL     1      51.463   6.007  18.477  0.00  0.00    +0.000 N 
ATOM     16  C   UNL     1      50.385   5.525  17.771  0.00  0.00    +0.000 A 
ATOM     17  O   UNL     1      50.525   4.960  16.692  0.00  0.00    +0.000 OA
ATOM     18  C   UNL     1      49.103   5.778  18.405  0.00  0.00    +0.000 A 
ATOM     19  H   UNL     1      52.370   5.844  18.069  0.00  0.00    +0.000 HD
ENDBRANCH   8   9
BRANCH   8  21
ATOM     20  C   UNL     1      48.796   2.199  16.389  0.00  0.00    +0.000 C 
ATOM     21  C   UNL     1      47.836   2.848  17.374  0.00  0.00    +0.000 C 
ENDBRANCH   8  21
ENDBRANCH   7   8
ENDBRANCH   1   7
BRANCH   4  22
ATOM     22  C   UNL     1      45.454   6.477  11.227  0.00  0.00    +0.000 C 
BRANCH  22  23
ATOM     23  N   UNL     1      44.849   5.397  10.430  0.00  0.00    +0.000 NA
ATOM     24  H   UNL     1      43.965   5.773  10.077  0.00  0.00    +0.000 HD
BRANCH  23  25
ATOM     25  C   UNL     1      45.687   5.011   9.287  0.00  0.00    +0.000 C 
BRANCH  25  26
ATOM     26  C   UNL     1      44.933   4.094   8.288  0.00  0.00    +0.000 C 
ATOM     27  C   UNL     1      45.824   3.382   7.278  0.00  0.00    +0.000 C 
ATOM     28  C   UNL     1      46.266   2.117   7.991  0.00  0.00    +0.000 C 
ATOM     29  C   UNL     1      45.173   1.843   9.011  0.00  0.00    +0.000 C 
ATOM     30  N   UNL     1      44.247   2.973   8.956  0.00  0.00    +0.000 NA
ATOM     31  H   UNL     1      43.932   3.232   9.889  0.00  0.00    +0.000 HD
ENDBRANCH  25  26
ENDBRANCH  23  25
ENDBRANCH  22  23
ENDBRANCH   4  22
TORSDOF 8
ENDMDL
MODEL 7
REMARK VINA RESULT:    -6.099      2.487      3.857
REMARK INTER + INTRA:         -10.074
REMARK INTER:                  -9.179
REMARK INTRA:                  -0.895
REMARK UNBOUND:                -1.123
REMARK  Name = 
REMARK  9 active torsions:
REMARK  status: ('A' for Active; 'I' for Inactive)
REMARK    1  A    between atoms: C_1  and  C_2
REMARK    2  A    between atoms: C_2  and  C_3
REMARK    3  A    between atoms: C_3  and  O_4
REMARK    4  A    between atoms: C_3  and  C_19
REMARK    5  A    between atoms: O_4  and  C_5
REMARK    6  A    between atoms: C_8  and  C_9
REMARK    7  A    between atoms: C_9  and  N_10
REMARK    8  A    between atoms: N_10  and  C_11
REMARK    9  A    between atoms: C_11  and  C_12
REMARK                            x       y       z     vdW  Elec       q    Type
REMARK                         _______ _______ _______ _____ _____    ______ ____
ROOT
ATOM      1  C   UNL     1      47.546   5.126  14.712  0.00  0.00    +0.000 A 
ATOM      2  C   UNL     1      47.729   6.170  13.809  0.00  0.00    +0.000 A 
ATOM      3  C   UNL     1      46.796   6.387  12.793  0.00  0.00    +0.000 A 
ATOM      4  C   UNL     1      45.700   5.533  12.698  0.00  0.00    +0.000 A 
ATOM      5  N   UNL     1      45.501   4.506  13.561  0.00  0.00    +0.000 NA
ATOM      6  C   UNL     1      46.427   4.324  14.536  0.00  0.00    +0.000 A 
ENDROOT
BRANCH   1   7
ATOM      7  O   UNL     1      48.514   4.975  15.657  0.00  0.00    +0.000 OA
BRANCH   7   8
ATOM      8  C   UNL     1      48.123   5.062  17.042  0.00  0.00    +0.000 C 
BRANCH   8   9
ATOM      9  C   UNL     1      49.125   5.961  17.750  0.00  0.00    +0.000 A 
ATOM     10  C   UNL     1      50.395   6.237  17.270  0.00  0.00    +0.000 A 
ATOM     11  S   UNL     1      51.231   7.397  18.206  0.00  0.00    +0.000 S 
ATOM     12  C   UNL     1      49.915   7.571  19.271  0.00  0.00    +0.000 A 
ATOM     13  N   UNL     1      49.943   8.479  20.284  0.00  0.00    +0.000 NA
ATOM     14  C   UNL     1      48.866   8.508  20.998  0.00  0.00    +0.000 A 
ATOM     15  N   UNL     1      47.779   7.692  20.815  0.00  0.00    +0.000 N 
ATOM     16  C   UNL     1      47.730   6.718  19.845  0.00  0.00    +0.000 A 
ATOM     17  O   UNL     1      46.797   5.925  19.776  0.00  0.00    +0.000 OA
ATOM     18  C   UNL     1      48.882   6.707  18.960  0.00  0.00    +0.000 A 
ATOM     19  H   UNL     1      46.992   7.732  21.443  0.00  0.00    +0.000 HD
ENDBRANCH   8   9
BRANCH   8  21
ATOM     20  C   UNL     1      49.159   2.727  17.055  0.00  0.00    +0.000 C 
ATOM     21  C   UNL     1      48.080   3.637  17.623  0.00  0.00    +0.000 C 
ENDBRANCH   8  21
ENDBRANCH   7   8
ENDBRANCH   1   7
BRANCH   4  22
ATOM     22  C   UNL     1      44.653   5.735  11.620  0.00  0.00    +0.000 C 
BRANCH  22  23
ATOM     23  N   UNL     1      44.553   4.614  10.671  0.00  0.00    +0.000 NA
ATOM     24  H   UNL     1      43.573   4.584  10.377  0.00  0.00    +0.000 HD
BRANCH  23  25
ATOM     25  C   UNL     1      45.394   4.812   9.482  0.00  0.00    +0.000 C 
BRANCH  25  26
ATOM     26  C   UNL     1      44.908   3.973   8.271  0.00  0.00    +0.000 C 
ATOM     27  C   UNL     1      46.018   3.479   7.351  0.00  0.00    +0.000 C 
ATOM     28  C   UNL     1      46.474   2.174   7.978  0.00  0.00    +0.000 C 
ATOM     29  C   UNL     1      45.269   1.675   8.760  0.00  0.00    +0.000 C 
ATOM     30  N   UNL     1      44.248   2.720   8.679  0.00  0.00    +0.000 NA
ATOM     31  H   UNL     1      43.764   2.826   9.568  0.00  0.00    +0.000 HD
ENDBRANCH  25  26
ENDBRANCH  23  25
ENDBRANCH  22  23
ENDBRANCH   4  22
TORSDOF 8
ENDMDL
MODEL 8
REMARK VINA RESULT:    -6.002      2.826      3.964
REMARK INTER + INTRA:          -9.932
REMARK INTER:                  -8.517
REMARK INTRA:                  -1.415
REMARK UNBOUND:                -1.123
REMARK  Name = 
REMARK  9 active torsions:
REMARK  status: ('A' for Active; 'I' for Inactive)
REMARK    1  A    between atoms: C_1  and  C_2
REMARK    2  A    between atoms: C_2  and  C_3
REMARK    3  A    between atoms: C_3  and  O_4
REMARK    4  A    between atoms: C_3  and  C_19
REMARK    5  A    between atoms: O_4  and  C_5
REMARK    6  A    between atoms: C_8  and  C_9
REMARK    7  A    between atoms: C_9  and  N_10
REMARK    8  A    between atoms: N_10  and  C_11
REMARK    9  A    between atoms: C_11  and  C_12
REMARK                            x       y       z     vdW  Elec       q    Type
REMARK                         _______ _______ _______ _____ _____    ______ ____
ROOT
ATOM      1  C   UNL     1      48.855   8.160  14.012  0.00  0.00    +0.000 A 
ATOM      2  C   UNL     1      48.885   7.100  13.109  0.00  0.00    +0.000 A 
ATOM      3  C   UNL     1      47.741   6.770  12.380  0.00  0.00    +0.000 A 
ATOM      4  C   UNL     1      46.579   7.511  12.587  0.00  0.00    +0.000 A 
ATOM      5  N   UNL     1      46.521   8.543  13.464  0.00  0.00    +0.000 NA
ATOM      6  C   UNL     1      47.651   8.836  14.156  0.00  0.00    +0.000 A 
ENDROOT
BRANCH   1   7
ATOM      7  O   UNL     1      50.008   8.398  14.695  0.00  0.00    +0.000 OA
BRANCH   7   8
ATOM      8  C   UNL     1      50.566   7.320  15.472  0.00  0.00    +0.000 C 
BRANCH   8   9
ATOM      9  C   UNL     1      49.996   7.421  16.878  0.00  0.00    +0.000 A 
ATOM     10  C   UNL     1      50.378   8.378  17.804  0.00  0.00    +0.000 A 
ATOM     11  S   UNL     1      49.456   8.332  19.241  0.00  0.00    +0.000 S 
ATOM     12  C   UNL     1      48.512   7.039  18.662  0.00  0.00    +0.000 A 
ATOM     13  N   UNL     1      47.469   6.548  19.385  0.00  0.00    +0.000 NA
ATOM     14  C   UNL     1      46.836   5.579  18.809  0.00  0.00    +0.000 A 
ATOM     15  N   UNL     1      47.168   5.036  17.594  0.00  0.00    +0.000 N 
ATOM     16  C   UNL     1      48.251   5.457  16.857  0.00  0.00    +0.000 A 
ATOM     17  O   UNL     1      48.595   4.878  15.832  0.00  0.00    +0.000 OA
ATOM     18  C   UNL     1      48.940   6.604  17.422  0.00  0.00    +0.000 A 
ATOM     19  H   UNL     1      46.663   4.244  17.228  0.00  0.00    +0.000 HD
ENDBRANCH   8   9
BRANCH   8  21
ATOM     20  C   UNL     1      52.595   8.456  14.417  0.00  0.00    +0.000 C 
ATOM     21  C   UNL     1      52.100   7.440  15.435  0.00  0.00    +0.000 C 
ENDBRANCH   8  21
ENDBRANCH   7   8
ENDBRANCH   1   7
BRANCH   4  22
ATOM     22  C   UNL     1      45.315   7.198  11.810  0.00  0.00    +0.000 C 
BRANCH  22  23
ATOM     23  N   UNL     1      44.232   6.638  12.635  0.00  0.00    +0.000 NA
ATOM     24  H   UNL     1      43.436   6.515  12.004  0.00  0.00    +0.000 HD
BRANCH  23  25
ATOM     25  C   UNL     1      44.586   5.333  13.208  0.00  0.00    +0.000 C 
BRANCH  25  26
ATOM     26  C   UNL     1      43.639   4.202  12.726  0.00  0.00    +0.000 C 
ATOM     27  C   UNL     1      42.904   4.497  11.424  0.00  0.00    +0.000 C 
ATOM     28  C   UNL     1      43.868   4.053  10.339  0.00  0.00    +0.000 C 
ATOM     29  C   UNL     1      44.737   2.994  10.999  0.00  0.00    +0.000 C 
ATOM     30  N   UNL     1      44.361   2.955  12.412  0.00  0.00    +0.000 NA
ATOM     31  H   UNL     1      45.181   2.840  13.004  0.00  0.00    +0.000 HD
ENDBRANCH  25  26
ENDBRANCH  23  25
ENDBRANCH  22  23
ENDBRANCH   4  22
TORSDOF 8
ENDMDL
MODEL 9
REMARK VINA RESULT:    -5.979      2.673      8.349
REMARK INTER + INTRA:          -9.899
REMARK INTER:                  -9.248
REMARK INTRA:                  -0.651
REMARK UNBOUND:                -1.123
REMARK  Name = 
REMARK  9 active torsions:
REMARK  status: ('A' for Active; 'I' for Inactive)
REMARK    1  A    between atoms: C_1  and  C_2
REMARK    2  A    between atoms: C_2  and  C_3
REMARK    3  A    between atoms: C_3  and  O_4
REMARK    4  A    between atoms: C_3  and  C_19
REMARK    5  A    between atoms: O_4  and  C_5
REMARK    6  A    between atoms: C_8  and  C_9
REMARK    7  A    between atoms: C_9  and  N_10
REMARK    8  A    between atoms: N_10  and  C_11
REMARK    9  A    between atoms: C_11  and  C_12
REMARK                            x       y       z     vdW  Elec       q    Type
REMARK                         _______ _______ _______ _____ _____    ______ ____
ROOT
ATOM      1  C   UNL     1      47.270   6.839  12.643  0.00  0.00    +0.000 A 
ATOM      2  C   UNL     1      47.988   8.024  12.786  0.00  0.00    +0.000 A 
ATOM      3  C   UNL     1      48.910   8.161  13.825  0.00  0.00    +0.000 A 
ATOM      4  C   UNL     1      49.082   7.100  14.712  0.00  0.00    +0.000 A 
ATOM      5  N   UNL     1      48.391   5.938  14.598  0.00  0.00    +0.000 NA
ATOM      6  C   UNL     1      47.503   5.839  13.577  0.00  0.00    +0.000 A 
ENDROOT
BRANCH   1   7
ATOM      7  O   UNL     1      46.378   6.800  11.615  0.00  0.00    +0.000 OA
BRANCH   7   8
ATOM      8  C   UNL     1      44.981   6.657  11.941  0.00  0.00    +0.000 C 
BRANCH   8   9
ATOM      9  C   UNL     1      44.599   5.204  11.709  0.00  0.00    +0.000 A 
ATOM     10  C   UNL     1      43.921   4.421  12.630  0.00  0.00    +0.000 A 
ATOM     11  S   UNL     1      43.503   2.879  12.027  0.00  0.00    +0.000 S 
ATOM     12  C   UNL     1      44.206   3.217  10.513  0.00  0.00    +0.000 A 
ATOM     13  N   UNL     1      44.134   2.326   9.488  0.00  0.00    +0.000 NA
ATOM     14  C   UNL     1      44.698   2.728   8.397  0.00  0.00    +0.000 A 
ATOM     15  N   UNL     1      45.354   3.923   8.246  0.00  0.00    +0.000 N 
ATOM     16  C   UNL     1      45.506   4.828   9.271  0.00  0.00    +0.000 A 
ATOM     17  O   UNL     1      46.196   5.834   9.144  0.00  0.00    +0.000 OA
ATOM     18  C   UNL     1      44.811   4.458  10.492  0.00  0.00    +0.000 A 
ATOM     19  H   UNL     1      45.818   4.151   7.381  0.00  0.00    +0.000 HD
ENDBRANCH   8   9
BRANCH   8  21
ATOM     20  C   UNL     1      44.535   9.093  11.318  0.00  0.00    +0.000 C 
ATOM     21  C   UNL     1      44.177   7.636  11.066  0.00  0.00    +0.000 C 
ENDBRANCH   8  21
ENDBRANCH   7   8
ENDBRANCH   1   7
BRANCH   4  22
ATOM     22  C   UNL     1      50.080   7.196  15.849  0.00  0.00    +0.000 C 
BRANCH  22  23
ATOM     23  N   UNL     1      50.461   5.894  16.419  0.00  0.00    +0.000 NA
ATOM     24  H   UNL     1      51.473   5.819  16.293  0.00  0.00    +0.000 HD
BRANCH  23  25
ATOM     25  C   UNL     1      50.157   5.802  17.854  0.00  0.00    +0.000 C 
BRANCH  25  26
ATOM     26  C   UNL     1      48.962   4.856  18.143  0.00  0.00    +0.000 C 
ATOM     27  C   UNL     1      48.784   4.483  19.610  0.00  0.00    +0.000 C 
ATOM     28  C   UNL     1      47.940   5.605  20.185  0.00  0.00    +0.000 C 
ATOM     29  C   UNL     1      47.168   6.159  18.999  0.00  0.00    +0.000 C 
ATOM     30  N   UNL     1      47.663   5.468  17.808  0.00  0.00    +0.000 NA
ATOM     31  H   UNL     1      47.744   6.109  17.022  0.00  0.00    +0.000 HD
ENDBRANCH  25  26
ENDBRANCH  23  25
ENDBRANCH  22  23
ENDBRANCH   4  22
TORSDOF 8
ENDMDL
