MODEL 1
REMARK VINA RESULT:    -8.118      0.000      0.000
REMARK INTER + INTRA:         -13.089
REMARK INTER:                 -11.914
REMARK INTRA:                  -1.175
REMARK UNBOUND:                -1.175
REMARK  Name = 
REMARK  9 active torsions:
REMARK  status: ('A' for Active; 'I' for Inactive)
REMARK    1  A    between atoms: C_1  and  O_2
REMARK    2  A    between atoms: O_2  and  C_3
REMARK    3  A    between atoms: C_10  and  C_11
REMARK    4  A    between atoms: N_13  and  C_14
REMARK    5  A    between atoms: C_14  and  C_15
REMARK    6  A    between atoms: C_18  and  C_19
REMARK    7  A    between atoms: C_19  and  S_20
REMARK    8  A    between atoms: S_20  and  C_21
REMARK    9  A    between atoms: C_21  and  C_22
REMARK                            x       y       z     vdW  Elec       q    Type
REMARK                         _______ _______ _______ _____ _____    ______ ____
ROOT
ATOM      1  C   UNL     1      49.010   7.088  13.708  0.00  0.00    +0.000 C 
ENDROOT
BRANCH   1   2
ATOM      2  C   UNL     1      47.754   6.498  13.119  0.00  0.00    +0.000 A 
ATOM      3  C   UNL     1      47.108   5.428  13.750  0.00  0.00    +0.000 A 
ATOM      4  C   UNL     1      45.930   4.894  13.221  0.00  0.00    +0.000 A 
ATOM      5  C   UNL     1      45.368   5.418  12.047  0.00  0.00    +0.000 A 
ATOM      6  C   UNL     1      46.044   6.457  11.389  0.00  0.00    +0.000 A 
ATOM      7  C   UNL     1      47.225   6.989  11.918  0.00  0.00    +0.000 A 
BRANCH   5   8
ATOM      8  C   UNL     1      44.088   4.854  11.480  0.00  0.00    +0.000 C 
BRANCH   8   9
ATOM      9  S   UNL     1      44.285   3.296  10.556  0.00  0.00    +0.000 S 
BRANCH   9  10
ATOM     10  C   UNL     1      44.587   3.930   8.871  0.00  0.00    +0.000 C 
BRANCH  10  11
ATOM     11  C   UNL     1      45.619   3.084   8.159  0.00  0.00    +0.000 A 
ATOM     12  C   UNL     1      46.575   3.669   7.310  0.00  0.00    +0.000 A 
ATOM     13  C   UNL     1      47.548   2.885   6.679  0.00  0.00    +0.000 A 
ATOM     14  C   UNL     1      47.582   1.508   6.894  0.00  0.00    +0.000 A 
ATOM     15  C   UNL     1      46.643   0.928   7.737  0.00  0.00    +0.000 A 
ATOM     16  F   UNL     1      46.680  -0.395   7.951  0.00  0.00    +0.000 F 
ATOM     17  C   UNL     1      45.669   1.697   8.368  0.00  0.00    +0.000 A 
ENDBRANCH  10  11
ENDBRANCH   9  10
ENDBRANCH   8   9
ENDBRANCH   5   8
ENDBRANCH   1   2
BRANCH   1  20
ATOM     18  C   UNL     1      50.213   7.066  15.850  0.00  0.00    +0.000 C 
ATOM     19  O   UNL     1      51.273   7.327  15.290  0.00  0.00    +0.000 OA
ATOM     20  N   UNL     1      49.051   6.916  15.140  0.00  0.00    +0.000 N 
ATOM     21  H   UNL     1      48.201   6.634  15.605  0.00  0.00    +0.000 HD
BRANCH  18  29
ATOM     22  C   UNL     1      49.058   4.561  17.927  0.00  0.00    +0.000 A 
ATOM     23  N   UNL     1      48.609   3.807  18.951  0.00  0.00    +0.000 NA
ATOM     24  C   UNL     1      48.723   4.290  20.190  0.00  0.00    +0.000 A 
ATOM     25  N   UNL     1      49.254   5.456  20.547  0.00  0.00    +0.000 NA
ATOM     26  C   UNL     1      49.677   6.183  19.499  0.00  0.00    +0.000 A 
ATOM     27  S   UNL     1      50.395   7.696  19.774  0.00  0.00    +0.000 S 
ATOM     28  C   UNL     1      50.605   7.953  18.108  0.00  0.00    +0.000 A 
ATOM     29  C   UNL     1      50.133   6.914  17.312  0.00  0.00    +0.000 A 
ATOM     30  C   UNL     1      49.608   5.837  18.152  0.00  0.00    +0.000 A 
BRANCH  22  32
ATOM     31  C   UNL     1      47.928   3.102  16.475  0.00  0.00    +0.000 C 
ATOM     32  O   UNL     1      48.993   4.034  16.652  0.00  0.00    +0.000 OA
ENDBRANCH  22  32
ENDBRANCH  18  29
ENDBRANCH   1  20
TORSDOF 8
ENDMDL
MODEL 2
REMARK VINA RESULT:    -7.864      2.082      3.011
REMARK INTER + INTRA:         -12.716
REMARK INTER:                 -11.676
REMARK INTRA:                  -1.040
REMARK UNBOUND:                -1.175
REMARK  Name = 
REMARK  9 active torsions:
REMARK  status: ('A' for Active; 'I' for Inactive)
REMARK    1  A    between atoms: C_1  and  O_2
REMARK    2  A    between atoms: O_2  and  C_3
REMARK    3  A    between atoms: C_10  and  C_11
REMARK    4  A    between atoms: N_13  and  C_14
REMARK    5  A    between atoms: C_14  and  C_15
REMARK    6  A    between atoms: C_18  and  C_19
REMARK    7  A    between atoms: C_19  and  S_20
REMARK    8  A    between atoms: S_20  and  C_21
REMARK    9  A    between atoms: C_21  and  C_22
REMARK                            x       y       z     vdW  Elec       q    Type
REMARK                         _______ _______ _______ _____ _____    ______ ____
ROOT
ATOM      1  C   UNL     1      48.519   6.613  14.192  0.00  0.00    +0.000 C 
ENDROOT
BRANCH   1   2
ATOM      2  C   UNL     1      47.319   6.127  13.420  0.00  0.00    +0.000 A 
ATOM      3  C   UNL     1      46.786   6.896  12.378  0.00  0.00    +0.000 A 
ATOM      4  C   UNL     1      45.689   6.439  11.643  0.00  0.00    +0.000 A 
ATOM      5  C   UNL     1      45.098   5.200  11.932  0.00  0.00    +0.000 A 
ATOM      6  C   UNL     1      45.601   4.454  13.008  0.00  0.00    +0.000 A 
ATOM      7  C   UNL     1      46.698   4.914  13.746  0.00  0.00    +0.000 A 
BRANCH   5   8
ATOM      8  C   UNL     1      43.922   4.696  11.131  0.00  0.00    +0.000 C 
BRANCH   8   9
ATOM      9  S   UNL     1      44.274   3.242  10.091  0.00  0.00    +0.000 S 
BRANCH   9  10
ATOM     10  C   UNL     1      44.911   4.044   8.580  0.00  0.00    +0.000 C 
BRANCH  10  11
ATOM     11  C   UNL     1      45.820   3.104   7.820  0.00  0.00    +0.000 A 
ATOM     12  C   UNL     1      46.588   3.559   6.733  0.00  0.00    +0.000 A 
ATOM     13  C   UNL     1      47.451   2.692   6.053  0.00  0.00    +0.000 A 
ATOM     14  C   UNL     1      47.563   1.362   6.454  0.00  0.00    +0.000 A 
ATOM     15  C   UNL     1      46.810   0.910   7.529  0.00  0.00    +0.000 A 
ATOM     16  F   UNL     1      46.922  -0.367   7.921  0.00  0.00    +0.000 F 
ATOM     17  C   UNL     1      45.946   1.763   8.213  0.00  0.00    +0.000 A 
ENDBRANCH  10  11
ENDBRANCH   9  10
ENDBRANCH   8   9
ENDBRANCH   5   8
ENDBRANCH   1   2
BRANCH   1  20
ATOM     18  C   UNL     1      48.650   6.135  16.598  0.00  0.00    +0.000 C 
ATOM     19  O   UNL     1      49.356   5.152  16.393  0.00  0.00    +0.000 OA
ATOM     20  N   UNL     1      48.182   6.902  15.565  0.00  0.00    +0.000 N 
ATOM     21  H   UNL     1      47.546   7.665  15.742  0.00  0.00    +0.000 HD
BRANCH  18  29
ATOM     22  C   UNL     1      47.995   9.188  18.072  0.00  0.00    +0.000 A 
ATOM     23  N   UNL     1      47.785  10.223  18.910  0.00  0.00    +0.000 NA
ATOM     24  C   UNL     1      47.592   9.961  20.205  0.00  0.00    +0.000 A 
ATOM     25  N   UNL     1      47.570   8.763  20.782  0.00  0.00    +0.000 NA
ATOM     26  C   UNL     1      47.797   7.760  19.917  0.00  0.00    +0.000 A 
ATOM     27  S   UNL     1      47.790   6.159  20.482  0.00  0.00    +0.000 S 
ATOM     28  C   UNL     1      48.144   5.559  18.933  0.00  0.00    +0.000 A 
ATOM     29  C   UNL     1      48.283   6.547  17.963  0.00  0.00    +0.000 A 
ATOM     30  C   UNL     1      48.039   7.865  18.550  0.00  0.00    +0.000 A 
BRANCH  22  32
ATOM     31  C   UNL     1      48.755  10.715  16.457  0.00  0.00    +0.000 C 
ATOM     32  O   UNL     1      48.135   9.458  16.725  0.00  0.00    +0.000 OA
ENDBRANCH  22  32
ENDBRANCH  18  29
ENDBRANCH   1  20
TORSDOF 8
ENDMDL
MODEL 3
REMARK VINA RESULT:    -7.749      1.665      1.860
REMARK INTER + INTRA:         -12.548
REMARK INTER:                 -11.405
REMARK INTRA:                  -1.142
REMARK UNBOUND:                -1.175
REMARK  Name = 
REMARK  9 active torsions:
REMARK  status: ('A' for Active; 'I' for Inactive)
REMARK    1  A    between atoms: C_1  and  O_2
REMARK    2  A    between atoms: O_2  and  C_3
REMARK    3  A    between atoms: C_10  and  C_11
REMARK    4  A    between atoms: N_13  and  C_14
REMARK    5  A    between atoms: C_14  and  C_15
REMARK    6  A    between atoms: C_18  and  C_19
REMARK    7  A    between atoms: C_19  and  S_20
REMARK    8  A    between atoms: S_20  and  C_21
REMARK    9  A    between atoms: C_21  and  C_22
REMARK                            x       y       z     vdW  Elec       q    Type
REMARK                         _______ _______ _______ _____ _____    ______ ____
ROOT
ATOM      1  C   UNL     1      47.661   7.927  13.186  0.00  0.00    +0.000 C 
ENDROOT
BRANCH   1   2
ATOM      2  C   UNL     1      46.579   6.898  12.972  0.00  0.00    +0.000 A 
ATOM      3  C   UNL     1      46.821   5.546  13.244  0.00  0.00    +0.000 A 
ATOM      4  C   UNL     1      45.814   4.592  13.072  0.00  0.00    +0.000 A 
ATOM      5  C   UNL     1      44.540   4.968  12.623  0.00  0.00    +0.000 A 
ATOM      6  C   UNL     1      44.314   6.315  12.303  0.00  0.00    +0.000 A 
ATOM      7  C   UNL     1      45.324   7.269  12.472  0.00  0.00    +0.000 A 
BRANCH   5   8
ATOM      8  C   UNL     1      43.446   3.943  12.449  0.00  0.00    +0.000 C 
BRANCH   8   9
ATOM      9  S   UNL     1      43.706   2.774  11.075  0.00  0.00    +0.000 S 
BRANCH   9  10
ATOM     10  C   UNL     1      44.141   3.921   9.723  0.00  0.00    +0.000 C 
BRANCH  10  11
ATOM     11  C   UNL     1      45.147   3.288   8.789  0.00  0.00    +0.000 A 
ATOM     12  C   UNL     1      45.905   4.072   7.900  0.00  0.00    +0.000 A 
ATOM     13  C   UNL     1      46.857   3.484   7.060  0.00  0.00    +0.000 A 
ATOM     14  C   UNL     1      47.070   2.107   7.101  0.00  0.00    +0.000 A 
ATOM     15  C   UNL     1      46.327   1.331   7.981  0.00  0.00    +0.000 A 
ATOM     16  F   UNL     1      46.536   0.007   8.028  0.00  0.00    +0.000 F 
ATOM     17  C   UNL     1      45.375   1.904   8.821  0.00  0.00    +0.000 A 
ENDBRANCH  10  11
ENDBRANCH   9  10
ENDBRANCH   8   9
ENDBRANCH   5   8
ENDBRANCH   1   2
BRANCH   1  20
ATOM     18  C   UNL     1      49.136   7.765  15.143  0.00  0.00    +0.000 C 
ATOM     19  O   UNL     1      48.505   8.641  15.726  0.00  0.00    +0.000 OA
ATOM     20  N   UNL     1      48.794   7.364  13.879  0.00  0.00    +0.000 N 
ATOM     21  H   UNL     1      49.361   6.693  13.384  0.00  0.00    +0.000 HD
BRANCH  18  29
ATOM     22  C   UNL     1      49.447   4.987  17.171  0.00  0.00    +0.000 A 
ATOM     23  N   UNL     1      49.846   4.024  18.025  0.00  0.00    +0.000 NA
ATOM     24  C   UNL     1      51.139   3.961  18.349  0.00  0.00    +0.000 A 
ATOM     25  N   UNL     1      52.113   4.754  17.908  0.00  0.00    +0.000 NA
ATOM     26  C   UNL     1      51.673   5.708  17.071  0.00  0.00    +0.000 A 
ATOM     27  S   UNL     1      52.785   6.802  16.401  0.00  0.00    +0.000 S 
ATOM     28  C   UNL     1      51.553   7.617  15.563  0.00  0.00    +0.000 A 
ATOM     29  C   UNL     1      50.282   7.092  15.776  0.00  0.00    +0.000 A 
ATOM     30  C   UNL     1      50.361   5.924  16.654  0.00  0.00    +0.000 A 
BRANCH  22  32
ATOM     31  C   UNL     1      47.453   3.763  16.965  0.00  0.00    +0.000 C 
ATOM     32  O   UNL     1      48.119   5.013  16.791  0.00  0.00    +0.000 OA
ENDBRANCH  22  32
ENDBRANCH  18  29
ENDBRANCH   1  20
TORSDOF 8
ENDMDL
MODEL 4
REMARK VINA RESULT:    -6.947      3.811      8.455
REMARK INTER + INTRA:         -11.370
REMARK INTER:                  -8.861
REMARK INTRA:                  -2.509
REMARK UNBOUND:                -1.175
REMARK  Name = 
REMARK  9 active torsions:
REMARK  status: ('A' for Active; 'I' for Inactive)
REMARK    1  A    between atoms: C_1  and  O_2
REMARK    2  A    between atoms: O_2  and  C_3
REMARK    3  A    between atoms: C_10  and  C_11
REMARK    4  A    between atoms: N_13  and  C_14
REMARK    5  A    between atoms: C_14  and  C_15
REMARK    6  A    between atoms: C_18  and  C_19
REMARK    7  A    between atoms: C_19  and  S_20
REMARK    8  A    between atoms: S_20  and  C_21
REMARK    9  A    between atoms: C_21  and  C_22
REMARK                            x       y       z     vdW  Elec       q    Type
REMARK                         _______ _______ _______ _____ _____    ______ ____
ROOT
ATOM      1  C   UNL     1      48.325   8.431  14.486  0.00  0.00    +0.000 C 
ENDROOT
BRANCH   1   2
ATOM      2  C   UNL     1      48.781   8.095  15.883  0.00  0.00    +0.000 A 
ATOM      3  C   UNL     1      49.872   7.242  16.089  0.00  0.00    +0.000 A 
ATOM      4  C   UNL     1      50.314   6.948  17.381  0.00  0.00    +0.000 A 
ATOM      5  C   UNL     1      49.676   7.501  18.501  0.00  0.00    +0.000 A 
ATOM      6  C   UNL     1      48.552   8.316  18.295  0.00  0.00    +0.000 A 
ATOM      7  C   UNL     1      48.108   8.607  17.001  0.00  0.00    +0.000 A 
BRANCH   5   8
ATOM      8  C   UNL     1      50.159   7.197  19.898  0.00  0.00    +0.000 C 
BRANCH   8   9
ATOM      9  S   UNL     1      50.408   5.427  20.252  0.00  0.00    +0.000 S 
BRANCH   9  10
ATOM     10  C   UNL     1      48.692   4.812  20.165  0.00  0.00    +0.000 C 
BRANCH  10  11
ATOM     11  C   UNL     1      48.396   4.247  18.794  0.00  0.00    +0.000 A 
ATOM     12  C   UNL     1      47.324   4.735  18.025  0.00  0.00    +0.000 A 
ATOM     13  C   UNL     1      47.074   4.230  16.743  0.00  0.00    +0.000 A 
ATOM     14  C   UNL     1      47.895   3.237  16.211  0.00  0.00    +0.000 A 
ATOM     15  C   UNL     1      48.958   2.758  16.966  0.00  0.00    +0.000 A 
ATOM     16  F   UNL     1      49.754   1.809  16.453  0.00  0.00    +0.000 F 
ATOM     17  C   UNL     1      49.215   3.250  18.243  0.00  0.00    +0.000 A 
ENDBRANCH  10  11
ENDBRANCH   9  10
ENDBRANCH   8   9
ENDBRANCH   5   8
ENDBRANCH   1   2
BRANCH   1  20
ATOM     18  C   UNL     1      47.652   6.429  13.233  0.00  0.00    +0.000 C 
ATOM     19  O   UNL     1      48.807   6.233  12.869  0.00  0.00    +0.000 OA
ATOM     20  N   UNL     1      47.326   7.501  14.020  0.00  0.00    +0.000 N 
ATOM     21  H   UNL     1      46.362   7.690  14.254  0.00  0.00    +0.000 HD
BRANCH  18  29
ATOM     22  C   UNL     1      44.525   6.899  11.844  0.00  0.00    +0.000 A 
ATOM     23  N   UNL     1      43.254   6.796  11.407  0.00  0.00    +0.000 NA
ATOM     24  C   UNL     1      42.691   5.585  11.378  0.00  0.00    +0.000 A 
ATOM     25  N   UNL     1      43.255   4.433  11.729  0.00  0.00    +0.000 NA
ATOM     26  C   UNL     1      44.515   4.580  12.172  0.00  0.00    +0.000 A 
ATOM     27  S   UNL     1      45.392   3.207  12.650  0.00  0.00    +0.000 S 
ATOM     28  C   UNL     1      46.743   4.152  13.058  0.00  0.00    +0.000 A 
ATOM     29  C   UNL     1      46.561   5.517  12.852  0.00  0.00    +0.000 A 
ATOM     30  C   UNL     1      45.235   5.767  12.287  0.00  0.00    +0.000 A 
BRANCH  22  32
ATOM     31  C   UNL     1      44.354   9.132  11.138  0.00  0.00    +0.000 C 
ATOM     32  O   UNL     1      45.124   8.142  11.817  0.00  0.00    +0.000 OA
ENDBRANCH  22  32
ENDBRANCH  18  29
ENDBRANCH   1  20
TORSDOF 8
ENDMDL
MODEL 5
REMARK VINA RESULT:    -6.933      2.312      3.454
REMARK INTER + INTRA:         -11.350
REMARK INTER:                 -10.227
REMARK INTRA:                  -1.124
REMARK UNBOUND:                -1.175
REMARK  Name = 
REMARK  9 active torsions:
REMARK  status: ('A' for Active; 'I' for Inactive)
REMARK    1  A    between atoms: C_1  and  O_2
REMARK    2  A    between atoms: O_2  and  C_3
REMARK    3  A    between atoms: C_10  and  C_11
REMARK    4  A    between atoms: N_13  and  C_14
REMARK    5  A    between atoms: C_14  and  C_15
REMARK    6  A    between atoms: C_18  and  C_19
REMARK    7  A    between atoms: C_19  and  S_20
REMARK    8  A    between atoms: S_20  and  C_21
REMARK    9  A    between atoms: C_21  and  C_22
REMARK                            x       y       z     vdW  Elec       q    Type
REMARK                         _______ _______ _______ _____ _____    ______ ____
ROOT
ATOM      1  C   UNL     1      47.922   4.369  15.961  0.00  0.00    +0.000 C 
ENDROOT
BRANCH   1   2
ATOM      2  C   UNL     1      47.103   4.479  14.700  0.00  0.00    +0.000 A 
ATOM      3  C   UNL     1      46.791   3.336  13.953  0.00  0.00    +0.000 A 
ATOM      4  C   UNL     1      46.011   3.431  12.797  0.00  0.00    +0.000 A 
ATOM      5  C   UNL     1      45.523   4.671  12.360  0.00  0.00    +0.000 A 
ATOM      6  C   UNL     1      45.878   5.821  13.081  0.00  0.00    +0.000 A 
ATOM      7  C   UNL     1      46.662   5.726  14.237  0.00  0.00    +0.000 A 
BRANCH   5   8
ATOM      8  C   UNL     1      44.669   4.775  11.120  0.00  0.00    +0.000 C 
BRANCH   8   9
ATOM      9  S   UNL     1      45.585   5.156   9.592  0.00  0.00    +0.000 S 
BRANCH   9  10
ATOM     10  C   UNL     1      44.729   4.075   8.397  0.00  0.00    +0.000 C 
BRANCH  10  11
ATOM     11  C   UNL     1      45.690   3.070   7.802  0.00  0.00    +0.000 A 
ATOM     12  C   UNL     1      45.878   1.808   8.393  0.00  0.00    +0.000 A 
ATOM     13  C   UNL     1      46.745   0.871   7.819  0.00  0.00    +0.000 A 
ATOM     14  C   UNL     1      47.429   1.179   6.644  0.00  0.00    +0.000 A 
ATOM     15  C   UNL     1      47.241   2.423   6.055  0.00  0.00    +0.000 A 
ATOM     16  F   UNL     1      47.892   2.718   4.921  0.00  0.00    +0.000 F 
ATOM     17  C   UNL     1      46.383   3.365   6.618  0.00  0.00    +0.000 A 
ENDBRANCH  10  11
ENDBRANCH   9  10
ENDBRANCH   8   9
ENDBRANCH   5   8
ENDBRANCH   1   2
BRANCH   1  20
ATOM     18  C   UNL     1      48.179   5.526  18.112  0.00  0.00    +0.000 C 
ATOM     19  O   UNL     1      48.762   4.560  18.594  0.00  0.00    +0.000 OA
ATOM     20  N   UNL     1      47.717   5.507  16.823  0.00  0.00    +0.000 N 
ATOM     21  H   UNL     1      47.179   6.280  16.462  0.00  0.00    +0.000 HD
BRANCH  18  29
ATOM     22  C   UNL     1      48.277   8.888  17.333  0.00  0.00    +0.000 A 
ATOM     23  N   UNL     1      48.333  10.235  17.335  0.00  0.00    +0.000 NA
ATOM     24  C   UNL     1      48.126  10.875  18.489  0.00  0.00    +0.000 A 
ATOM     25  N   UNL     1      47.852  10.326  19.669  0.00  0.00    +0.000 NA
ATOM     26  C   UNL     1      47.819   8.984  19.628  0.00  0.00    +0.000 A 
ATOM     27  S   UNL     1      47.470   8.118  21.045  0.00  0.00    +0.000 S 
ATOM     28  C   UNL     1      47.630   6.634  20.237  0.00  0.00    +0.000 A 
ATOM     29  C   UNL     1      47.957   6.756  18.890  0.00  0.00    +0.000 A 
ATOM     30  C   UNL     1      48.036   8.169  18.519  0.00  0.00    +0.000 A 
BRANCH  22  32
ATOM     31  C   UNL     1      49.772   8.245  15.640  0.00  0.00    +0.000 C 
ATOM     32  O   UNL     1      48.432   8.232  16.128  0.00  0.00    +0.000 OA
ENDBRANCH  22  32
ENDBRANCH  18  29
ENDBRANCH   1  20
TORSDOF 8
ENDMDL
MODEL 6
REMARK VINA RESULT:    -6.594      4.004      8.506
REMARK INTER + INTRA:         -10.853
REMARK INTER:                  -9.020
REMARK INTRA:                  -1.833
REMARK UNBOUND:                -1.175
REMARK  Name = 
REMARK  9 active torsions:
REMARK  status: ('A' for Active; 'I' for Inactive)
REMARK    1  A    between atoms: C_1  and  O_2
REMARK    2  A    between atoms: O_2  and  C_3
REMARK    3  A    between atoms: C_10  and  C_11
REMARK    4  A    between atoms: N_13  and  C_14
REMARK    5  A    between atoms: C_14  and  C_15
REMARK    6  A    between atoms: C_18  and  C_19
REMARK    7  A    between atoms: C_19  and  S_20
REMARK    8  A    between atoms: S_20  and  C_21
REMARK    9  A    between atoms: C_21  and  C_22
REMARK                            x       y       z     vdW  Elec       q    Type
REMARK                         _______ _______ _______ _____ _____    ______ ____
ROOT
ATOM      1  C   UNL     1      48.055   8.953  14.094  0.00  0.00    +0.000 C 
ENDROOT
BRANCH   1   2
ATOM      2  C   UNL     1      48.375   8.698  15.545  0.00  0.00    +0.000 A 
ATOM      3  C   UNL     1      48.973   7.494  15.939  0.00  0.00    +0.000 A 
ATOM      4  C   UNL     1      49.295   7.263  17.279  0.00  0.00    +0.000 A 
ATOM      5  C   UNL     1      49.028   8.230  18.258  0.00  0.00    +0.000 A 
ATOM      6  C   UNL     1      48.384   9.415  17.870  0.00  0.00    +0.000 A 
ATOM      7  C   UNL     1      48.058   9.644  16.528  0.00  0.00    +0.000 A 
BRANCH   5   8
ATOM      8  C   UNL     1      49.387   7.991  19.705  0.00  0.00    +0.000 C 
BRANCH   8   9
ATOM      9  S   UNL     1      48.361   6.743  20.549  0.00  0.00    +0.000 S 
BRANCH   9  10
ATOM     10  C   UNL     1      49.563   5.384  20.745  0.00  0.00    +0.000 C 
BRANCH  10  11
ATOM     11  C   UNL     1      49.595   4.516  19.506  0.00  0.00    +0.000 A 
ATOM     12  C   UNL     1      50.791   4.306  18.798  0.00  0.00    +0.000 A 
ATOM     13  C   UNL     1      50.821   3.476  17.671  0.00  0.00    +0.000 A 
ATOM     14  C   UNL     1      49.657   2.841  17.241  0.00  0.00    +0.000 A 
ATOM     15  C   UNL     1      48.474   3.043  17.941  0.00  0.00    +0.000 A 
ATOM     16  F   UNL     1      47.356   2.426  17.534  0.00  0.00    +0.000 F 
ATOM     17  C   UNL     1      48.432   3.867  19.063  0.00  0.00    +0.000 A 
ENDBRANCH  10  11
ENDBRANCH   9  10
ENDBRANCH   8   9
ENDBRANCH   5   8
ENDBRANCH   1   2
BRANCH   1  20
ATOM     18  C   UNL     1      46.851   7.529  12.496  0.00  0.00    +0.000 C 
ATOM     19  O   UNL     1      47.811   7.526  11.732  0.00  0.00    +0.000 OA
ATOM     20  N   UNL     1      46.883   8.222  13.676  0.00  0.00    +0.000 N 
ATOM     21  H   UNL     1      46.064   8.274  14.262  0.00  0.00    +0.000 HD
BRANCH  18  29
ATOM     22  C   UNL     1      45.911   4.230  12.888  0.00  0.00    +0.000 A 
ATOM     23  N   UNL     1      45.323   3.017  12.838  0.00  0.00    +0.000 NA
ATOM     24  C   UNL     1      44.109   2.925  12.290  0.00  0.00    +0.000 A 
ATOM     25  N   UNL     1      43.384   3.917  11.781  0.00  0.00    +0.000 NA
ATOM     26  C   UNL     1      44.010   5.105  11.837  0.00  0.00    +0.000 A 
ATOM     27  S   UNL     1      43.222   6.486  11.243  0.00  0.00    +0.000 S 
ATOM     28  C   UNL     1      44.556   7.468  11.619  0.00  0.00    +0.000 A 
ATOM     29  C   UNL     1      45.622   6.779  12.189  0.00  0.00    +0.000 A 
ATOM     30  C   UNL     1      45.277   5.366  12.351  0.00  0.00    +0.000 A 
BRANCH  22  32
ATOM     31  C   UNL     1      47.050   4.521  14.920  0.00  0.00    +0.000 C 
ATOM     32  O   UNL     1      47.140   4.333  13.509  0.00  0.00    +0.000 OA
ENDBRANCH  22  32
ENDBRANCH  18  29
ENDBRANCH   1  20
TORSDOF 8
ENDMDL
MODEL 7
REMARK VINA RESULT:    -6.367      2.259      3.087
REMARK INTER + INTRA:         -10.519
REMARK INTER:                  -9.633
REMARK INTRA:                  -0.887
REMARK UNBOUND:                -1.175
REMARK  Name = 
REMARK  9 active torsions:
REMARK  status: ('A' for Active; 'I' for Inactive)
REMARK    1  A    between atoms: C_1  and  O_2
REMARK    2  A    between atoms: O_2  and  C_3
REMARK    3  A    between atoms: C_10  and  C_11
REMARK    4  A    between atoms: N_13  and  C_14
REMARK    5  A    between atoms: C_14  and  C_15
REMARK    6  A    between atoms: C_18  and  C_19
REMARK    7  A    between atoms: C_19  and  S_20
REMARK    8  A    between atoms: S_20  and  C_21
REMARK    9  A    between atoms: C_21  and  C_22
REMARK                            x       y       z     vdW  Elec       q    Type
REMARK                         _______ _______ _______ _____ _____    ______ ____
ROOT
ATOM      1  C   UNL     1      47.447   4.627  15.014  0.00  0.00    +0.000 C 
ENDROOT
BRANCH   1   2
ATOM      2  C   UNL     1      46.425   4.761  13.914  0.00  0.00    +0.000 A 
ATOM      3  C   UNL     1      46.710   5.512  12.767  0.00  0.00    +0.000 A 
ATOM      4  C   UNL     1      45.776   5.619  11.733  0.00  0.00    +0.000 A 
ATOM      5  C   UNL     1      44.533   4.976  11.821  0.00  0.00    +0.000 A 
ATOM      6  C   UNL     1      44.229   4.265  12.992  0.00  0.00    +0.000 A 
ATOM      7  C   UNL     1      45.164   4.162  14.028  0.00  0.00    +0.000 A 
BRANCH   5   8
ATOM      8  C   UNL     1      43.526   5.076  10.701  0.00  0.00    +0.000 C 
BRANCH   8   9
ATOM      9  S   UNL     1      44.172   4.643   9.053  0.00  0.00    +0.000 S 
BRANCH   9  10
ATOM     10  C   UNL     1      44.701   2.919   9.332  0.00  0.00    +0.000 C 
BRANCH  10  11
ATOM     11  C   UNL     1      45.655   2.470   8.247  0.00  0.00    +0.000 A 
ATOM     12  C   UNL     1      46.255   1.200   8.289  0.00  0.00    +0.000 A 
ATOM     13  C   UNL     1      47.113   0.778   7.267  0.00  0.00    +0.000 A 
ATOM     14  C   UNL     1      47.376   1.618   6.185  0.00  0.00    +0.000 A 
ATOM     15  C   UNL     1      46.780   2.872   6.138  0.00  0.00    +0.000 A 
ATOM     16  F   UNL     1      47.025   3.678   5.095  0.00  0.00    +0.000 F 
ATOM     17  C   UNL     1      45.927   3.303   7.151  0.00  0.00    +0.000 A 
ENDBRANCH  10  11
ENDBRANCH   9  10
ENDBRANCH   8   9
ENDBRANCH   5   8
ENDBRANCH   1   2
BRANCH   1  20
ATOM     18  C   UNL     1      48.862   6.100  16.378  0.00  0.00    +0.000 C 
ATOM     19  O   UNL     1      49.655   5.188  16.591  0.00  0.00    +0.000 OA
ATOM     20  N   UNL     1      47.738   5.903  15.622  0.00  0.00    +0.000 N 
ATOM     21  H   UNL     1      47.059   6.641  15.512  0.00  0.00    +0.000 HD
BRANCH  18  29
ATOM     22  C   UNL     1      47.782   7.751  19.213  0.00  0.00    +0.000 A 
ATOM     23  N   UNL     1      47.448   8.648  20.162  0.00  0.00    +0.000 NA
ATOM     24  C   UNL     1      47.918   9.892  20.051  0.00  0.00    +0.000 A 
ATOM     25  N   UNL     1      48.709  10.365  19.091  0.00  0.00    +0.000 NA
ATOM     26  C   UNL     1      49.007   9.446  18.158  0.00  0.00    +0.000 A 
ATOM     27  S   UNL     1      50.019   9.875  16.865  0.00  0.00    +0.000 S 
ATOM     28  C   UNL     1      49.895   8.322  16.188  0.00  0.00    +0.000 A 
ATOM     29  C   UNL     1      49.085   7.453  16.913  0.00  0.00    +0.000 A 
ATOM     30  C   UNL     1      48.581   8.121  18.114  0.00  0.00    +0.000 A 
BRANCH  22  32
ATOM     31  C   UNL     1      47.593   5.911  20.659  0.00  0.00    +0.000 C 
ATOM     32  O   UNL     1      47.345   6.450  19.362  0.00  0.00    +0.000 OA
ENDBRANCH  22  32
ENDBRANCH  18  29
ENDBRANCH   1  20
TORSDOF 8
ENDMDL
MODEL 8
REMARK VINA RESULT:    -6.270      3.824      8.840
REMARK INTER + INTRA:         -10.378
REMARK INTER:                  -9.025
REMARK INTRA:                  -1.353
REMARK UNBOUND:                -1.175
REMARK  Name = 
REMARK  9 active torsions:
REMARK  status: ('A' for Active; 'I' for Inactive)
REMARK    1  A    between atoms: C_1  and  O_2
REMARK    2  A    between atoms: O_2  and  C_3
REMARK    3  A    between atoms: C_10  and  C_11
REMARK    4  A    between atoms: N_13  and  C_14
REMARK    5  A    between atoms: C_14  and  C_15
REMARK    6  A    between atoms: C_18  and  C_19
REMARK    7  A    between atoms: C_19  and  S_20
REMARK    8  A    between atoms: S_20  and  C_21
REMARK    9  A    between atoms: C_21  and  C_22
REMARK                            x       y       z     vdW  Elec       q    Type
REMARK                         _______ _______ _______ _____ _____    ______ ____
ROOT
ATOM      1  C   UNL     1      47.664   7.849  12.098  0.00  0.00    +0.000 C 
ENDROOT
BRANCH   1   2
ATOM      2  C   UNL     1      48.318   8.068  13.439  0.00  0.00    +0.000 A 
ATOM      3  C   UNL     1      49.400   7.273  13.839  0.00  0.00    +0.000 A 
ATOM      4  C   UNL     1      50.026   7.489  15.070  0.00  0.00    +0.000 A 
ATOM      5  C   UNL     1      49.586   8.506  15.930  0.00  0.00    +0.000 A 
ATOM      6  C   UNL     1      48.471   9.268  15.550  0.00  0.00    +0.000 A 
ATOM      7  C   UNL     1      47.842   9.049  14.319  0.00  0.00    +0.000 A 
BRANCH   5   8
ATOM      8  C   UNL     1      50.268   8.751  17.254  0.00  0.00    +0.000 C 
BRANCH   8   9
ATOM      9  S   UNL     1      50.147   7.374  18.442  0.00  0.00    +0.000 S 
BRANCH   9  10
ATOM     10  C   UNL     1      48.444   6.798  18.131  0.00  0.00    +0.000 C 
BRANCH  10  11
ATOM     11  C   UNL     1      48.431   5.323  17.800  0.00  0.00    +0.000 A 
ATOM     12  C   UNL     1      47.220   4.623  17.653  0.00  0.00    +0.000 A 
ATOM     13  C   UNL     1      47.214   3.264  17.316  0.00  0.00    +0.000 A 
ATOM     14  C   UNL     1      48.417   2.590  17.113  0.00  0.00    +0.000 A 
ATOM     15  C   UNL     1      49.615   3.279  17.252  0.00  0.00    +0.000 A 
ATOM     16  F   UNL     1      50.772   2.634  17.050  0.00  0.00    +0.000 F 
ATOM     17  C   UNL     1      49.633   4.631  17.590  0.00  0.00    +0.000 A 
ENDBRANCH  10  11
ENDBRANCH   9  10
ENDBRANCH   8   9
ENDBRANCH   5   8
ENDBRANCH   1   2
BRANCH   1  20
ATOM     18  C   UNL     1      45.635   6.536  11.661  0.00  0.00    +0.000 C 
ATOM     19  O   UNL     1      45.015   7.546  11.343  0.00  0.00    +0.000 OA
ATOM     20  N   UNL     1      46.942   6.600  12.061  0.00  0.00    +0.000 N 
ATOM     21  H   UNL     1      47.419   5.772  12.386  0.00  0.00    +0.000 HD
BRANCH  18  29
ATOM     22  C   UNL     1      45.334   4.124   9.207  0.00  0.00    +0.000 A 
ATOM     23  N   UNL     1      44.994   3.074   8.434  0.00  0.00    +0.000 NA
ATOM     24  C   UNL     1      44.240   2.111   8.970  0.00  0.00    +0.000 A 
ATOM     25  N   UNL     1      43.779   2.059  10.217  0.00  0.00    +0.000 NA
ATOM     26  C   UNL     1      44.127   3.129  10.950  0.00  0.00    +0.000 A 
ATOM     27  S   UNL     1      43.634   3.220  12.572  0.00  0.00    +0.000 S 
ATOM     28  C   UNL     1      44.382   4.732  12.765  0.00  0.00    +0.000 A 
ATOM     29  C   UNL     1      45.008   5.204  11.616  0.00  0.00    +0.000 A 
ATOM     30  C   UNL     1      44.884   4.223  10.537  0.00  0.00    +0.000 A 
BRANCH  22  32
ATOM     31  C   UNL     1      46.928   4.626   7.557  0.00  0.00    +0.000 C 
ATOM     32  O   UNL     1      46.163   5.089   8.669  0.00  0.00    +0.000 OA
ENDBRANCH  22  32
ENDBRANCH  18  29
ENDBRANCH   1  20
TORSDOF 8
ENDMDL
MODEL 9
REMARK VINA RESULT:    -5.988      3.722      4.635
REMARK INTER + INTRA:          -9.964
REMARK INTER:                  -9.032
REMARK INTRA:                  -0.932
REMARK UNBOUND:                -1.175
REMARK  Name = 
REMARK  9 active torsions:
REMARK  status: ('A' for Active; 'I' for Inactive)
REMARK    1  A    between atoms: C_1  and  O_2
REMARK    2  A    between atoms: O_2  and  C_3
REMARK    3  A    between atoms: C_10  and  C_11
REMARK    4  A    between atoms: N_13  and  C_14
REMARK    5  A    between atoms: C_14  and  C_15
REMARK    6  A    between atoms: C_18  and  C_19
REMARK    7  A    between atoms: C_19  and  S_20
REMARK    8  A    between atoms: S_20  and  C_21
REMARK    9  A    between atoms: C_21  and  C_22
REMARK                            x       y       z     vdW  Elec       q    Type
REMARK                         _______ _______ _______ _____ _____    ______ ____
ROOT
ATOM      1  C   UNL     1      46.469   9.179  13.420  0.00  0.00    +0.000 C 
ENDROOT
BRANCH   1   2
ATOM      2  C   UNL     1      46.200   7.798  12.877  0.00  0.00    +0.000 A 
ATOM      3  C   UNL     1      45.342   7.619  11.785  0.00  0.00    +0.000 A 
ATOM      4  C   UNL     1      45.110   6.344  11.262  0.00  0.00    +0.000 A 
ATOM      5  C   UNL     1      45.732   5.217  11.817  0.00  0.00    +0.000 A 
ATOM      6  C   UNL     1      46.552   5.392  12.942  0.00  0.00    +0.000 A 
ATOM      7  C   UNL     1      46.781   6.668  13.468  0.00  0.00    +0.000 A 
BRANCH   5   8
ATOM      8  C   UNL     1      45.495   3.840  11.246  0.00  0.00    +0.000 C 
BRANCH   8   9
ATOM      9  S   UNL     1      44.054   3.710  10.139  0.00  0.00    +0.000 S 
BRANCH   9  10
ATOM     10  C   UNL     1      44.780   4.267   8.560  0.00  0.00    +0.000 C 
BRANCH  10  11
ATOM     11  C   UNL     1      45.666   3.191   7.971  0.00  0.00    +0.000 A 
ATOM     12  C   UNL     1      45.745   1.916   8.558  0.00  0.00    +0.000 A 
ATOM     13  C   UNL     1      46.542   0.915   7.990  0.00  0.00    +0.000 A 
ATOM     14  C   UNL     1      47.264   1.173   6.826  0.00  0.00    +0.000 A 
ATOM     15  C   UNL     1      47.184   2.430   6.241  0.00  0.00    +0.000 A 
ATOM     16  F   UNL     1      47.871   2.678   5.117  0.00  0.00    +0.000 F 
ATOM     17  C   UNL     1      46.396   3.435   6.798  0.00  0.00    +0.000 A 
ENDBRANCH  10  11
ENDBRANCH   9  10
ENDBRANCH   8   9
ENDBRANCH   5   8
ENDBRANCH   1   2
BRANCH   1  20
ATOM     18  C   UNL     1      48.524   9.363  14.753  0.00  0.00    +0.000 C 
ATOM     19  O   UNL     1      47.910   9.112  15.786  0.00  0.00    +0.000 OA
ATOM     20  N   UNL     1      47.884   9.430  13.544  0.00  0.00    +0.000 N 
ATOM     21  H   UNL     1      48.387   9.704  12.714  0.00  0.00    +0.000 HD
BRANCH  18  29
ATOM     22  C   UNL     1      51.030   8.835  12.437  0.00  0.00    +0.000 A 
ATOM     23  N   UNL     1      52.193   8.657  11.779  0.00  0.00    +0.000 NA
ATOM     24  C   UNL     1      53.328   8.983  12.400  0.00  0.00    +0.000 A 
ATOM     25  N   UNL     1      53.452   9.489  13.624  0.00  0.00    +0.000 NA
ATOM     26  C   UNL     1      52.273   9.639  14.251  0.00  0.00    +0.000 A 
ATOM     27  S   UNL     1      52.243  10.286  15.820  0.00  0.00    +0.000 S 
ATOM     28  C   UNL     1      50.554  10.137  15.903  0.00  0.00    +0.000 A 
ATOM     29  C   UNL     1      49.978   9.591  14.760  0.00  0.00    +0.000 A 
ATOM     30  C   UNL     1      51.010   9.325  13.756  0.00  0.00    +0.000 A 
BRANCH  22  32
ATOM     31  C   UNL     1      49.751   7.194  11.347  0.00  0.00    +0.000 C 
ATOM     32  O   UNL     1      49.854   8.552  11.770  0.00  0.00    +0.000 OA
ENDBRANCH  22  32
ENDBRANCH  18  29
ENDBRANCH   1  20
TORSDOF 8
ENDMDL
