MODEL 1
REMARK VINA RESULT:    -8.057      0.000      0.000
REMARK INTER + INTRA:         -10.927
REMARK INTER:                 -10.882
REMARK INTRA:                  -0.044
REMARK UNBOUND:                -0.044
REMARK  Name = 
REMARK  7 active torsions:
REMARK  status: ('A' for Active; 'I' for Inactive)
REMARK    1  A    between atoms: C_1  and  O_2
REMARK    2  A    between atoms: O_2  and  C_3
REMARK    3  A    between atoms: C_5  and  C_6
REMARK    4  A    between atoms: C_6  and  O_7
REMARK    5  A    between atoms: O_7  and  C_8
REMARK    6  A    between atoms: C_12  and  C_13
REMARK    7  A    between atoms: C_19  and  C_20
REMARK                            x       y       z     vdW  Elec       q    Type
REMARK                         _______ _______ _______ _____ _____    ______ ____
ROOT
ATOM      1  O   UNL     1      43.806   2.768  10.669  0.00  0.00    +0.000 OA
ENDROOT
BRANCH   1   2
ATOM      2  C   UNL     1      44.610   2.869   9.568  0.00  0.00    +0.000 A 
ATOM      3  C   UNL     1      44.568   4.083   8.889  0.00  0.00    +0.000 A 
ATOM      4  N   UNL     1      45.284   4.365   7.773  0.00  0.00    +0.000 NA
ATOM      5  C   UNL     1      46.086   3.379   7.304  0.00  0.00    +0.000 A 
ATOM      6  C   UNL     1      46.207   2.131   7.898  0.00  0.00    +0.000 A 
ATOM      7  C   UNL     1      45.453   1.884   9.057  0.00  0.00    +0.000 A 
BRANCH   6   8
ATOM      8  C   UNL     1      47.082   1.055   7.369  0.00  0.00    +0.000 C 
ATOM      9  N   UNL     1      46.802  -0.248   7.668  0.00  0.00    +0.000 N 
ATOM     10  O   UNL     1      48.055   1.326   6.674  0.00  0.00    +0.000 OA
ATOM     11  H   UNL     1      46.045  -0.580   8.246  0.00  0.00    +0.000 HD
ATOM     12  H   UNL     1      47.439  -0.944   7.297  0.00  0.00    +0.000 HD
ENDBRANCH   6   8
ENDBRANCH   1   2
BRANCH   1  13
ATOM     13  C   UNL     1      43.463   3.984  11.332  0.00  0.00    +0.000 C 
BRANCH  13  16
ATOM     14  C   UNL     1      46.627   4.225  13.503  0.00  0.00    +0.000 A 
ATOM     15  C   UNL     1      45.498   3.720  12.830  0.00  0.00    +0.000 A 
ATOM     16  C   UNL     1      44.691   4.536  12.021  0.00  0.00    +0.000 A 
ATOM     17  C   UNL     1      45.054   5.875  11.851  0.00  0.00    +0.000 A 
ATOM     18  C   UNL     1      46.178   6.385  12.503  0.00  0.00    +0.000 A 
ATOM     19  C   UNL     1      46.972   5.573  13.331  0.00  0.00    +0.000 A 
BRANCH  14  21
ATOM     20  C   UNL     1      47.467   3.447  15.611  0.00  0.00    +0.000 C 
ATOM     21  O   UNL     1      47.297   3.262  14.210  0.00  0.00    +0.000 OA
ENDBRANCH  14  21
BRANCH  19  22
ATOM     22  C   UNL     1      48.124   6.196  13.917  0.00  0.00    +0.000 C 
ATOM     23  N   UNL     1      49.055   6.670  14.420  0.00  0.00    +0.000 NA
ENDBRANCH  19  22
ENDBRANCH  13  16
ENDBRANCH   1  13
TORSDOF 6
ENDMDL
MODEL 2
REMARK VINA RESULT:    -7.959      1.274      2.066
REMARK INTER + INTRA:         -10.795
REMARK INTER:                 -10.628
REMARK INTRA:                  -0.167
REMARK UNBOUND:                -0.044
REMARK  Name = 
REMARK  7 active torsions:
REMARK  status: ('A' for Active; 'I' for Inactive)
REMARK    1  A    between atoms: C_1  and  O_2
REMARK    2  A    between atoms: O_2  and  C_3
REMARK    3  A    between atoms: C_5  and  C_6
REMARK    4  A    between atoms: C_6  and  O_7
REMARK    5  A    between atoms: O_7  and  C_8
REMARK    6  A    between atoms: C_12  and  C_13
REMARK    7  A    between atoms: C_19  and  C_20
REMARK                            x       y       z     vdW  Elec       q    Type
REMARK                         _______ _______ _______ _____ _____    ______ ____
ROOT
ATOM      1  O   UNL     1      43.766   2.874  10.395  0.00  0.00    +0.000 OA
ENDROOT
BRANCH   1   2
ATOM      2  C   UNL     1      44.664   2.934   9.365  0.00  0.00    +0.000 A 
ATOM      3  C   UNL     1      44.790   4.168   8.735  0.00  0.00    +0.000 A 
ATOM      4  N   UNL     1      45.618   4.418   7.692  0.00  0.00    +0.000 NA
ATOM      5  C   UNL     1      46.362   3.377   7.247  0.00  0.00    +0.000 A 
ATOM      6  C   UNL     1      46.319   2.104   7.798  0.00  0.00    +0.000 A 
ATOM      7  C   UNL     1      45.452   1.891   8.883  0.00  0.00    +0.000 A 
BRANCH   6   8
ATOM      8  C   UNL     1      47.132   0.968   7.297  0.00  0.00    +0.000 C 
ATOM      9  N   UNL     1      46.809  -0.307   7.668  0.00  0.00    +0.000 N 
ATOM     10  O   UNL     1      48.093   1.164   6.559  0.00  0.00    +0.000 OA
ATOM     11  H   UNL     1      46.058  -0.578   8.284  0.00  0.00    +0.000 HD
ATOM     12  H   UNL     1      47.404  -1.045   7.312  0.00  0.00    +0.000 HD
ENDBRANCH   6   8
ENDBRANCH   1   2
BRANCH   1  13
ATOM     13  C   UNL     1      43.392   4.111  10.999  0.00  0.00    +0.000 C 
BRANCH  13  16
ATOM     14  C   UNL     1      46.089   6.467  12.396  0.00  0.00    +0.000 A 
ATOM     15  C   UNL     1      44.989   5.968  11.673  0.00  0.00    +0.000 A 
ATOM     16  C   UNL     1      44.555   4.640  11.808  0.00  0.00    +0.000 A 
ATOM     17  C   UNL     1      45.211   3.812  12.723  0.00  0.00    +0.000 A 
ATOM     18  C   UNL     1      46.296   4.298  13.455  0.00  0.00    +0.000 A 
ATOM     19  C   UNL     1      46.745   5.621  13.302  0.00  0.00    +0.000 A 
BRANCH  14  21
ATOM     20  C   UNL     1      45.606   8.763  12.894  0.00  0.00    +0.000 C 
ATOM     21  O   UNL     1      46.330   7.793  12.147  0.00  0.00    +0.000 OA
ENDBRANCH  14  21
BRANCH  19  22
ATOM     22  C   UNL     1      47.842   6.021  14.135  0.00  0.00    +0.000 C 
ATOM     23  N   UNL     1      48.746   6.308  14.803  0.00  0.00    +0.000 NA
ENDBRANCH  19  22
ENDBRANCH  13  16
ENDBRANCH   1  13
TORSDOF 6
ENDMDL
MODEL 3
REMARK VINA RESULT:    -7.720      1.843      2.638
REMARK INTER + INTRA:         -10.473
REMARK INTER:                  -9.956
REMARK INTRA:                  -0.517
REMARK UNBOUND:                -0.044
REMARK  Name = 
REMARK  7 active torsions:
REMARK  status: ('A' for Active; 'I' for Inactive)
REMARK    1  A    between atoms: C_1  and  O_2
REMARK    2  A    between atoms: O_2  and  C_3
REMARK    3  A    between atoms: C_5  and  C_6
REMARK    4  A    between atoms: C_6  and  O_7
REMARK    5  A    between atoms: O_7  and  C_8
REMARK    6  A    between atoms: C_12  and  C_13
REMARK    7  A    between atoms: C_19  and  C_20
REMARK                            x       y       z     vdW  Elec       q    Type
REMARK                         _______ _______ _______ _____ _____    ______ ____
ROOT
ATOM      1  O   UNL     1      44.103   4.489   9.232  0.00  0.00    +0.000 OA
ENDROOT
BRANCH   1   2
ATOM      2  C   UNL     1      44.872   3.498   8.688  0.00  0.00    +0.000 A 
ATOM      3  C   UNL     1      44.731   2.235   9.255  0.00  0.00    +0.000 A 
ATOM      4  N   UNL     1      45.415   1.134   8.858  0.00  0.00    +0.000 NA
ATOM      5  C   UNL     1      46.294   1.301   7.841  0.00  0.00    +0.000 A 
ATOM      6  C   UNL     1      46.517   2.512   7.202  0.00  0.00    +0.000 A 
ATOM      7  C   UNL     1      45.781   3.626   7.639  0.00  0.00    +0.000 A 
BRANCH   6   8
ATOM      8  C   UNL     1      47.489   2.686   6.094  0.00  0.00    +0.000 C 
ATOM      9  N   UNL     1      48.822   2.496   6.333  0.00  0.00    +0.000 N 
ATOM     10  O   UNL     1      47.109   3.003   4.972  0.00  0.00    +0.000 OA
ATOM     11  H   UNL     1      49.243   2.256   7.217  0.00  0.00    +0.000 HD
ATOM     12  H   UNL     1      49.446   2.641   5.548  0.00  0.00    +0.000 HD
ENDBRANCH   6   8
ENDBRANCH   1   2
BRANCH   1  13
ATOM     13  C   UNL     1      43.670   4.305  10.579  0.00  0.00    +0.000 C 
BRANCH  13  16
ATOM     14  C   UNL     1      46.300   6.512  12.307  0.00  0.00    +0.000 A 
ATOM     15  C   UNL     1      45.263   6.076  11.461  0.00  0.00    +0.000 A 
ATOM     16  C   UNL     1      44.762   4.766  11.518  0.00  0.00    +0.000 A 
ATOM     17  C   UNL     1      45.285   3.892  12.474  0.00  0.00    +0.000 A 
ATOM     18  C   UNL     1      46.306   4.315  13.328  0.00  0.00    +0.000 A 
ATOM     19  C   UNL     1      46.823   5.621  13.255  0.00  0.00    +0.000 A 
BRANCH  14  21
ATOM     20  C   UNL     1      45.948   8.809  12.902  0.00  0.00    +0.000 C 
ATOM     21  O   UNL     1      46.620   7.831  12.118  0.00  0.00    +0.000 OA
ENDBRANCH  14  21
BRANCH  19  22
ATOM     22  C   UNL     1      47.842   5.955  14.207  0.00  0.00    +0.000 C 
ATOM     23  N   UNL     1      48.649   6.262  14.982  0.00  0.00    +0.000 NA
ENDBRANCH  19  22
ENDBRANCH  13  16
ENDBRANCH   1  13
TORSDOF 6
ENDMDL
MODEL 4
REMARK VINA RESULT:    -7.516      1.682      6.451
REMARK INTER + INTRA:         -10.197
REMARK INTER:                  -9.886
REMARK INTRA:                  -0.311
REMARK UNBOUND:                -0.044
REMARK  Name = 
REMARK  7 active torsions:
REMARK  status: ('A' for Active; 'I' for Inactive)
REMARK    1  A    between atoms: C_1  and  O_2
REMARK    2  A    between atoms: O_2  and  C_3
REMARK    3  A    between atoms: C_5  and  C_6
REMARK    4  A    between atoms: C_6  and  O_7
REMARK    5  A    between atoms: O_7  and  C_8
REMARK    6  A    between atoms: C_12  and  C_13
REMARK    7  A    between atoms: C_19  and  C_20
REMARK                            x       y       z     vdW  Elec       q    Type
REMARK                         _______ _______ _______ _____ _____    ______ ____
ROOT
ATOM      1  O   UNL     1      43.638   5.168  11.706  0.00  0.00    +0.000 OA
ENDROOT
BRANCH   1   2
ATOM      2  C   UNL     1      44.827   5.380  12.345  0.00  0.00    +0.000 A 
ATOM      3  C   UNL     1      45.580   6.460  11.893  0.00  0.00    +0.000 A 
ATOM      4  N   UNL     1      46.787   6.819  12.395  0.00  0.00    +0.000 NA
ATOM      5  C   UNL     1      47.274   6.057  13.403  0.00  0.00    +0.000 A 
ATOM      6  C   UNL     1      46.612   4.959  13.933  0.00  0.00    +0.000 A 
ATOM      7  C   UNL     1      45.361   4.626  13.388  0.00  0.00    +0.000 A 
BRANCH   6   8
ATOM      8  C   UNL     1      47.161   4.125  15.032  0.00  0.00    +0.000 C 
ATOM      9  N   UNL     1      47.108   4.586  16.317  0.00  0.00    +0.000 N 
ATOM     10  O   UNL     1      47.665   3.032  14.795  0.00  0.00    +0.000 OA
ATOM     11  H   UNL     1      46.738   5.474  16.619  0.00  0.00    +0.000 HD
ATOM     12  H   UNL     1      47.510   3.987  17.028  0.00  0.00    +0.000 HD
ENDBRANCH   6   8
ENDBRANCH   1   2
BRANCH   1  13
ATOM     13  C   UNL     1      43.628   5.330  10.288  0.00  0.00    +0.000 C 
BRANCH  13  16
ATOM     14  C   UNL     1      45.987   3.322   8.013  0.00  0.00    +0.000 A 
ATOM     15  C   UNL     1      45.313   4.389   8.637  0.00  0.00    +0.000 A 
ATOM     16  C   UNL     1      44.367   4.174   9.652  0.00  0.00    +0.000 A 
ATOM     17  C   UNL     1      44.130   2.865  10.078  0.00  0.00    +0.000 A 
ATOM     18  C   UNL     1      44.801   1.799   9.476  0.00  0.00    +0.000 A 
ATOM     19  C   UNL     1      45.731   2.012   8.443  0.00  0.00    +0.000 A 
BRANCH  14  21
ATOM     20  C   UNL     1      46.807   3.199   5.762  0.00  0.00    +0.000 C 
ATOM     21  O   UNL     1      46.892   3.743   7.073  0.00  0.00    +0.000 OA
ENDBRANCH  14  21
BRANCH  19  22
ATOM     22  C   UNL     1      46.387   0.846   7.927  0.00  0.00    +0.000 C 
ATOM     23  N   UNL     1      46.932  -0.104   7.547  0.00  0.00    +0.000 NA
ENDBRANCH  19  22
ENDBRANCH  13  16
ENDBRANCH   1  13
TORSDOF 6
ENDMDL
MODEL 5
REMARK VINA RESULT:    -6.961      1.893      6.378
REMARK INTER + INTRA:          -9.447
REMARK INTER:                 -10.114
REMARK INTRA:                   0.667
REMARK UNBOUND:                -0.044
REMARK  Name = 
REMARK  7 active torsions:
REMARK  status: ('A' for Active; 'I' for Inactive)
REMARK    1  A    between atoms: C_1  and  O_2
REMARK    2  A    between atoms: O_2  and  C_3
REMARK    3  A    between atoms: C_5  and  C_6
REMARK    4  A    between atoms: C_6  and  O_7
REMARK    5  A    between atoms: O_7  and  C_8
REMARK    6  A    between atoms: C_12  and  C_13
REMARK    7  A    between atoms: C_19  and  C_20
REMARK                            x       y       z     vdW  Elec       q    Type
REMARK                         _______ _______ _______ _____ _____    ______ ____
ROOT
ATOM      1  O   UNL     1      44.117   4.070  11.506  0.00  0.00    +0.000 OA
ENDROOT
BRANCH   1   2
ATOM      2  C   UNL     1      45.079   4.768  12.181  0.00  0.00    +0.000 A 
ATOM      3  C   UNL     1      45.391   6.025  11.673  0.00  0.00    +0.000 A 
ATOM      4  N   UNL     1      46.323   6.857  12.198  0.00  0.00    +0.000 NA
ATOM      5  C   UNL     1      46.986   6.409  13.292  0.00  0.00    +0.000 A 
ATOM      6  C   UNL     1      46.758   5.175  13.883  0.00  0.00    +0.000 A 
ATOM      7  C   UNL     1      45.779   4.347  13.310  0.00  0.00    +0.000 A 
BRANCH   6   8
ATOM      8  C   UNL     1      47.498   4.691  15.075  0.00  0.00    +0.000 C 
ATOM      9  N   UNL     1      47.255   3.434  15.553  0.00  0.00    +0.000 N 
ATOM     10  O   UNL     1      48.318   5.410  15.637  0.00  0.00    +0.000 OA
ATOM     11  H   UNL     1      46.590   2.771  15.184  0.00  0.00    +0.000 HD
ATOM     12  H   UNL     1      47.774   3.157  16.378  0.00  0.00    +0.000 HD
ENDBRANCH   6   8
ENDBRANCH   1   2
BRANCH   1  13
ATOM     13  C   UNL     1      43.828   4.490  10.173  0.00  0.00    +0.000 C 
BRANCH  13  16
ATOM     14  C   UNL     1      45.870   1.822   8.306  0.00  0.00    +0.000 A 
ATOM     15  C   UNL     1      44.940   2.443   9.161  0.00  0.00    +0.000 A 
ATOM     16  C   UNL     1      44.809   3.839   9.224  0.00  0.00    +0.000 A 
ATOM     17  C   UNL     1      45.598   4.623   8.378  0.00  0.00    +0.000 A 
ATOM     18  C   UNL     1      46.516   4.019   7.516  0.00  0.00    +0.000 A 
ATOM     19  C   UNL     1      46.662   2.622   7.470  0.00  0.00    +0.000 A 
BRANCH  14  21
ATOM     20  C   UNL     1      46.763  -0.294   7.614  0.00  0.00    +0.000 C 
ATOM     21  O   UNL     1      45.817   0.454   8.368  0.00  0.00    +0.000 OA
ENDBRANCH  14  21
BRANCH  19  22
ATOM     22  C   UNL     1      47.608   2.113   6.519  0.00  0.00    +0.000 C 
ATOM     23  N   UNL     1      48.388   1.738   5.746  0.00  0.00    +0.000 NA
ENDBRANCH  19  22
ENDBRANCH  13  16
ENDBRANCH   1  13
TORSDOF 6
ENDMDL
MODEL 6
REMARK VINA RESULT:    -6.919      2.083      6.639
REMARK INTER + INTRA:          -9.390
REMARK INTER:                  -9.365
REMARK INTRA:                  -0.025
REMARK UNBOUND:                -0.044
REMARK  Name = 
REMARK  7 active torsions:
REMARK  status: ('A' for Active; 'I' for Inactive)
REMARK    1  A    between atoms: C_1  and  O_2
REMARK    2  A    between atoms: O_2  and  C_3
REMARK    3  A    between atoms: C_5  and  C_6
REMARK    4  A    between atoms: C_6  and  O_7
REMARK    5  A    between atoms: O_7  and  C_8
REMARK    6  A    between atoms: C_12  and  C_13
REMARK    7  A    between atoms: C_19  and  C_20
REMARK                            x       y       z     vdW  Elec       q    Type
REMARK                         _______ _______ _______ _____ _____    ______ ____
ROOT
ATOM      1  O   UNL     1      44.644   3.706  12.356  0.00  0.00    +0.000 OA
ENDROOT
BRANCH   1   2
ATOM      2  C   UNL     1      45.598   4.566  12.826  0.00  0.00    +0.000 A 
ATOM      3  C   UNL     1      46.658   3.984  13.515  0.00  0.00    +0.000 A 
ATOM      4  N   UNL     1      47.690   4.673  14.062  0.00  0.00    +0.000 NA
ATOM      5  C   UNL     1      47.662   6.020  13.918  0.00  0.00    +0.000 A 
ATOM      6  C   UNL     1      46.656   6.706  13.253  0.00  0.00    +0.000 A 
ATOM      7  C   UNL     1      45.610   5.953  12.695  0.00  0.00    +0.000 A 
BRANCH   6   8
ATOM      8  C   UNL     1      46.632   8.183  13.110  0.00  0.00    +0.000 C 
ATOM      9  N   UNL     1      46.841   8.969  14.208  0.00  0.00    +0.000 N 
ATOM     10  O   UNL     1      46.419   8.703  12.019  0.00  0.00    +0.000 OA
ATOM     11  H   UNL     1      47.002   8.649  15.151  0.00  0.00    +0.000 HD
ATOM     12  H   UNL     1      46.798   9.971  14.061  0.00  0.00    +0.000 HD
ENDBRANCH   6   8
ENDBRANCH   1   2
BRANCH   1  13
ATOM     13  C   UNL     1      43.913   4.121  11.203  0.00  0.00    +0.000 C 
BRANCH  13  16
ATOM     14  C   UNL     1      45.657   2.069   8.460  0.00  0.00    +0.000 A 
ATOM     15  C   UNL     1      44.903   2.422   9.596  0.00  0.00    +0.000 A 
ATOM     16  C   UNL     1      44.698   3.761   9.962  0.00  0.00    +0.000 A 
ATOM     17  C   UNL     1      45.225   4.765   9.145  0.00  0.00    +0.000 A 
ATOM     18  C   UNL     1      45.965   4.430   8.010  0.00  0.00    +0.000 A 
ATOM     19  C   UNL     1      46.189   3.088   7.656  0.00  0.00    +0.000 A 
BRANCH  14  21
ATOM     20  C   UNL     1      46.889   0.161   7.688  0.00  0.00    +0.000 C 
ATOM     21  O   UNL     1      45.709   0.715   8.258  0.00  0.00    +0.000 OA
ENDBRANCH  14  21
BRANCH  19  22
ATOM     22  C   UNL     1      46.929   2.863   6.448  0.00  0.00    +0.000 C 
ATOM     23  N   UNL     1      47.533   2.643   5.483  0.00  0.00    +0.000 NA
ENDBRANCH  19  22
ENDBRANCH  13  16
ENDBRANCH   1  13
TORSDOF 6
ENDMDL
MODEL 7
REMARK VINA RESULT:    -6.675      1.661      2.061
REMARK INTER + INTRA:          -9.060
REMARK INTER:                  -8.466
REMARK INTRA:                  -0.593
REMARK UNBOUND:                -0.044
REMARK  Name = 
REMARK  7 active torsions:
REMARK  status: ('A' for Active; 'I' for Inactive)
REMARK    1  A    between atoms: C_1  and  O_2
REMARK    2  A    between atoms: O_2  and  C_3
REMARK    3  A    between atoms: C_5  and  C_6
REMARK    4  A    between atoms: C_6  and  O_7
REMARK    5  A    between atoms: O_7  and  C_8
REMARK    6  A    between atoms: C_12  and  C_13
REMARK    7  A    between atoms: C_19  and  C_20
REMARK                            x       y       z     vdW  Elec       q    Type
REMARK                         _______ _______ _______ _____ _____    ______ ____
ROOT
ATOM      1  O   UNL     1      45.232   5.647   9.807  0.00  0.00    +0.000 OA
ENDROOT
BRANCH   1   2
ATOM      2  C   UNL     1      45.400   4.412   9.246  0.00  0.00    +0.000 A 
ATOM      3  C   UNL     1      44.750   3.359   9.883  0.00  0.00    +0.000 A 
ATOM      4  N   UNL     1      44.807   2.065   9.482  0.00  0.00    +0.000 NA
ATOM      5  C   UNL     1      45.558   1.804   8.385  0.00  0.00    +0.000 A 
ATOM      6  C   UNL     1      46.248   2.774   7.671  0.00  0.00    +0.000 A 
ATOM      7  C   UNL     1      46.156   4.102   8.117  0.00  0.00    +0.000 A 
BRANCH   6   8
ATOM      8  C   UNL     1      47.075   2.475   6.475  0.00  0.00    +0.000 C 
ATOM      9  N   UNL     1      48.209   1.724   6.612  0.00  0.00    +0.000 N 
ATOM     10  O   UNL     1      46.754   2.900   5.371  0.00  0.00    +0.000 OA
ATOM     11  H   UNL     1      48.575   1.345   7.472  0.00  0.00    +0.000 HD
ATOM     12  H   UNL     1      48.747   1.561   5.769  0.00  0.00    +0.000 HD
ENDBRANCH   6   8
ENDBRANCH   1   2
BRANCH   1  13
ATOM     13  C   UNL     1      44.858   5.687  11.183  0.00  0.00    +0.000 C 
BRANCH  13  16
ATOM     14  C   UNL     1      47.470   5.729  14.003  0.00  0.00    +0.000 A 
ATOM     15  C   UNL     1      46.368   5.375  13.201  0.00  0.00    +0.000 A 
ATOM     16  C   UNL     1      46.065   6.061  12.014  0.00  0.00    +0.000 A 
ATOM     17  C   UNL     1      46.913   7.093  11.604  0.00  0.00    +0.000 A 
ATOM     18  C   UNL     1      48.015   7.446  12.383  0.00  0.00    +0.000 A 
ATOM     19  C   UNL     1      48.306   6.774  13.583  0.00  0.00    +0.000 A 
BRANCH  14  21
ATOM     20  C   UNL     1      47.430   3.516  14.929  0.00  0.00    +0.000 C 
ATOM     21  O   UNL     1      47.613   4.917  15.097  0.00  0.00    +0.000 OA
ENDBRANCH  14  21
BRANCH  19  22
ATOM     22  C   UNL     1      49.486   7.198  14.280  0.00  0.00    +0.000 C 
ATOM     23  N   UNL     1      50.463   7.524  14.814  0.00  0.00    +0.000 NA
ENDBRANCH  19  22
ENDBRANCH  13  16
ENDBRANCH   1  13
TORSDOF 6
ENDMDL
MODEL 8
REMARK VINA RESULT:    -6.660      2.025      6.713
REMARK INTER + INTRA:          -9.041
REMARK INTER:                  -8.715
REMARK INTRA:                  -0.326
REMARK UNBOUND:                -0.044
REMARK  Name = 
REMARK  7 active torsions:
REMARK  status: ('A' for Active; 'I' for Inactive)
REMARK    1  A    between atoms: C_1  and  O_2
REMARK    2  A    between atoms: O_2  and  C_3
REMARK    3  A    between atoms: C_5  and  C_6
REMARK    4  A    between atoms: C_6  and  O_7
REMARK    5  A    between atoms: O_7  and  C_8
REMARK    6  A    between atoms: C_12  and  C_13
REMARK    7  A    between atoms: C_19  and  C_20
REMARK                            x       y       z     vdW  Elec       q    Type
REMARK                         _______ _______ _______ _____ _____    ______ ____
ROOT
ATOM      1  O   UNL     1      43.699   4.875  12.033  0.00  0.00    +0.000 OA
ENDROOT
BRANCH   1   2
ATOM      2  C   UNL     1      44.904   5.254  12.557  0.00  0.00    +0.000 A 
ATOM      3  C   UNL     1      45.618   4.263  13.224  0.00  0.00    +0.000 A 
ATOM      4  N   UNL     1      46.823   4.451  13.816  0.00  0.00    +0.000 NA
ATOM      5  C   UNL     1      47.345   5.699  13.743  0.00  0.00    +0.000 A 
ATOM      6  C   UNL     1      46.722   6.762  13.105  0.00  0.00    +0.000 A 
ATOM      7  C   UNL     1      45.479   6.522  12.498  0.00  0.00    +0.000 A 
BRANCH   6   8
ATOM      8  C   UNL     1      47.300   8.128  13.039  0.00  0.00    +0.000 C 
ATOM      9  N   UNL     1      47.852   8.570  11.869  0.00  0.00    +0.000 N 
ATOM     10  O   UNL     1      47.292   8.858  14.024  0.00  0.00    +0.000 OA
ATOM     11  H   UNL     1      47.931   8.048  11.010  0.00  0.00    +0.000 HD
ATOM     12  H   UNL     1      48.247   9.503  11.881  0.00  0.00    +0.000 HD
ENDBRANCH   6   8
ENDBRANCH   1   2
BRANCH   1  13
ATOM     13  C   UNL     1      43.506   5.087  10.636  0.00  0.00    +0.000 C 
BRANCH  13  16
ATOM     14  C   UNL     1      45.935   3.498   8.115  0.00  0.00    +0.000 A 
ATOM     15  C   UNL     1      45.208   4.444   8.864  0.00  0.00    +0.000 A 
ATOM     16  C   UNL     1      44.302   4.058   9.864  0.00  0.00    +0.000 A 
ATOM     17  C   UNL     1      44.158   2.698  10.147  0.00  0.00    +0.000 A 
ATOM     18  C   UNL     1      44.881   1.750   9.420  0.00  0.00    +0.000 A 
ATOM     19  C   UNL     1      45.772   2.135   8.403  0.00  0.00    +0.000 A 
BRANCH  14  21
ATOM     20  C   UNL     1      46.813   3.574   5.884  0.00  0.00    +0.000 C 
ATOM     21  O   UNL     1      46.789   4.078   7.214  0.00  0.00    +0.000 OA
ENDBRANCH  14  21
BRANCH  19  22
ATOM     22  C   UNL     1      46.489   1.078   7.750  0.00  0.00    +0.000 C 
ATOM     23  N   UNL     1      47.085   0.213   7.259  0.00  0.00    +0.000 NA
ENDBRANCH  19  22
ENDBRANCH  13  16
ENDBRANCH   1  13
TORSDOF 6
ENDMDL
MODEL 9
REMARK VINA RESULT:    -6.638      3.013      7.207
REMARK INTER + INTRA:          -9.010
REMARK INTER:                  -8.647
REMARK INTRA:                  -0.363
REMARK UNBOUND:                -0.044
REMARK  Name = 
REMARK  7 active torsions:
REMARK  status: ('A' for Active; 'I' for Inactive)
REMARK    1  A    between atoms: C_1  and  O_2
REMARK    2  A    between atoms: O_2  and  C_3
REMARK    3  A    between atoms: C_5  and  C_6
REMARK    4  A    between atoms: C_6  and  O_7
REMARK    5  A    between atoms: O_7  and  C_8
REMARK    6  A    between atoms: C_12  and  C_13
REMARK    7  A    between atoms: C_19  and  C_20
REMARK                            x       y       z     vdW  Elec       q    Type
REMARK                         _______ _______ _______ _____ _____    ______ ____
ROOT
ATOM      1  O   UNL     1      44.110   5.422  11.707  0.00  0.00    +0.000 OA
ENDROOT
BRANCH   1   2
ATOM      2  C   UNL     1      44.820   6.545  12.027  0.00  0.00    +0.000 A 
ATOM      3  C   UNL     1      45.985   6.342  12.761  0.00  0.00    +0.000 A 
ATOM      4  N   UNL     1      46.812   7.331  13.179  0.00  0.00    +0.000 NA
ATOM      5  C   UNL     1      46.457   8.596  12.851  0.00  0.00    +0.000 A 
ATOM      6  C   UNL     1      45.319   8.916  12.124  0.00  0.00    +0.000 A 
ATOM      7  C   UNL     1      44.494   7.860  11.704  0.00  0.00    +0.000 A 
BRANCH   6   8
ATOM      8  C   UNL     1      44.934  10.308  11.779  0.00  0.00    +0.000 C 
ATOM      9  N   UNL     1      43.664  10.739  12.038  0.00  0.00    +0.000 N 
ATOM     10  O   UNL     1      45.743  11.069  11.258  0.00  0.00    +0.000 OA
ATOM     11  H   UNL     1      42.917  10.193  12.440  0.00  0.00    +0.000 HD
ATOM     12  H   UNL     1      43.446  11.692  11.769  0.00  0.00    +0.000 HD
ENDBRANCH   6   8
ENDBRANCH   1   2
BRANCH   1  13
ATOM     13  C   UNL     1      43.671   5.298  10.355  0.00  0.00    +0.000 C 
BRANCH  13  16
ATOM     14  C   UNL     1      46.044   3.325   8.063  0.00  0.00    +0.000 A 
ATOM     15  C   UNL     1      45.373   4.383   8.706  0.00  0.00    +0.000 A 
ATOM     16  C   UNL     1      44.406   4.151   9.698  0.00  0.00    +0.000 A 
ATOM     17  C   UNL     1      44.144   2.834  10.081  0.00  0.00    +0.000 A 
ATOM     18  C   UNL     1      44.811   1.777   9.459  0.00  0.00    +0.000 A 
ATOM     19  C   UNL     1      45.763   2.007   8.450  0.00  0.00    +0.000 A 
BRANCH  14  21
ATOM     20  C   UNL     1      46.815   3.378   5.792  0.00  0.00    +0.000 C 
ATOM     21  O   UNL     1      46.971   3.761   7.153  0.00  0.00    +0.000 OA
ENDBRANCH  14  21
BRANCH  19  22
ATOM     22  C   UNL     1      46.412   0.848   7.911  0.00  0.00    +0.000 C 
ATOM     23  N   UNL     1      46.910  -0.113   7.494  0.00  0.00    +0.000 NA
ENDBRANCH  19  22
ENDBRANCH  13  16
ENDBRANCH   1  13
TORSDOF 6
ENDMDL
