MODEL 1
REMARK VINA RESULT:    -9.007      0.000      0.000
REMARK INTER + INTRA:         -11.949
REMARK INTER:                 -11.113
REMARK INTRA:                  -0.836
REMARK UNBOUND:                -0.836
REMARK  Name = 
REMARK  4 active torsions:
REMARK  status: ('A' for Active; 'I' for Inactive)
REMARK    1  A    between atoms: C_2  and  C_4
REMARK    2  A    between atoms: N_8  and  C_9
REMARK    3  A    between atoms: C_9  and  C_10
REMARK    4  A    between atoms: C_14  and  C_15
REMARK                            x       y       z     vdW  Elec       q    Type
REMARK                         _______ _______ _______ _____ _____    ______ ____
ROOT
ATOM      1  C   UNL     1      46.357   2.263   7.683  0.00  0.00    +0.000 A 
ATOM      2  C   UNL     1      45.647   1.780   8.777  0.00  0.00    +0.000 A 
ATOM      3  C   UNL     1      44.794   2.642   9.468  0.00  0.00    +0.000 A 
ATOM      4  C   UNL     1      44.673   3.968   9.064  0.00  0.00    +0.000 A 
ATOM      5  N   UNL     1      43.794   4.861   9.633  0.00  0.00    +0.000 N 
ATOM      6  N   UNL     1      45.374   4.450   8.019  0.00  0.00    +0.000 NA
ATOM      7  C   UNL     1      46.204   3.600   7.358  0.00  0.00    +0.000 A 
ATOM      8  H   UNL     1      43.933   5.777   9.216  0.00  0.00    +0.000 HD
ENDROOT
BRANCH   1  10
ATOM      9  N   UNL     1      48.345   2.031   6.306  0.00  0.00    +0.000 N 
ATOM     10  C   UNL     1      47.258   1.421   6.870  0.00  0.00    +0.000 C 
ATOM     11  O   UNL     1      47.065   0.220   6.735  0.00  0.00    +0.000 OA
ATOM     12  H   UNL     1      49.010   1.426   5.842  0.00  0.00    +0.000 HD
ATOM     13  H   UNL     1      48.670   2.942   6.601  0.00  0.00    +0.000 HD
ENDBRANCH   1  10
BRANCH   5  14
ATOM     14  C   UNL     1      43.461   4.864  11.043  0.00  0.00    +0.000 C 
BRANCH  14  15
ATOM     15  C   UNL     1      44.615   5.164  11.980  0.00  0.00    +0.000 A 
ATOM     16  C   UNL     1      45.063   4.287  12.973  0.00  0.00    +0.000 A 
ATOM     17  C   UNL     1      46.161   4.618  13.765  0.00  0.00    +0.000 A 
ATOM     18  C   UNL     1      46.841   5.819  13.558  0.00  0.00    +0.000 A 
ATOM     19  C   UNL     1      46.446   6.718  12.555  0.00  0.00    +0.000 A 
ATOM     20  C   UNL     1      45.304   6.384  11.803  0.00  0.00    +0.000 A 
BRANCH  19  21
ATOM     21  C   UNL     1      47.232   7.935  12.255  0.00  0.00    +0.000 A 
ATOM     22  C   UNL     1      48.587   7.870  11.929  0.00  0.00    +0.000 A 
ATOM     23  C   UNL     1      49.280   9.037  11.619  0.00  0.00    +0.000 A 
ATOM     24  C   UNL     1      48.604  10.249  11.638  0.00  0.00    +0.000 A 
ATOM     25  C   UNL     1      47.260  10.236  11.963  0.00  0.00    +0.000 A 
ATOM     26  N   UNL     1      46.559   9.115  12.261  0.00  0.00    +0.000 NA
ENDBRANCH  19  21
ENDBRANCH  14  15
ENDBRANCH   5  14
TORSDOF 4
ENDMDL
MODEL 2
REMARK VINA RESULT:    -8.510      2.173      3.943
REMARK INTER + INTRA:         -11.337
REMARK INTER:                 -10.561
REMARK INTRA:                  -0.776
REMARK UNBOUND:                -0.836
REMARK  Name = 
REMARK  4 active torsions:
REMARK  status: ('A' for Active; 'I' for Inactive)
REMARK    1  A    between atoms: C_2  and  C_4
REMARK    2  A    between atoms: N_8  and  C_9
REMARK    3  A    between atoms: C_9  and  C_10
REMARK    4  A    between atoms: C_14  and  C_15
REMARK                            x       y       z     vdW  Elec       q    Type
REMARK                         _______ _______ _______ _____ _____    ______ ____
ROOT
ATOM      1  C   UNL     1      46.397   2.273   7.624  0.00  0.00    +0.000 A 
ATOM      2  C   UNL     1      45.884   1.812   8.832  0.00  0.00    +0.000 A 
ATOM      3  C   UNL     1      45.134   2.680   9.627  0.00  0.00    +0.000 A 
ATOM      4  C   UNL     1      44.917   3.990   9.209  0.00  0.00    +0.000 A 
ATOM      5  N   UNL     1      44.121   4.884   9.886  0.00  0.00    +0.000 N 
ATOM      6  N   UNL     1      45.429   4.451   8.050  0.00  0.00    +0.000 NA
ATOM      7  C   UNL     1      46.162   3.595   7.289  0.00  0.00    +0.000 A 
ATOM      8  H   UNL     1      44.168   5.788   9.426  0.00  0.00    +0.000 HD
ENDROOT
BRANCH   1  10
ATOM      9  N   UNL     1      48.280   1.979   6.117  0.00  0.00    +0.000 N 
ATOM     10  C   UNL     1      47.175   1.422   6.700  0.00  0.00    +0.000 C 
ATOM     11  O   UNL     1      46.869   0.256   6.492  0.00  0.00    +0.000 OA
ATOM     12  H   UNL     1      48.863   1.357   5.573  0.00  0.00    +0.000 HD
ATOM     13  H   UNL     1      48.701   2.833   6.456  0.00  0.00    +0.000 HD
ENDBRANCH   1  10
BRANCH   5  14
ATOM     14  C   UNL     1      44.020   4.927  11.332  0.00  0.00    +0.000 C 
BRANCH  14  15
ATOM     15  C   UNL     1      45.259   5.421  12.052  0.00  0.00    +0.000 A 
ATOM     16  C   UNL     1      45.930   6.606  11.731  0.00  0.00    +0.000 A 
ATOM     17  C   UNL     1      47.038   7.014  12.472  0.00  0.00    +0.000 A 
ATOM     18  C   UNL     1      47.475   6.256  13.559  0.00  0.00    +0.000 A 
ATOM     19  C   UNL     1      46.817   5.074  13.937  0.00  0.00    +0.000 A 
ATOM     20  C   UNL     1      45.732   4.658  13.142  0.00  0.00    +0.000 A 
BRANCH  19  21
ATOM     21  C   UNL     1      47.203   4.331  15.156  0.00  0.00    +0.000 A 
ATOM     22  C   UNL     1      46.842   4.774  16.429  0.00  0.00    +0.000 A 
ATOM     23  C   UNL     1      47.197   4.024  17.548  0.00  0.00    +0.000 A 
ATOM     24  C   UNL     1      47.905   2.844  17.373  0.00  0.00    +0.000 A 
ATOM     25  C   UNL     1      48.223   2.464  16.081  0.00  0.00    +0.000 A 
ATOM     26  N   UNL     1      47.883   3.169  14.975  0.00  0.00    +0.000 NA
ENDBRANCH  19  21
ENDBRANCH  14  15
ENDBRANCH   5  14
TORSDOF 4
ENDMDL
MODEL 3
REMARK VINA RESULT:    -7.624      3.043      7.024
REMARK INTER + INTRA:         -10.243
REMARK INTER:                  -9.615
REMARK INTRA:                  -0.628
REMARK UNBOUND:                -0.836
REMARK  Name = 
REMARK  4 active torsions:
REMARK  status: ('A' for Active; 'I' for Inactive)
REMARK    1  A    between atoms: C_2  and  C_4
REMARK    2  A    between atoms: N_8  and  C_9
REMARK    3  A    between atoms: C_9  and  C_10
REMARK    4  A    between atoms: C_14  and  C_15
REMARK                            x       y       z     vdW  Elec       q    Type
REMARK                         _______ _______ _______ _____ _____    ______ ____
ROOT
ATOM      1  C   UNL     1      48.424   7.066  14.015  0.00  0.00    +0.000 A 
ATOM      2  C   UNL     1      47.607   5.945  13.915  0.00  0.00    +0.000 A 
ATOM      3  C   UNL     1      46.544   5.957  13.011  0.00  0.00    +0.000 A 
ATOM      4  C   UNL     1      46.309   7.087  12.232  0.00  0.00    +0.000 A 
ATOM      5  N   UNL     1      45.340   7.153  11.258  0.00  0.00    +0.000 N 
ATOM      6  N   UNL     1      47.084   8.185  12.338  0.00  0.00    +0.000 NA
ATOM      7  C   UNL     1      48.113   8.160  13.226  0.00  0.00    +0.000 A 
ATOM      8  H   UNL     1      45.318   8.092  10.873  0.00  0.00    +0.000 HD
ENDROOT
BRANCH   1  10
ATOM      9  N   UNL     1      50.779   7.543  14.373  0.00  0.00    +0.000 N 
ATOM     10  C   UNL     1      49.592   7.135  14.917  0.00  0.00    +0.000 C 
ATOM     11  O   UNL     1      49.497   6.878  16.109  0.00  0.00    +0.000 OA
ATOM     12  H   UNL     1      51.543   7.690  15.019  0.00  0.00    +0.000 HD
ATOM     13  H   UNL     1      50.835   8.002  13.473  0.00  0.00    +0.000 HD
ENDBRANCH   1  10
BRANCH   5  14
ATOM     14  C   UNL     1      44.053   6.496  11.367  0.00  0.00    +0.000 C 
BRANCH  14  15
ATOM     15  C   UNL     1      44.063   5.005  11.101  0.00  0.00    +0.000 A 
ATOM     16  C   UNL     1      43.272   4.081  11.793  0.00  0.00    +0.000 A 
ATOM     17  C   UNL     1      43.307   2.729  11.457  0.00  0.00    +0.000 A 
ATOM     18  C   UNL     1      44.113   2.284  10.408  0.00  0.00    +0.000 A 
ATOM     19  C   UNL     1      44.903   3.178   9.666  0.00  0.00    +0.000 A 
ATOM     20  C   UNL     1      44.889   4.530  10.058  0.00  0.00    +0.000 A 
BRANCH  19  21
ATOM     21  C   UNL     1      45.668   2.731   8.482  0.00  0.00    +0.000 A 
ATOM     22  C   UNL     1      45.968   3.601   7.433  0.00  0.00    +0.000 A 
ATOM     23  C   UNL     1      46.721   3.147   6.352  0.00  0.00    +0.000 A 
ATOM     24  C   UNL     1      47.161   1.831   6.342  0.00  0.00    +0.000 A 
ATOM     25  C   UNL     1      46.831   1.028   7.419  0.00  0.00    +0.000 A 
ATOM     26  N   UNL     1      46.108   1.446   8.486  0.00  0.00    +0.000 NA
ENDBRANCH  19  21
ENDBRANCH  14  15
ENDBRANCH   5  14
TORSDOF 4
ENDMDL
MODEL 4
REMARK VINA RESULT:    -7.431      1.764      2.461
REMARK INTER + INTRA:         -10.005
REMARK INTER:                  -9.894
REMARK INTRA:                  -0.110
REMARK UNBOUND:                -0.836
REMARK  Name = 
REMARK  4 active torsions:
REMARK  status: ('A' for Active; 'I' for Inactive)
REMARK    1  A    between atoms: C_2  and  C_4
REMARK    2  A    between atoms: N_8  and  C_9
REMARK    3  A    between atoms: C_9  and  C_10
REMARK    4  A    between atoms: C_14  and  C_15
REMARK                            x       y       z     vdW  Elec       q    Type
REMARK                         _______ _______ _______ _____ _____    ______ ____
ROOT
ATOM      1  C   UNL     1      46.680   2.511   7.179  0.00  0.00    +0.000 A 
ATOM      2  C   UNL     1      46.201   3.739   7.624  0.00  0.00    +0.000 A 
ATOM      3  C   UNL     1      45.455   3.790   8.803  0.00  0.00    +0.000 A 
ATOM      4  C   UNL     1      45.193   2.620   9.509  0.00  0.00    +0.000 A 
ATOM      5  N   UNL     1      44.543   2.590  10.721  0.00  0.00    +0.000 N 
ATOM      6  N   UNL     1      45.637   1.424   9.074  0.00  0.00    +0.000 NA
ATOM      7  C   UNL     1      46.358   1.389   7.922  0.00  0.00    +0.000 A 
ATOM      8  H   UNL     1      44.414   1.625  11.007  0.00  0.00    +0.000 HD
ENDROOT
BRANCH   1  10
ATOM      9  N   UNL     1      47.363   3.310   4.989  0.00  0.00    +0.000 N 
ATOM     10  C   UNL     1      47.505   2.360   5.963  0.00  0.00    +0.000 C 
ATOM     11  O   UNL     1      48.311   1.447   5.844  0.00  0.00    +0.000 OA
ATOM     12  H   UNL     1      48.007   3.257   4.211  0.00  0.00    +0.000 HD
ATOM     13  H   UNL     1      46.910   4.198   5.158  0.00  0.00    +0.000 HD
ENDBRANCH   1  10
BRANCH   5  14
ATOM     14  C   UNL     1      43.460   3.490  11.067  0.00  0.00    +0.000 C 
BRANCH  14  15
ATOM     15  C   UNL     1      43.857   4.943  11.239  0.00  0.00    +0.000 A 
ATOM     16  C   UNL     1      42.979   6.019  11.069  0.00  0.00    +0.000 A 
ATOM     17  C   UNL     1      43.410   7.325  11.290  0.00  0.00    +0.000 A 
ATOM     18  C   UNL     1      44.719   7.573  11.708  0.00  0.00    +0.000 A 
ATOM     19  C   UNL     1      45.629   6.524  11.918  0.00  0.00    +0.000 A 
ATOM     20  C   UNL     1      45.183   5.218  11.640  0.00  0.00    +0.000 A 
BRANCH  19  21
ATOM     21  C   UNL     1      46.978   6.772  12.472  0.00  0.00    +0.000 A 
ATOM     22  C   UNL     1      47.965   7.423  11.732  0.00  0.00    +0.000 A 
ATOM     23  C   UNL     1      49.211   7.667  12.305  0.00  0.00    +0.000 A 
ATOM     24  C   UNL     1      49.445   7.256  13.610  0.00  0.00    +0.000 A 
ATOM     25  C   UNL     1      48.417   6.623  14.285  0.00  0.00    +0.000 A 
ATOM     26  N   UNL     1      47.194   6.381  13.754  0.00  0.00    +0.000 NA
ENDBRANCH  19  21
ENDBRANCH  14  15
ENDBRANCH   5  14
TORSDOF 4
ENDMDL
MODEL 5
REMARK VINA RESULT:    -7.140      4.729      7.879
REMARK INTER + INTRA:          -9.645
REMARK INTER:                  -9.138
REMARK INTRA:                  -0.507
REMARK UNBOUND:                -0.836
REMARK  Name = 
REMARK  4 active torsions:
REMARK  status: ('A' for Active; 'I' for Inactive)
REMARK    1  A    between atoms: C_2  and  C_4
REMARK    2  A    between atoms: N_8  and  C_9
REMARK    3  A    between atoms: C_9  and  C_10
REMARK    4  A    between atoms: C_14  and  C_15
REMARK                            x       y       z     vdW  Elec       q    Type
REMARK                         _______ _______ _______ _____ _____    ______ ____
ROOT
ATOM      1  C   UNL     1      49.596   3.746  17.328  0.00  0.00    +0.000 A 
ATOM      2  C   UNL     1      49.006   4.994  17.158  0.00  0.00    +0.000 A 
ATOM      3  C   UNL     1      47.927   5.122  16.282  0.00  0.00    +0.000 A 
ATOM      4  C   UNL     1      47.463   4.008  15.587  0.00  0.00    +0.000 A 
ATOM      5  N   UNL     1      46.354   4.026  14.772  0.00  0.00    +0.000 N 
ATOM      6  N   UNL     1      48.043   2.800  15.731  0.00  0.00    +0.000 NA
ATOM      7  C   UNL     1      49.096   2.692  16.584  0.00  0.00    +0.000 A 
ATOM      8  H   UNL     1      46.252   3.118  14.328  0.00  0.00    +0.000 HD
ENDROOT
BRANCH   1  10
ATOM      9  N   UNL     1      51.420   2.340  18.101  0.00  0.00    +0.000 N 
ATOM     10  C   UNL     1      50.720   3.505  18.256  0.00  0.00    +0.000 C 
ATOM     11  O   UNL     1      51.040   4.328  19.103  0.00  0.00    +0.000 OA
ATOM     12  H   UNL     1      52.250   2.235  18.669  0.00  0.00    +0.000 HD
ATOM     13  H   UNL     1      51.350   1.771  17.268  0.00  0.00    +0.000 HD
ENDBRANCH   1  10
BRANCH   5  14
ATOM     14  C   UNL     1      45.984   5.163  13.954  0.00  0.00    +0.000 C 
BRANCH  14  15
ATOM     15  C   UNL     1      45.017   4.861  12.826  0.00  0.00    +0.000 A 
ATOM     16  C   UNL     1      43.665   5.220  12.837  0.00  0.00    +0.000 A 
ATOM     17  C   UNL     1      42.851   4.946  11.740  0.00  0.00    +0.000 A 
ATOM     18  C   UNL     1      43.383   4.329  10.606  0.00  0.00    +0.000 A 
ATOM     19  C   UNL     1      44.740   3.974  10.537  0.00  0.00    +0.000 A 
ATOM     20  C   UNL     1      45.529   4.217  11.677  0.00  0.00    +0.000 A 
BRANCH  19  21
ATOM     21  C   UNL     1      45.334   3.429   9.297  0.00  0.00    +0.000 A 
ATOM     22  C   UNL     1      45.742   4.260   8.253  0.00  0.00    +0.000 A 
ATOM     23  C   UNL     1      46.328   3.707   7.117  0.00  0.00    +0.000 A 
ATOM     24  C   UNL     1      46.497   2.331   7.048  0.00  0.00    +0.000 A 
ATOM     25  C   UNL     1      46.075   1.570   8.123  0.00  0.00    +0.000 A 
ATOM     26  N   UNL     1      45.509   2.084   9.243  0.00  0.00    +0.000 NA
ENDBRANCH  19  21
ENDBRANCH  14  15
ENDBRANCH   5  14
TORSDOF 4
ENDMDL
MODEL 6
REMARK VINA RESULT:    -6.353      5.428      8.052
REMARK INTER + INTRA:          -8.674
REMARK INTER:                  -7.978
REMARK INTRA:                  -0.697
REMARK UNBOUND:                -0.836
REMARK  Name = 
REMARK  4 active torsions:
REMARK  status: ('A' for Active; 'I' for Inactive)
REMARK    1  A    between atoms: C_2  and  C_4
REMARK    2  A    between atoms: N_8  and  C_9
REMARK    3  A    between atoms: C_9  and  C_10
REMARK    4  A    between atoms: C_14  and  C_15
REMARK                            x       y       z     vdW  Elec       q    Type
REMARK                         _______ _______ _______ _____ _____    ______ ____
ROOT
ATOM      1  C   UNL     1      51.299   2.500  17.494  0.00  0.00    +0.000 A 
ATOM      2  C   UNL     1      51.700   3.827  17.603  0.00  0.00    +0.000 A 
ATOM      3  C   UNL     1      50.785   4.840  17.310  0.00  0.00    +0.000 A 
ATOM      4  C   UNL     1      49.494   4.512  16.906  0.00  0.00    +0.000 A 
ATOM      5  N   UNL     1      48.506   5.443  16.682  0.00  0.00    +0.000 N 
ATOM      6  N   UNL     1      49.104   3.228  16.778  0.00  0.00    +0.000 NA
ATOM      7  C   UNL     1      50.007   2.253  17.063  0.00  0.00    +0.000 A 
ATOM      8  H   UNL     1      47.676   4.971  16.337  0.00  0.00    +0.000 HD
ENDROOT
BRANCH   1  10
ATOM      9  N   UNL     1      51.583   0.178  18.148  0.00  0.00    +0.000 N 
ATOM     10  C   UNL     1      52.184   1.361  17.814  0.00  0.00    +0.000 C 
ATOM     11  O   UNL     1      53.402   1.456  17.746  0.00  0.00    +0.000 OA
ATOM     12  H   UNL     1      52.194  -0.621  18.259  0.00  0.00    +0.000 HD
ATOM     13  H   UNL     1      50.606  -0.006  17.966  0.00  0.00    +0.000 HD
ENDBRANCH   1  10
BRANCH   5  14
ATOM     14  C   UNL     1      48.758   6.752  16.114  0.00  0.00    +0.000 C 
BRANCH  14  15
ATOM     15  C   UNL     1      48.501   6.872  14.625  0.00  0.00    +0.000 A 
ATOM     16  C   UNL     1      49.443   7.344  13.704  0.00  0.00    +0.000 A 
ATOM     17  C   UNL     1      49.145   7.381  12.344  0.00  0.00    +0.000 A 
ATOM     18  C   UNL     1      47.910   6.924  11.881  0.00  0.00    +0.000 A 
ATOM     19  C   UNL     1      46.943   6.415  12.764  0.00  0.00    +0.000 A 
ATOM     20  C   UNL     1      47.249   6.435  14.137  0.00  0.00    +0.000 A 
BRANCH  19  21
ATOM     21  C   UNL     1      45.681   5.822  12.269  0.00  0.00    +0.000 A 
ATOM     22  C   UNL     1      45.513   5.473  10.928  0.00  0.00    +0.000 A 
ATOM     23  C   UNL     1      44.321   4.884  10.512  0.00  0.00    +0.000 A 
ATOM     24  C   UNL     1      43.320   4.654  11.446  0.00  0.00    +0.000 A 
ATOM     25  C   UNL     1      43.560   5.020  12.758  0.00  0.00    +0.000 A 
ATOM     26  N   UNL     1      44.713   5.586  13.191  0.00  0.00    +0.000 NA
ENDBRANCH  19  21
ENDBRANCH  14  15
ENDBRANCH   5  14
TORSDOF 4
ENDMDL
MODEL 7
REMARK VINA RESULT:    -6.346      3.916      6.388
REMARK INTER + INTRA:          -8.666
REMARK INTER:                  -7.919
REMARK INTRA:                  -0.747
REMARK UNBOUND:                -0.836
REMARK  Name = 
REMARK  4 active torsions:
REMARK  status: ('A' for Active; 'I' for Inactive)
REMARK    1  A    between atoms: C_2  and  C_4
REMARK    2  A    between atoms: N_8  and  C_9
REMARK    3  A    between atoms: C_9  and  C_10
REMARK    4  A    between atoms: C_14  and  C_15
REMARK                            x       y       z     vdW  Elec       q    Type
REMARK                         _______ _______ _______ _____ _____    ______ ____
ROOT
ATOM      1  C   UNL     1      44.594   5.562  11.319  0.00  0.00    +0.000 A 
ATOM      2  C   UNL     1      45.767   5.240  11.993  0.00  0.00    +0.000 A 
ATOM      3  C   UNL     1      46.409   6.223  12.748  0.00  0.00    +0.000 A 
ATOM      4  C   UNL     1      45.877   7.508  12.808  0.00  0.00    +0.000 A 
ATOM      5  N   UNL     1      46.395   8.511  13.594  0.00  0.00    +0.000 N 
ATOM      6  N   UNL     1      44.752   7.834  12.140  0.00  0.00    +0.000 NA
ATOM      7  C   UNL     1      44.141   6.867  11.406  0.00  0.00    +0.000 A 
ATOM      8  H   UNL     1      45.880   9.369  13.422  0.00  0.00    +0.000 HD
ENDROOT
BRANCH   1  10
ATOM      9  N   UNL     1      44.045   4.566   9.172  0.00  0.00    +0.000 N 
ATOM     10  C   UNL     1      43.826   4.583  10.523  0.00  0.00    +0.000 C 
ATOM     11  O   UNL     1      43.054   3.792  11.049  0.00  0.00    +0.000 OA
ATOM     12  H   UNL     1      43.596   3.823   8.653  0.00  0.00    +0.000 HD
ATOM     13  H   UNL     1      44.844   5.015   8.746  0.00  0.00    +0.000 HD
ENDBRANCH   1  10
BRANCH   5  14
ATOM     14  C   UNL     1      47.813   8.678  13.842  0.00  0.00    +0.000 C 
BRANCH  14  15
ATOM     15  C   UNL     1      48.274   8.307  15.237  0.00  0.00    +0.000 A 
ATOM     16  C   UNL     1      48.288   9.194  16.319  0.00  0.00    +0.000 A 
ATOM     17  C   UNL     1      48.684   8.763  17.583  0.00  0.00    +0.000 A 
ATOM     18  C   UNL     1      49.048   7.431  17.790  0.00  0.00    +0.000 A 
ATOM     19  C   UNL     1      49.023   6.496  16.742  0.00  0.00    +0.000 A 
ATOM     20  C   UNL     1      48.667   6.969  15.465  0.00  0.00    +0.000 A 
BRANCH  19  21
ATOM     21  C   UNL     1      49.293   5.062  16.980  0.00  0.00    +0.000 A 
ATOM     22  C   UNL     1      48.283   4.103  16.903  0.00  0.00    +0.000 A 
ATOM     23  C   UNL     1      48.589   2.758  17.100  0.00  0.00    +0.000 A 
ATOM     24  C   UNL     1      49.902   2.398  17.369  0.00  0.00    +0.000 A 
ATOM     25  C   UNL     1      50.852   3.402  17.424  0.00  0.00    +0.000 A 
ATOM     26  N   UNL     1      50.583   4.715  17.228  0.00  0.00    +0.000 NA
ENDBRANCH  19  21
ENDBRANCH  14  15
ENDBRANCH   5  14
TORSDOF 4
ENDMDL
MODEL 8
REMARK VINA RESULT:    -6.203      4.877      8.189
REMARK INTER + INTRA:          -8.490
REMARK INTER:                  -7.976
REMARK INTRA:                  -0.514
REMARK UNBOUND:                -0.836
REMARK  Name = 
REMARK  4 active torsions:
REMARK  status: ('A' for Active; 'I' for Inactive)
REMARK    1  A    between atoms: C_2  and  C_4
REMARK    2  A    between atoms: N_8  and  C_9
REMARK    3  A    between atoms: C_9  and  C_10
REMARK    4  A    between atoms: C_14  and  C_15
REMARK                            x       y       z     vdW  Elec       q    Type
REMARK                         _______ _______ _______ _____ _____    ______ ____
ROOT
ATOM      1  C   UNL     1      50.982   5.146  17.417  0.00  0.00    +0.000 A 
ATOM      2  C   UNL     1      51.232   6.317  16.708  0.00  0.00    +0.000 A 
ATOM      3  C   UNL     1      50.232   6.841  15.887  0.00  0.00    +0.000 A 
ATOM      4  C   UNL     1      49.009   6.185  15.780  0.00  0.00    +0.000 A 
ATOM      5  N   UNL     1      47.941   6.675  15.063  0.00  0.00    +0.000 N 
ATOM      6  N   UNL     1      48.767   5.038  16.447  0.00  0.00    +0.000 NA
ATOM      7  C   UNL     1      49.752   4.538  17.239  0.00  0.00    +0.000 A 
ATOM      8  H   UNL     1      47.188   5.994  15.080  0.00  0.00    +0.000 HD
ENDROOT
BRANCH   1  10
ATOM      9  N   UNL     1      51.690   3.274  18.792  0.00  0.00    +0.000 N 
ATOM     10  C   UNL     1      51.964   4.534  18.335  0.00  0.00    +0.000 C 
ATOM     11  O   UNL     1      52.998   5.110  18.645  0.00  0.00    +0.000 OA
ATOM     12  H   UNL     1      52.418   2.824  19.332  0.00  0.00    +0.000 HD
ATOM     13  H   UNL     1      50.993   2.680  18.365  0.00  0.00    +0.000 HD
ENDBRANCH   1  10
BRANCH   5  14
ATOM     14  C   UNL     1      48.084   7.413  13.824  0.00  0.00    +0.000 C 
BRANCH  14  15
ATOM     15  C   UNL     1      46.846   7.455  12.950  0.00  0.00    +0.000 A 
ATOM     16  C   UNL     1      46.036   8.585  12.797  0.00  0.00    +0.000 A 
ATOM     17  C   UNL     1      44.938   8.556  11.938  0.00  0.00    +0.000 A 
ATOM     18  C   UNL     1      44.651   7.405  11.202  0.00  0.00    +0.000 A 
ATOM     19  C   UNL     1      45.451   6.256  11.302  0.00  0.00    +0.000 A 
ATOM     20  C   UNL     1      46.523   6.294  12.213  0.00  0.00    +0.000 A 
BRANCH  19  21
ATOM     21  C   UNL     1      45.220   5.077  10.439  0.00  0.00    +0.000 A 
ATOM     22  C   UNL     1      45.642   5.048   9.109  0.00  0.00    +0.000 A 
ATOM     23  C   UNL     1      45.435   3.904   8.343  0.00  0.00    +0.000 A 
ATOM     24  C   UNL     1      44.812   2.807   8.922  0.00  0.00    +0.000 A 
ATOM     25  C   UNL     1      44.427   2.905  10.247  0.00  0.00    +0.000 A 
ATOM     26  N   UNL     1      44.623   4.003  11.018  0.00  0.00    +0.000 NA
ENDBRANCH  19  21
ENDBRANCH  14  15
ENDBRANCH   5  14
TORSDOF 4
ENDMDL
