MODEL 1
REMARK VINA RESULT:    -7.775      0.000      0.000
REMARK INTER + INTRA:         -11.868
REMARK INTER:                 -10.957
REMARK INTRA:                  -0.912
REMARK UNBOUND:                -0.912
REMARK  Name = 
REMARK  7 active torsions:
REMARK  status: ('A' for Active; 'I' for Inactive)
REMARK    1  A    between atoms: C_2  and  C_4
REMARK    2  A    between atoms: C_7  and  O_8
REMARK    3  A    between atoms: O_8  and  C_9
REMARK    4  A    between atoms: C_9  and  C_10
REMARK    5  A    between atoms: C_10  and  C_11
REMARK    6  A    between atoms: C_15  and  S_16
REMARK    7  A    between atoms: S_16  and  C_17
REMARK                            x       y       z     vdW  Elec       q    Type
REMARK                         _______ _______ _______ _____ _____    ______ ____
ROOT
ATOM      1  C   UNL     1      43.589   4.594  10.820  0.00  0.00    +0.000 C 
ENDROOT
BRANCH   1   2
ATOM      2  O   UNL     1      43.601   3.230  10.379  0.00  0.00    +0.000 OA
BRANCH   2   6
ATOM      3  C   UNL     1      46.471   2.652   7.472  0.00  0.00    +0.000 A 
ATOM      4  C   UNL     1      45.897   3.914   7.633  0.00  0.00    +0.000 A 
ATOM      5  C   UNL     1      44.920   4.098   8.617  0.00  0.00    +0.000 A 
ATOM      6  C   UNL     1      44.559   3.013   9.401  0.00  0.00    +0.000 A 
ATOM      7  N   UNL     1      45.090   1.781   9.255  0.00  0.00    +0.000 NA
ATOM      8  C   UNL     1      46.025   1.624   8.289  0.00  0.00    +0.000 A 
BRANCH   3  10
ATOM      9  N   UNL     1      47.449   2.996   5.275  0.00  0.00    +0.000 N 
ATOM     10  C   UNL     1      47.515   2.344   6.475  0.00  0.00    +0.000 C 
ATOM     11  O   UNL     1      48.430   1.568   6.723  0.00  0.00    +0.000 OA
ATOM     12  H   UNL     1      48.243   2.868   4.658  0.00  0.00    +0.000 HD
ATOM     13  H   UNL     1      46.880   3.819   5.135  0.00  0.00    +0.000 HD
ENDBRANCH   3  10
ENDBRANCH   2   6
ENDBRANCH   1   2
BRANCH   1  14
ATOM     14  C   UNL     1      44.025   4.676  12.284  0.00  0.00    +0.000 C 
BRANCH  14  15
ATOM     15  C   UNL     1      45.401   5.287  12.402  0.00  0.00    +0.000 A 
ATOM     16  C   UNL     1      45.889   6.150  11.416  0.00  0.00    +0.000 A 
ATOM     17  C   UNL     1      47.111   6.802  11.592  0.00  0.00    +0.000 A 
ATOM     18  C   UNL     1      47.860   6.604  12.759  0.00  0.00    +0.000 A 
ATOM     19  C   UNL     1      47.391   5.741  13.752  0.00  0.00    +0.000 A 
ATOM     20  C   UNL     1      46.165   5.086  13.562  0.00  0.00    +0.000 A 
BRANCH  19  21
ATOM     21  S   UNL     1      48.179   5.578  15.341  0.00  0.00    +0.000 S 
BRANCH  21  22
ATOM     22  C   UNL     1      47.221   4.229  16.104  0.00  0.00    +0.000 C 
ATOM     23  C   UNL     1      47.146   4.243  17.633  0.00  0.00    +0.000 C 
ATOM     24  O   UNL     1      47.748   2.926  17.718  0.00  0.00    +0.000 OA
ATOM     25  C   UNL     1      48.105   2.988  16.315  0.00  0.00    +0.000 C 
ENDBRANCH  21  22
ENDBRANCH  19  21
ENDBRANCH  14  15
ENDBRANCH   1  14
TORSDOF 7
ENDMDL
MODEL 2
REMARK VINA RESULT:    -7.619      2.677      4.338
REMARK INTER + INTRA:         -11.648
REMARK INTER:                 -10.986
REMARK INTRA:                  -0.662
REMARK UNBOUND:                -0.912
REMARK  Name = 
REMARK  7 active torsions:
REMARK  status: ('A' for Active; 'I' for Inactive)
REMARK    1  A    between atoms: C_2  and  C_4
REMARK    2  A    between atoms: C_7  and  O_8
REMARK    3  A    between atoms: O_8  and  C_9
REMARK    4  A    between atoms: C_9  and  C_10
REMARK    5  A    between atoms: C_10  and  C_11
REMARK    6  A    between atoms: C_15  and  S_16
REMARK    7  A    between atoms: S_16  and  C_17
REMARK                            x       y       z     vdW  Elec       q    Type
REMARK                         _______ _______ _______ _____ _____    ______ ____
ROOT
ATOM      1  C   UNL     1      43.329   3.957  11.259  0.00  0.00    +0.000 C 
ENDROOT
BRANCH   1   2
ATOM      2  O   UNL     1      43.663   4.645  10.046  0.00  0.00    +0.000 OA
BRANCH   2   6
ATOM      3  C   UNL     1      46.353   2.475   7.795  0.00  0.00    +0.000 A 
ATOM      4  C   UNL     1      45.564   1.823   8.745  0.00  0.00    +0.000 A 
ATOM      5  C   UNL     1      44.660   2.568   9.507  0.00  0.00    +0.000 A 
ATOM      6  C   UNL     1      44.579   3.935   9.287  0.00  0.00    +0.000 A 
ATOM      7  N   UNL     1      45.341   4.589   8.385  0.00  0.00    +0.000 NA
ATOM      8  C   UNL     1      46.218   3.848   7.667  0.00  0.00    +0.000 A 
BRANCH   3  10
ATOM      9  N   UNL     1      48.403   2.521   6.492  0.00  0.00    +0.000 N 
ATOM     10  C   UNL     1      47.333   1.790   6.928  0.00  0.00    +0.000 C 
ATOM     11  O   UNL     1      47.219   0.605   6.643  0.00  0.00    +0.000 OA
ATOM     12  H   UNL     1      49.126   2.000   6.009  0.00  0.00    +0.000 HD
ATOM     13  H   UNL     1      48.668   3.401   6.912  0.00  0.00    +0.000 HD
ENDBRANCH   3  10
ENDBRANCH   2   6
ENDBRANCH   1   2
BRANCH   1  14
ATOM     14  C   UNL     1      43.245   4.950  12.420  0.00  0.00    +0.000 C 
BRANCH  14  15
ATOM     15  C   UNL     1      44.621   5.437  12.811  0.00  0.00    +0.000 A 
ATOM     16  C   UNL     1      45.576   4.552  13.319  0.00  0.00    +0.000 A 
ATOM     17  C   UNL     1      46.880   4.988  13.567  0.00  0.00    +0.000 A 
ATOM     18  C   UNL     1      47.247   6.313  13.304  0.00  0.00    +0.000 A 
ATOM     19  C   UNL     1      46.304   7.213  12.802  0.00  0.00    +0.000 A 
ATOM     20  C   UNL     1      44.995   6.767  12.564  0.00  0.00    +0.000 A 
BRANCH  19  21
ATOM     21  S   UNL     1      46.728   8.857  12.262  0.00  0.00    +0.000 S 
BRANCH  21  22
ATOM     22  C   UNL     1      45.096   9.665  12.186  0.00  0.00    +0.000 C 
ATOM     23  C   UNL     1      44.368   9.576  10.843  0.00  0.00    +0.000 C 
ATOM     24  O   UNL     1      44.314  11.021  10.727  0.00  0.00    +0.000 OA
ATOM     25  C   UNL     1      45.245  11.155  11.829  0.00  0.00    +0.000 C 
ENDBRANCH  21  22
ENDBRANCH  19  21
ENDBRANCH  14  15
ENDBRANCH   1  14
TORSDOF 7
ENDMDL
MODEL 3
REMARK VINA RESULT:    -7.481      2.622      3.615
REMARK INTER + INTRA:         -11.454
REMARK INTER:                 -10.634
REMARK INTRA:                  -0.820
REMARK UNBOUND:                -0.912
REMARK  Name = 
REMARK  7 active torsions:
REMARK  status: ('A' for Active; 'I' for Inactive)
REMARK    1  A    between atoms: C_2  and  C_4
REMARK    2  A    between atoms: C_7  and  O_8
REMARK    3  A    between atoms: O_8  and  C_9
REMARK    4  A    between atoms: C_9  and  C_10
REMARK    5  A    between atoms: C_10  and  C_11
REMARK    6  A    between atoms: C_15  and  S_16
REMARK    7  A    between atoms: S_16  and  C_17
REMARK                            x       y       z     vdW  Elec       q    Type
REMARK                         _______ _______ _______ _____ _____    ______ ____
ROOT
ATOM      1  C   UNL     1      43.366   4.049  11.190  0.00  0.00    +0.000 C 
ENDROOT
BRANCH   1   2
ATOM      2  O   UNL     1      43.705   4.711   9.964  0.00  0.00    +0.000 OA
BRANCH   2   6
ATOM      3  C   UNL     1      46.395   2.487   7.765  0.00  0.00    +0.000 A 
ATOM      4  C   UNL     1      45.592   1.855   8.716  0.00  0.00    +0.000 A 
ATOM      5  C   UNL     1      44.688   2.618   9.460  0.00  0.00    +0.000 A 
ATOM      6  C   UNL     1      44.622   3.983   9.222  0.00  0.00    +0.000 A 
ATOM      7  N   UNL     1      45.397   4.618   8.319  0.00  0.00    +0.000 NA
ATOM      8  C   UNL     1      46.274   3.860   7.618  0.00  0.00    +0.000 A 
BRANCH   3  10
ATOM      9  N   UNL     1      48.471   2.489   6.504  0.00  0.00    +0.000 N 
ATOM     10  C   UNL     1      47.376   1.782   6.916  0.00  0.00    +0.000 C 
ATOM     11  O   UNL     1      47.241   0.601   6.625  0.00  0.00    +0.000 OA
ATOM     12  H   UNL     1      49.192   1.953   6.034  0.00  0.00    +0.000 HD
ATOM     13  H   UNL     1      48.748   3.362   6.932  0.00  0.00    +0.000 HD
ENDBRANCH   3  10
ENDBRANCH   2   6
ENDBRANCH   1   2
BRANCH   1  14
ATOM     14  C   UNL     1      43.336   5.058  12.340  0.00  0.00    +0.000 C 
BRANCH  14  15
ATOM     15  C   UNL     1      44.736   5.377  12.812  0.00  0.00    +0.000 A 
ATOM     16  C   UNL     1      45.573   4.371  13.304  0.00  0.00    +0.000 A 
ATOM     17  C   UNL     1      46.902   4.654  13.626  0.00  0.00    +0.000 A 
ATOM     18  C   UNL     1      47.414   5.945  13.455  0.00  0.00    +0.000 A 
ATOM     19  C   UNL     1      46.591   6.965  12.969  0.00  0.00    +0.000 A 
ATOM     20  C   UNL     1      45.255   6.671  12.656  0.00  0.00    +0.000 A 
BRANCH  19  21
ATOM     21  S   UNL     1      47.205   8.582  12.542  0.00  0.00    +0.000 S 
BRANCH  21  22
ATOM     22  C   UNL     1      48.983   8.422  12.907  0.00  0.00    +0.000 C 
ATOM     23  C   UNL     1      49.729   9.730  13.183  0.00  0.00    +0.000 C 
ATOM     24  O   UNL     1      50.644   9.489  12.083  0.00  0.00    +0.000 OA
ATOM     25  C   UNL     1      49.804   8.409  11.606  0.00  0.00    +0.000 C 
ENDBRANCH  21  22
ENDBRANCH  19  21
ENDBRANCH  14  15
ENDBRANCH   1  14
TORSDOF 7
ENDMDL
MODEL 4
REMARK VINA RESULT:    -6.410      3.621      7.948
REMARK INTER + INTRA:          -9.945
REMARK INTER:                  -9.048
REMARK INTRA:                  -0.898
REMARK UNBOUND:                -0.912
REMARK  Name = 
REMARK  7 active torsions:
REMARK  status: ('A' for Active; 'I' for Inactive)
REMARK    1  A    between atoms: C_2  and  C_4
REMARK    2  A    between atoms: C_7  and  O_8
REMARK    3  A    between atoms: O_8  and  C_9
REMARK    4  A    between atoms: C_9  and  C_10
REMARK    5  A    between atoms: C_10  and  C_11
REMARK    6  A    between atoms: C_15  and  S_16
REMARK    7  A    between atoms: S_16  and  C_17
REMARK                            x       y       z     vdW  Elec       q    Type
REMARK                         _______ _______ _______ _____ _____    ______ ____
ROOT
ATOM      1  C   UNL     1      46.436   7.106  12.731  0.00  0.00    +0.000 C 
ENDROOT
BRANCH   1   2
ATOM      2  O   UNL     1      47.732   6.534  12.951  0.00  0.00    +0.000 OA
BRANCH   2   6
ATOM      3  C   UNL     1      47.952   4.575  16.574  0.00  0.00    +0.000 A 
ATOM      4  C   UNL     1      47.119   4.077  15.570  0.00  0.00    +0.000 A 
ATOM      5  C   UNL     1      47.048   4.752  14.348  0.00  0.00    +0.000 A 
ATOM      6  C   UNL     1      47.812   5.896  14.178  0.00  0.00    +0.000 A 
ATOM      7  N   UNL     1      48.613   6.404  15.138  0.00  0.00    +0.000 NA
ATOM      8  C   UNL     1      48.658   5.740  16.318  0.00  0.00    +0.000 A 
BRANCH   3  10
ATOM      9  N   UNL     1      47.273   2.910  18.207  0.00  0.00    +0.000 N 
ATOM     10  C   UNL     1      48.115   3.942  17.898  0.00  0.00    +0.000 C 
ATOM     11  O   UNL     1      48.993   4.295  18.674  0.00  0.00    +0.000 OA
ATOM     12  H   UNL     1      47.485   2.408  19.062  0.00  0.00    +0.000 HD
ATOM     13  H   UNL     1      46.727   2.425  17.509  0.00  0.00    +0.000 HD
ENDBRANCH   3  10
ENDBRANCH   2   6
ENDBRANCH   1   2
BRANCH   1  14
ATOM     14  C   UNL     1      45.905   6.691  11.357  0.00  0.00    +0.000 C 
BRANCH  14  15
ATOM     15  C   UNL     1      45.098   5.417  11.454  0.00  0.00    +0.000 A 
ATOM     16  C   UNL     1      44.115   5.265  12.436  0.00  0.00    +0.000 A 
ATOM     17  C   UNL     1      43.295   4.135  12.443  0.00  0.00    +0.000 A 
ATOM     18  C   UNL     1      43.443   3.144  11.465  0.00  0.00    +0.000 A 
ATOM     19  C   UNL     1      44.425   3.276  10.480  0.00  0.00    +0.000 A 
ATOM     20  C   UNL     1      45.248   4.412  10.486  0.00  0.00    +0.000 A 
BRANCH  19  21
ATOM     21  S   UNL     1      44.559   2.165   9.094  0.00  0.00    +0.000 S 
BRANCH  21  22
ATOM     22  C   UNL     1      46.135   2.683   8.342  0.00  0.00    +0.000 C 
ATOM     23  C   UNL     1      46.039   3.303   6.946  0.00  0.00    +0.000 C 
ATOM     24  O   UNL     1      46.909   2.285   6.387  0.00  0.00    +0.000 OA
ATOM     25  C   UNL     1      46.797   1.506   7.604  0.00  0.00    +0.000 C 
ENDBRANCH  21  22
ENDBRANCH  19  21
ENDBRANCH  14  15
ENDBRANCH   1  14
TORSDOF 7
ENDMDL
MODEL 5
REMARK VINA RESULT:    -6.248      4.180      7.503
REMARK INTER + INTRA:          -9.717
REMARK INTER:                  -8.831
REMARK INTRA:                  -0.886
REMARK UNBOUND:                -0.912
REMARK  Name = 
REMARK  7 active torsions:
REMARK  status: ('A' for Active; 'I' for Inactive)
REMARK    1  A    between atoms: C_2  and  C_4
REMARK    2  A    between atoms: C_7  and  O_8
REMARK    3  A    between atoms: O_8  and  C_9
REMARK    4  A    between atoms: C_9  and  C_10
REMARK    5  A    between atoms: C_10  and  C_11
REMARK    6  A    between atoms: C_15  and  S_16
REMARK    7  A    between atoms: S_16  and  C_17
REMARK                            x       y       z     vdW  Elec       q    Type
REMARK                         _______ _______ _______ _____ _____    ______ ____
ROOT
ATOM      1  C   UNL     1      49.481   7.156  13.055  0.00  0.00    +0.000 C 
ENDROOT
BRANCH   1   2
ATOM      2  O   UNL     1      49.050   7.642  14.333  0.00  0.00    +0.000 OA
BRANCH   2   6
ATOM      3  C   UNL     1      47.995   4.602  16.916  0.00  0.00    +0.000 A 
ATOM      4  C   UNL     1      48.824   5.633  17.365  0.00  0.00    +0.000 A 
ATOM      5  C   UNL     1      49.180   6.655  16.480  0.00  0.00    +0.000 A 
ATOM      6  C   UNL     1      48.693   6.607  15.183  0.00  0.00    +0.000 A 
ATOM      7  N   UNL     1      47.902   5.615  14.722  0.00  0.00    +0.000 NA
ATOM      8  C   UNL     1      47.579   4.630  15.593  0.00  0.00    +0.000 A 
BRANCH   3  10
ATOM      9  N   UNL     1      48.290   3.195  18.873  0.00  0.00    +0.000 N 
ATOM     10  C   UNL     1      47.547   3.479  17.761  0.00  0.00    +0.000 C 
ATOM     11  O   UNL     1      46.528   2.850  17.505  0.00  0.00    +0.000 OA
ATOM     12  H   UNL     1      47.895   2.509  19.506  0.00  0.00    +0.000 HD
ATOM     13  H   UNL     1      48.966   3.842  19.255  0.00  0.00    +0.000 HD
ENDBRANCH   3  10
ENDBRANCH   2   6
ENDBRANCH   1   2
BRANCH   1  14
ATOM     14  C   UNL     1      48.859   7.997  11.938  0.00  0.00    +0.000 C 
BRANCH  14  15
ATOM     15  C   UNL     1      47.360   7.808  11.894  0.00  0.00    +0.000 A 
ATOM     16  C   UNL     1      46.497   8.854  12.232  0.00  0.00    +0.000 A 
ATOM     17  C   UNL     1      45.117   8.708  12.075  0.00  0.00    +0.000 A 
ATOM     18  C   UNL     1      44.583   7.516  11.572  0.00  0.00    +0.000 A 
ATOM     19  C   UNL     1      45.430   6.458  11.234  0.00  0.00    +0.000 A 
ATOM     20  C   UNL     1      46.814   6.613  11.402  0.00  0.00    +0.000 A 
BRANCH  19  21
ATOM     21  S   UNL     1      44.856   4.985  10.413  0.00  0.00    +0.000 S 
BRANCH  21  22
ATOM     22  C   UNL     1      43.530   4.420  11.528  0.00  0.00    +0.000 C 
ATOM     23  C   UNL     1      43.919   4.252  12.998  0.00  0.00    +0.000 C 
ATOM     24  O   UNL     1      43.548   2.849  12.981  0.00  0.00    +0.000 OA
ATOM     25  C   UNL     1      43.446   2.884  11.536  0.00  0.00    +0.000 C 
ENDBRANCH  21  22
ENDBRANCH  19  21
ENDBRANCH  14  15
ENDBRANCH   1  14
TORSDOF 7
ENDMDL
MODEL 6
REMARK VINA RESULT:    -6.218      3.920      8.311
REMARK INTER + INTRA:          -9.674
REMARK INTER:                  -9.212
REMARK INTRA:                  -0.461
REMARK UNBOUND:                -0.912
REMARK  Name = 
REMARK  7 active torsions:
REMARK  status: ('A' for Active; 'I' for Inactive)
REMARK    1  A    between atoms: C_2  and  C_4
REMARK    2  A    between atoms: C_7  and  O_8
REMARK    3  A    between atoms: O_8  and  C_9
REMARK    4  A    between atoms: C_9  and  C_10
REMARK    5  A    between atoms: C_10  and  C_11
REMARK    6  A    between atoms: C_15  and  S_16
REMARK    7  A    between atoms: S_16  and  C_17
REMARK                            x       y       z     vdW  Elec       q    Type
REMARK                         _______ _______ _______ _____ _____    ______ ____
ROOT
ATOM      1  C   UNL     1      46.875   4.021  14.377  0.00  0.00    +0.000 C 
ENDROOT
BRANCH   1   2
ATOM      2  O   UNL     1      46.775   3.866  15.799  0.00  0.00    +0.000 OA
BRANCH   2   6
ATOM      3  C   UNL     1      50.495   3.492  17.543  0.00  0.00    +0.000 A 
ATOM      4  C   UNL     1      49.749   2.347  17.257  0.00  0.00    +0.000 A 
ATOM      5  C   UNL     1      48.487   2.485  16.671  0.00  0.00    +0.000 A 
ATOM      6  C   UNL     1      48.022   3.761  16.394  0.00  0.00    +0.000 A 
ATOM      7  N   UNL     1      48.719   4.883  16.674  0.00  0.00    +0.000 NA
ATOM      8  C   UNL     1      49.933   4.726  17.252  0.00  0.00    +0.000 A 
BRANCH   3  10
ATOM      9  N   UNL     1      52.357   2.247  18.482  0.00  0.00    +0.000 N 
ATOM     10  C   UNL     1      51.840   3.468  18.151  0.00  0.00    +0.000 C 
ATOM     11  O   UNL     1      52.489   4.494  18.315  0.00  0.00    +0.000 OA
ATOM     12  H   UNL     1      53.328   2.242  18.775  0.00  0.00    +0.000 HD
ATOM     13  H   UNL     1      51.977   1.381  18.126  0.00  0.00    +0.000 HD
ENDBRANCH   3  10
ENDBRANCH   2   6
ENDBRANCH   1   2
BRANCH   1  14
ATOM     14  C   UNL     1      46.182   5.314  13.941  0.00  0.00    +0.000 C 
BRANCH  14  15
ATOM     15  C   UNL     1      45.240   5.057  12.788  0.00  0.00    +0.000 A 
ATOM     16  C   UNL     1      43.855   5.100  12.971  0.00  0.00    +0.000 A 
ATOM     17  C   UNL     1      42.995   4.978  11.878  0.00  0.00    +0.000 A 
ATOM     18  C   UNL     1      43.509   4.818  10.585  0.00  0.00    +0.000 A 
ATOM     19  C   UNL     1      44.890   4.767  10.384  0.00  0.00    +0.000 A 
ATOM     20  C   UNL     1      45.745   4.882  11.490  0.00  0.00    +0.000 A 
BRANCH  19  21
ATOM     21  S   UNL     1      45.631   4.756   8.764  0.00  0.00    +0.000 S 
BRANCH  21  22
ATOM     22  C   UNL     1      45.170   3.105   8.146  0.00  0.00    +0.000 C 
ATOM     23  C   UNL     1      45.175   1.978   9.181  0.00  0.00    +0.000 C 
ATOM     24  O   UNL     1      46.154   1.224   8.420  0.00  0.00    +0.000 OA
ATOM     25  C   UNL     1      46.400   2.376   7.577  0.00  0.00    +0.000 C 
ENDBRANCH  21  22
ENDBRANCH  19  21
ENDBRANCH  14  15
ENDBRANCH   1  14
TORSDOF 7
ENDMDL
MODEL 7
REMARK VINA RESULT:    -5.958      4.379      6.177
REMARK INTER + INTRA:          -9.307
REMARK INTER:                  -8.228
REMARK INTRA:                  -1.080
REMARK UNBOUND:                -0.912
REMARK  Name = 
REMARK  7 active torsions:
REMARK  status: ('A' for Active; 'I' for Inactive)
REMARK    1  A    between atoms: C_2  and  C_4
REMARK    2  A    between atoms: C_7  and  O_8
REMARK    3  A    between atoms: O_8  and  C_9
REMARK    4  A    between atoms: C_9  and  C_10
REMARK    5  A    between atoms: C_10  and  C_11
REMARK    6  A    between atoms: C_15  and  S_16
REMARK    7  A    between atoms: S_16  and  C_17
REMARK                            x       y       z     vdW  Elec       q    Type
REMARK                         _______ _______ _______ _____ _____    ______ ____
ROOT
ATOM      1  C   UNL     1      49.469   7.280  14.639  0.00  0.00    +0.000 C 
ENDROOT
BRANCH   1   2
ATOM      2  O   UNL     1      48.836   7.395  13.357  0.00  0.00    +0.000 OA
BRANCH   2   6
ATOM      3  C   UNL     1      45.177   5.496  13.218  0.00  0.00    +0.000 A 
ATOM      4  C   UNL     1      45.277   6.830  12.820  0.00  0.00    +0.000 A 
ATOM      5  C   UNL     1      46.520   7.466  12.877  0.00  0.00    +0.000 A 
ATOM      6  C   UNL     1      47.614   6.743  13.327  0.00  0.00    +0.000 A 
ATOM      7  N   UNL     1      47.539   5.457  13.730  0.00  0.00    +0.000 NA
ATOM      8  C   UNL     1      46.323   4.865  13.678  0.00  0.00    +0.000 A 
BRANCH   3  10
ATOM      9  N   UNL     1      42.753   5.422  13.074  0.00  0.00    +0.000 N 
ATOM     10  C   UNL     1      43.921   4.721  13.193  0.00  0.00    +0.000 C 
ATOM     11  O   UNL     1      43.921   3.497  13.233  0.00  0.00    +0.000 OA
ATOM     12  H   UNL     1      41.917   4.868  12.928  0.00  0.00    +0.000 HD
ATOM     13  H   UNL     1      42.727   6.387  12.776  0.00  0.00    +0.000 HD
ENDBRANCH   3  10
ENDBRANCH   2   6
ENDBRANCH   1   2
BRANCH   1  14
ATOM     14  C   UNL     1      49.023   8.426  15.549  0.00  0.00    +0.000 C 
BRANCH  14  15
ATOM     15  C   UNL     1      48.637   7.909  16.915  0.00  0.00    +0.000 A 
ATOM     16  C   UNL     1      48.000   8.739  17.842  0.00  0.00    +0.000 A 
ATOM     17  C   UNL     1      47.542   8.221  19.055  0.00  0.00    +0.000 A 
ATOM     18  C   UNL     1      47.709   6.864  19.355  0.00  0.00    +0.000 A 
ATOM     19  C   UNL     1      48.349   6.020  18.443  0.00  0.00    +0.000 A 
ATOM     20  C   UNL     1      48.812   6.553  17.231  0.00  0.00    +0.000 A 
BRANCH  19  21
ATOM     21  S   UNL     1      48.435   4.254  18.657  0.00  0.00    +0.000 S 
BRANCH  21  22
ATOM     22  C   UNL     1      49.106   3.708  17.053  0.00  0.00    +0.000 C 
ATOM     23  C   UNL     1      48.215   2.766  16.241  0.00  0.00    +0.000 C 
ATOM     24  O   UNL     1      49.238   1.737  16.230  0.00  0.00    +0.000 OA
ATOM     25  C   UNL     1      49.993   2.464  17.231  0.00  0.00    +0.000 C 
ENDBRANCH  21  22
ENDBRANCH  19  21
ENDBRANCH  14  15
ENDBRANCH   1  14
TORSDOF 7
ENDMDL
MODEL 8
REMARK VINA RESULT:    -5.958      3.523      6.099
REMARK INTER + INTRA:          -9.307
REMARK INTER:                  -8.763
REMARK INTRA:                  -0.544
REMARK UNBOUND:                -0.912
REMARK  Name = 
REMARK  7 active torsions:
REMARK  status: ('A' for Active; 'I' for Inactive)
REMARK    1  A    between atoms: C_2  and  C_4
REMARK    2  A    between atoms: C_7  and  O_8
REMARK    3  A    between atoms: O_8  and  C_9
REMARK    4  A    between atoms: C_9  and  C_10
REMARK    5  A    between atoms: C_10  and  C_11
REMARK    6  A    between atoms: C_15  and  S_16
REMARK    7  A    between atoms: S_16  and  C_17
REMARK                            x       y       z     vdW  Elec       q    Type
REMARK                         _______ _______ _______ _____ _____    ______ ____
ROOT
ATOM      1  C   UNL     1      47.435   3.996  15.789  0.00  0.00    +0.000 C 
ENDROOT
BRANCH   1   2
ATOM      2  O   UNL     1      47.503   3.329  14.521  0.00  0.00    +0.000 OA
BRANCH   2   6
ATOM      3  C   UNL     1      44.691   4.805  11.889  0.00  0.00    +0.000 A 
ATOM      4  C   UNL     1      45.423   5.689  12.684  0.00  0.00    +0.000 A 
ATOM      5  C   UNL     1      46.369   5.179  13.577  0.00  0.00    +0.000 A 
ATOM      6  C   UNL     1      46.547   3.805  13.638  0.00  0.00    +0.000 A 
ATOM      7  N   UNL     1      45.842   2.930  12.891  0.00  0.00    +0.000 NA
ATOM      8  C   UNL     1      44.923   3.447  12.041  0.00  0.00    +0.000 A 
BRANCH   3  10
ATOM      9  N   UNL     1      43.862   4.851   9.606  0.00  0.00    +0.000 N 
ATOM     10  C   UNL     1      43.674   5.230  10.906  0.00  0.00    +0.000 C 
ATOM     11  O   UNL     1      42.680   5.859  11.243  0.00  0.00    +0.000 OA
ATOM     12  H   UNL     1      43.092   5.040   8.974  0.00  0.00    +0.000 HD
ATOM     13  H   UNL     1      44.511   4.124   9.340  0.00  0.00    +0.000 HD
ENDBRANCH   3  10
ENDBRANCH   2   6
ENDBRANCH   1   2
BRANCH   1  14
ATOM     14  C   UNL     1      47.714   3.003  16.919  0.00  0.00    +0.000 C 
BRANCH  14  15
ATOM     15  C   UNL     1      49.161   3.069  17.349  0.00  0.00    +0.000 A 
ATOM     16  C   UNL     1      50.033   2.006  17.097  0.00  0.00    +0.000 A 
ATOM     17  C   UNL     1      51.393   2.125  17.391  0.00  0.00    +0.000 A 
ATOM     18  C   UNL     1      51.900   3.310  17.936  0.00  0.00    +0.000 A 
ATOM     19  C   UNL     1      51.043   4.381  18.200  0.00  0.00    +0.000 A 
ATOM     20  C   UNL     1      49.677   4.249  17.908  0.00  0.00    +0.000 A 
BRANCH  19  21
ATOM     21  S   UNL     1      51.628   5.984  18.712  0.00  0.00    +0.000 S 
BRANCH  21  22
ATOM     22  C   UNL     1      50.070   6.898  18.954  0.00  0.00    +0.000 C 
ATOM     23  C   UNL     1      50.206   8.409  19.158  0.00  0.00    +0.000 C 
ATOM     24  O   UNL     1      49.553   8.336  20.452  0.00  0.00    +0.000 OA
ATOM     25  C   UNL     1      49.663   6.892  20.438  0.00  0.00    +0.000 C 
ENDBRANCH  21  22
ENDBRANCH  19  21
ENDBRANCH  14  15
ENDBRANCH   1  14
TORSDOF 7
ENDMDL
MODEL 9
REMARK VINA RESULT:    -5.854      3.614      6.269
REMARK INTER + INTRA:          -9.161
REMARK INTER:                  -8.578
REMARK INTRA:                  -0.583
REMARK UNBOUND:                -0.912
REMARK  Name = 
REMARK  7 active torsions:
REMARK  status: ('A' for Active; 'I' for Inactive)
REMARK    1  A    between atoms: C_2  and  C_4
REMARK    2  A    between atoms: C_7  and  O_8
REMARK    3  A    between atoms: O_8  and  C_9
REMARK    4  A    between atoms: C_9  and  C_10
REMARK    5  A    between atoms: C_10  and  C_11
REMARK    6  A    between atoms: C_15  and  S_16
REMARK    7  A    between atoms: S_16  and  C_17
REMARK                            x       y       z     vdW  Elec       q    Type
REMARK                         _______ _______ _______ _____ _____    ______ ____
ROOT
ATOM      1  C   UNL     1      47.517   3.867  15.798  0.00  0.00    +0.000 C 
ENDROOT
BRANCH   1   2
ATOM      2  O   UNL     1      47.527   3.256  14.501  0.00  0.00    +0.000 OA
BRANCH   2   6
ATOM      3  C   UNL     1      44.506   4.741  12.116  0.00  0.00    +0.000 A 
ATOM      4  C   UNL     1      45.201   5.604  12.965  0.00  0.00    +0.000 A 
ATOM      5  C   UNL     1      46.219   5.089  13.774  0.00  0.00    +0.000 A 
ATOM      6  C   UNL     1      46.502   3.734  13.699  0.00  0.00    +0.000 A 
ATOM      7  N   UNL     1      45.835   2.878  12.896  0.00  0.00    +0.000 NA
ATOM      8  C   UNL     1      44.846   3.397  12.131  0.00  0.00    +0.000 A 
BRANCH   3  10
ATOM      9  N   UNL     1      43.662   5.109   9.868  0.00  0.00    +0.000 N 
ATOM     10  C   UNL     1      43.421   5.172  11.212  0.00  0.00    +0.000 C 
ATOM     11  O   UNL     1      42.333   5.533  11.642  0.00  0.00    +0.000 OA
ATOM     12  H   UNL     1      42.865   5.286   9.267  0.00  0.00    +0.000 HD
ATOM     13  H   UNL     1      44.429   4.579   9.477  0.00  0.00    +0.000 HD
ENDBRANCH   3  10
ENDBRANCH   2   6
ENDBRANCH   1   2
BRANCH   1  14
ATOM     14  C   UNL     1      48.038   2.881  16.846  0.00  0.00    +0.000 C 
BRANCH  14  15
ATOM     15  C   UNL     1      49.444   3.240  17.269  0.00  0.00    +0.000 A 
ATOM     16  C   UNL     1      50.427   2.255  17.397  0.00  0.00    +0.000 A 
ATOM     17  C   UNL     1      51.749   2.610  17.674  0.00  0.00    +0.000 A 
ATOM     18  C   UNL     1      52.106   3.956  17.820  0.00  0.00    +0.000 A 
ATOM     19  C   UNL     1      51.136   4.954  17.701  0.00  0.00    +0.000 A 
ATOM     20  C   UNL     1      49.809   4.585  17.431  0.00  0.00    +0.000 A 
BRANCH  19  21
ATOM     21  S   UNL     1      51.532   6.690  17.683  0.00  0.00    +0.000 S 
BRANCH  21  22
ATOM     22  C   UNL     1      51.873   6.985  15.918  0.00  0.00    +0.000 C 
ATOM     23  C   UNL     1      52.388   8.380  15.559  0.00  0.00    +0.000 C 
ATOM     24  O   UNL     1      51.269   8.611  14.665  0.00  0.00    +0.000 OA
ATOM     25  C   UNL     1      50.597   7.438  15.187  0.00  0.00    +0.000 C 
ENDBRANCH  21  22
ENDBRANCH  19  21
ENDBRANCH  14  15
ENDBRANCH   1  14
TORSDOF 7
ENDMDL
