MODEL 1
REMARK VINA RESULT:    -7.991      0.000      0.000
REMARK INTER + INTRA:         -11.777
REMARK INTER:                 -10.794
REMARK INTRA:                  -0.982
REMARK UNBOUND:                -0.982
REMARK  Name = 
REMARK  8 active torsions:
REMARK  status: ('A' for Active; 'I' for Inactive)
REMARK    1  A    between atoms: C_1  and  N_2
REMARK    2  A    between atoms: N_2  and  C_3
REMARK    3  A    between atoms: C_3  and  C_4
REMARK    4  A    between atoms: C_8  and  C_9
REMARK    5  A    between atoms: C_9  and  N_10
REMARK    6  A    between atoms: N_10  and  C_11
REMARK    7  A    between atoms: C_18  and  C_20
REMARK    8  A    between atoms: N_26  and  C_27
REMARK                            x       y       z     vdW  Elec       q    Type
REMARK                         _______ _______ _______ _____ _____    ______ ____
ROOT
ATOM      1  C   UNL     1      46.806   6.235  12.310  0.00  0.00    +0.000 C 
ENDROOT
BRANCH   1   2
ATOM      2  C   UNL     1      47.959   6.831  13.068  0.00  0.00    +0.000 A 
ATOM      3  C   UNL     1      48.988   7.487  12.405  0.00  0.00    +0.000 A 
ATOM      4  N   UNL     1      50.135   7.875  13.006  0.00  0.00    +0.000 NA
ATOM      5  C   UNL     1      50.273   7.583  14.321  0.00  0.00    +0.000 A 
ATOM      6  C   UNL     1      49.293   6.971  15.097  0.00  0.00    +0.000 A 
ATOM      7  C   UNL     1      48.109   6.610  14.445  0.00  0.00    +0.000 A 
BRANCH   6   8
ATOM      8  C   UNL     1      49.539   6.549  16.527  0.00  0.00    +0.000 C 
BRANCH   8   9
ATOM      9  N   UNL     1      49.916   5.142  16.638  0.00  0.00    +0.000 NA
ATOM     10  H   UNL     1      50.928   5.069  16.510  0.00  0.00    +0.000 HD
BRANCH   9  11
ATOM     11  C   UNL     1      49.548   4.508  17.914  0.00  0.00    +0.000 C 
ATOM     12  C   UNL     1      49.403   2.992  17.676  0.00  0.00    +0.000 C 
ATOM     13  C   UNL     1      48.129   2.645  16.898  0.00  0.00    +0.000 C 
ATOM     14  N   UNL     1      46.924   3.176  17.543  0.00  0.00    +0.000 NA
ATOM     15  C   UNL     1      47.022   4.630  17.690  0.00  0.00    +0.000 C 
ATOM     16  C   UNL     1      48.236   5.019  18.533  0.00  0.00    +0.000 C 
ATOM     17  H   UNL     1      46.823   2.752  18.464  0.00  0.00    +0.000 HD
ENDBRANCH   9  11
ENDBRANCH   8   9
ENDBRANCH   6   8
ENDBRANCH   1   2
BRANCH   1  19
ATOM     18  C   UNL     1      45.695   8.489  12.137  0.00  0.00    +0.000 C 
ATOM     19  N   UNL     1      45.617   7.037  12.031  0.00  0.00    +0.000 N 
ATOM     20  C   UNL     1      44.438   6.508  11.445  0.00  0.00    +0.000 C 
ATOM     21  O   UNL     1      43.541   7.266  11.081  0.00  0.00    +0.000 OA
BRANCH  20  22
ATOM     22  C   UNL     1      44.248   5.049  11.321  0.00  0.00    +0.000 A 
ATOM     23  C   UNL     1      43.417   4.286  12.125  0.00  0.00    +0.000 A 
ATOM     24  S   UNL     1      43.370   2.633  11.725  0.00  0.00    +0.000 S 
ATOM     25  C   UNL     1      44.312   2.898  10.336  0.00  0.00    +0.000 A 
ATOM     26  N   UNL     1      44.534   1.886   9.466  0.00  0.00    +0.000 NA
ATOM     27  C   UNL     1      45.174   2.241   8.398  0.00  0.00    +0.000 A 
ATOM     28  N   UNL     1      45.664   3.498   8.141  0.00  0.00    +0.000 N 
ATOM     29  C   UNL     1      46.369   3.757   6.903  0.00  0.00    +0.000 C 
ATOM     30  C   UNL     1      45.575   4.530   9.083  0.00  0.00    +0.000 A 
ATOM     31  O   UNL     1      46.185   5.589   8.955  0.00  0.00    +0.000 OA
ATOM     32  C   UNL     1      44.743   4.208  10.239  0.00  0.00    +0.000 A 
ENDBRANCH  20  22
ENDBRANCH   1  19
TORSDOF 6
ENDMDL
MODEL 2
REMARK VINA RESULT:    -7.605      1.568      2.148
REMARK INTER + INTRA:         -11.255
REMARK INTER:                 -10.086
REMARK INTRA:                  -1.169
REMARK UNBOUND:                -0.982
REMARK  Name = 
REMARK  8 active torsions:
REMARK  status: ('A' for Active; 'I' for Inactive)
REMARK    1  A    between atoms: C_1  and  N_2
REMARK    2  A    between atoms: N_2  and  C_3
REMARK    3  A    between atoms: C_3  and  C_4
REMARK    4  A    between atoms: C_8  and  C_9
REMARK    5  A    between atoms: C_9  and  N_10
REMARK    6  A    between atoms: N_10  and  C_11
REMARK    7  A    between atoms: C_18  and  C_20
REMARK    8  A    between atoms: N_26  and  C_27
REMARK                            x       y       z     vdW  Elec       q    Type
REMARK                         _______ _______ _______ _____ _____    ______ ____
ROOT
ATOM      1  C   UNL     1      46.903   6.163  12.125  0.00  0.00    +0.000 C 
ENDROOT
BRANCH   1   2
ATOM      2  C   UNL     1      47.293   5.625  13.473  0.00  0.00    +0.000 A 
ATOM      3  C   UNL     1      46.647   4.523  14.018  0.00  0.00    +0.000 A 
ATOM      4  N   UNL     1      46.820   4.112  15.294  0.00  0.00    +0.000 NA
ATOM      5  C   UNL     1      47.659   4.839  16.069  0.00  0.00    +0.000 A 
ATOM      6  C   UNL     1      48.393   5.933  15.621  0.00  0.00    +0.000 A 
ATOM      7  C   UNL     1      48.208   6.310  14.287  0.00  0.00    +0.000 A 
BRANCH   6   8
ATOM      8  C   UNL     1      49.218   6.792  16.552  0.00  0.00    +0.000 C 
BRANCH   8   9
ATOM      9  N   UNL     1      49.592   6.088  17.776  0.00  0.00    +0.000 NA
ATOM     10  H   UNL     1      50.581   5.837  17.714  0.00  0.00    +0.000 HD
BRANCH   9  11
ATOM     11  C   UNL     1      49.369   6.853  19.014  0.00  0.00    +0.000 C 
ATOM     12  C   UNL     1      49.856   6.000  20.202  0.00  0.00    +0.000 C 
ATOM     13  C   UNL     1      48.911   4.834  20.507  0.00  0.00    +0.000 C 
ATOM     14  N   UNL     1      47.533   5.282  20.734  0.00  0.00    +0.000 NA
ATOM     15  C   UNL     1      47.037   6.018  19.568  0.00  0.00    +0.000 C 
ATOM     16  C   UNL     1      47.905   7.241  19.277  0.00  0.00    +0.000 C 
ATOM     17  H   UNL     1      47.510   5.893  21.549  0.00  0.00    +0.000 HD
ENDBRANCH   9  11
ENDBRANCH   8   9
ENDBRANCH   6   8
ENDBRANCH   1   2
BRANCH   1  19
ATOM     18  C   UNL     1      45.771   8.414  12.119  0.00  0.00    +0.000 C 
ATOM     19  N   UNL     1      45.691   6.965  11.976  0.00  0.00    +0.000 N 
ATOM     20  C   UNL     1      44.467   6.446  11.481  0.00  0.00    +0.000 C 
ATOM     21  O   UNL     1      43.538   7.209  11.220  0.00  0.00    +0.000 OA
BRANCH  20  22
ATOM     22  C   UNL     1      44.272   4.990  11.330  0.00  0.00    +0.000 A 
ATOM     23  C   UNL     1      43.448   4.213  12.127  0.00  0.00    +0.000 A 
ATOM     24  S   UNL     1      43.394   2.568  11.695  0.00  0.00    +0.000 S 
ATOM     25  C   UNL     1      44.321   2.859  10.302  0.00  0.00    +0.000 A 
ATOM     26  N   UNL     1      44.532   1.864   9.409  0.00  0.00    +0.000 NA
ATOM     27  C   UNL     1      45.162   2.238   8.342  0.00  0.00    +0.000 A 
ATOM     28  N   UNL     1      45.652   3.500   8.105  0.00  0.00    +0.000 N 
ATOM     29  C   UNL     1      46.345   3.782   6.866  0.00  0.00    +0.000 C 
ATOM     30  C   UNL     1      45.575   4.513   9.068  0.00  0.00    +0.000 A 
ATOM     31  O   UNL     1      46.186   5.573   8.955  0.00  0.00    +0.000 OA
ATOM     32  C   UNL     1      44.754   4.170  10.226  0.00  0.00    +0.000 A 
ENDBRANCH  20  22
ENDBRANCH   1  19
TORSDOF 6
ENDMDL
MODEL 3
REMARK VINA RESULT:    -7.058      1.719      3.466
REMARK INTER + INTRA:         -10.516
REMARK INTER:                  -9.090
REMARK INTRA:                  -1.426
REMARK UNBOUND:                -0.982
REMARK  Name = 
REMARK  8 active torsions:
REMARK  status: ('A' for Active; 'I' for Inactive)
REMARK    1  A    between atoms: C_1  and  N_2
REMARK    2  A    between atoms: N_2  and  C_3
REMARK    3  A    between atoms: C_3  and  C_4
REMARK    4  A    between atoms: C_8  and  C_9
REMARK    5  A    between atoms: C_9  and  N_10
REMARK    6  A    between atoms: N_10  and  C_11
REMARK    7  A    between atoms: C_18  and  C_20
REMARK    8  A    between atoms: N_26  and  C_27
REMARK                            x       y       z     vdW  Elec       q    Type
REMARK                         _______ _______ _______ _____ _____    ______ ____
ROOT
ATOM      1  C   UNL     1      47.348   6.209  12.275  0.00  0.00    +0.000 C 
ENDROOT
BRANCH   1   2
ATOM      2  C   UNL     1      47.587   5.558  13.609  0.00  0.00    +0.000 A 
ATOM      3  C   UNL     1      47.080   4.296  13.890  0.00  0.00    +0.000 A 
ATOM      4  N   UNL     1      47.098   3.742  15.123  0.00  0.00    +0.000 NA
ATOM      5  C   UNL     1      47.628   4.483  16.125  0.00  0.00    +0.000 A 
ATOM      6  C   UNL     1      48.204   5.738  15.955  0.00  0.00    +0.000 A 
ATOM      7  C   UNL     1      48.192   6.265  14.659  0.00  0.00    +0.000 A 
BRANCH   6   8
ATOM      8  C   UNL     1      48.667   6.582  17.120  0.00  0.00    +0.000 C 
BRANCH   8   9
ATOM      9  N   UNL     1      48.329   7.994  16.957  0.00  0.00    +0.000 NA
ATOM     10  H   UNL     1      47.489   8.190  17.506  0.00  0.00    +0.000 HD
BRANCH   9  11
ATOM     11  C   UNL     1      49.393   8.928  17.359  0.00  0.00    +0.000 C 
ATOM     12  C   UNL     1      48.964  10.352  16.952  0.00  0.00    +0.000 C 
ATOM     13  C   UNL     1      49.055  10.576  15.439  0.00  0.00    +0.000 C 
ATOM     14  N   UNL     1      50.391  10.277  14.915  0.00  0.00    +0.000 NA
ATOM     15  C   UNL     1      50.765   8.894  15.224  0.00  0.00    +0.000 C 
ATOM     16  C   UNL     1      50.768   8.649  16.731  0.00  0.00    +0.000 C 
ATOM     17  H   UNL     1      51.067  10.909  15.340  0.00  0.00    +0.000 HD
ENDBRANCH   9  11
ENDBRANCH   8   9
ENDBRANCH   6   8
ENDBRANCH   1   2
BRANCH   1  19
ATOM     18  C   UNL     1      46.540   8.592  12.159  0.00  0.00    +0.000 C 
ATOM     19  N   UNL     1      46.254   7.163  12.108  0.00  0.00    +0.000 N 
ATOM     20  C   UNL     1      44.954   6.794  11.679  0.00  0.00    +0.000 C 
ATOM     21  O   UNL     1      44.132   7.663  11.395  0.00  0.00    +0.000 OA
BRANCH  20  22
ATOM     22  C   UNL     1      44.555   5.373  11.623  0.00  0.00    +0.000 A 
ATOM     23  C   UNL     1      43.726   4.746  12.540  0.00  0.00    +0.000 A 
ATOM     24  S   UNL     1      43.409   3.109  12.201  0.00  0.00    +0.000 S 
ATOM     25  C   UNL     1      44.211   3.218  10.707  0.00  0.00    +0.000 A 
ATOM     26  N   UNL     1      44.191   2.172   9.850  0.00  0.00    +0.000 NA
ATOM     27  C   UNL     1      44.746   2.417   8.706  0.00  0.00    +0.000 A 
ATOM     28  N   UNL     1      45.369   3.589   8.355  0.00  0.00    +0.000 N 
ATOM     29  C   UNL     1      45.955   3.728   7.039  0.00  0.00    +0.000 C 
ATOM     30  C   UNL     1      45.531   4.639   9.268  0.00  0.00    +0.000 A 
ATOM     31  O   UNL     1      46.260   5.601   9.039  0.00  0.00    +0.000 OA
ATOM     32  C   UNL     1      44.802   4.454  10.520  0.00  0.00    +0.000 A 
ENDBRANCH  20  22
ENDBRANCH   1  19
TORSDOF 6
ENDMDL
MODEL 4
REMARK VINA RESULT:    -7.056      3.361      7.544
REMARK INTER + INTRA:         -10.513
REMARK INTER:                  -9.012
REMARK INTRA:                  -1.501
REMARK UNBOUND:                -0.982
REMARK  Name = 
REMARK  8 active torsions:
REMARK  status: ('A' for Active; 'I' for Inactive)
REMARK    1  A    between atoms: C_1  and  N_2
REMARK    2  A    between atoms: N_2  and  C_3
REMARK    3  A    between atoms: C_3  and  C_4
REMARK    4  A    between atoms: C_8  and  C_9
REMARK    5  A    between atoms: C_9  and  N_10
REMARK    6  A    between atoms: N_10  and  C_11
REMARK    7  A    between atoms: C_18  and  C_20
REMARK    8  A    between atoms: N_26  and  C_27
REMARK                            x       y       z     vdW  Elec       q    Type
REMARK                         _______ _______ _______ _____ _____    ______ ____
ROOT
ATOM      1  C   UNL     1      50.029   6.992  15.438  0.00  0.00    +0.000 C 
ENDROOT
BRANCH   1   2
ATOM      2  C   UNL     1      49.293   7.330  14.172  0.00  0.00    +0.000 A 
ATOM      3  C   UNL     1      49.876   8.128  13.197  0.00  0.00    +0.000 A 
ATOM      4  N   UNL     1      49.202   8.619  12.133  0.00  0.00    +0.000 NA
ATOM      5  C   UNL     1      47.885   8.318  12.043  0.00  0.00    +0.000 A 
ATOM      6  C   UNL     1      47.205   7.493  12.934  0.00  0.00    +0.000 A 
ATOM      7  C   UNL     1      47.943   6.981  14.006  0.00  0.00    +0.000 A 
BRANCH   6   8
ATOM      8  C   UNL     1      45.709   7.288  12.868  0.00  0.00    +0.000 C 
BRANCH   8   9
ATOM      9  N   UNL     1      45.320   5.909  13.152  0.00  0.00    +0.000 NA
ATOM     10  H   UNL     1      44.328   5.899  13.399  0.00  0.00    +0.000 HD
BRANCH   9  11
ATOM     11  C   UNL     1      45.548   4.968  12.044  0.00  0.00    +0.000 C 
ATOM     12  C   UNL     1      44.697   5.423  10.842  0.00  0.00    +0.000 C 
ATOM     13  C   UNL     1      43.205   5.143  11.047  0.00  0.00    +0.000 C 
ATOM     14  N   UNL     1      42.942   3.733  11.351  0.00  0.00    +0.000 NA
ATOM     15  C   UNL     1      43.682   3.322  12.547  0.00  0.00    +0.000 C 
ATOM     16  C   UNL     1      45.186   3.506  12.355  0.00  0.00    +0.000 C 
ATOM     17  H   UNL     1      43.237   3.160  10.562  0.00  0.00    +0.000 HD
ENDBRANCH   9  11
ENDBRANCH   8   9
ENDBRANCH   6   8
ENDBRANCH   1   2
BRANCH   1  19
ATOM     18  C   UNL     1      49.483   8.799  17.106  0.00  0.00    +0.000 C 
ATOM     19  N   UNL     1      49.483   7.389  16.734  0.00  0.00    +0.000 N 
ATOM     20  C   UNL     1      48.746   6.515  17.572  0.00  0.00    +0.000 C 
ATOM     21  O   UNL     1      48.171   6.957  18.565  0.00  0.00    +0.000 OA
BRANCH  20  22
ATOM     22  C   UNL     1      48.708   5.064  17.300  0.00  0.00    +0.000 A 
ATOM     23  C   UNL     1      47.686   4.409  16.630  0.00  0.00    +0.000 A 
ATOM     24  S   UNL     1      47.931   2.737  16.431  0.00  0.00    +0.000 S 
ATOM     25  C   UNL     1      49.505   2.848  17.060  0.00  0.00    +0.000 A 
ATOM     26  N   UNL     1      50.318   1.767  17.047  0.00  0.00    +0.000 NA
ATOM     27  C   UNL     1      51.522   2.007  17.456  0.00  0.00    +0.000 A 
ATOM     28  N   UNL     1      51.978   3.213  17.931  0.00  0.00    +0.000 N 
ATOM     29  C   UNL     1      53.354   3.343  18.362  0.00  0.00    +0.000 C 
ATOM     30  C   UNL     1      51.126   4.312  18.090  0.00  0.00    +0.000 A 
ATOM     31  O   UNL     1      51.466   5.322  18.701  0.00  0.00    +0.000 OA
ATOM     32  C   UNL     1      49.798   4.121  17.514  0.00  0.00    +0.000 A 
ENDBRANCH  20  22
ENDBRANCH   1  19
TORSDOF 6
ENDMDL
MODEL 5
REMARK VINA RESULT:    -6.823      3.177      8.434
REMARK INTER + INTRA:         -10.198
REMARK INTER:                  -9.164
REMARK INTRA:                  -1.034
REMARK UNBOUND:                -0.982
REMARK  Name = 
REMARK  8 active torsions:
REMARK  status: ('A' for Active; 'I' for Inactive)
REMARK    1  A    between atoms: C_1  and  N_2
REMARK    2  A    between atoms: N_2  and  C_3
REMARK    3  A    between atoms: C_3  and  C_4
REMARK    4  A    between atoms: C_8  and  C_9
REMARK    5  A    between atoms: C_9  and  N_10
REMARK    6  A    between atoms: N_10  and  C_11
REMARK    7  A    between atoms: C_18  and  C_20
REMARK    8  A    between atoms: N_26  and  C_27
REMARK                            x       y       z     vdW  Elec       q    Type
REMARK                         _______ _______ _______ _____ _____    ______ ____
ROOT
ATOM      1  C   UNL     1      47.596   6.740  14.101  0.00  0.00    +0.000 C 
ENDROOT
BRANCH   1   2
ATOM      2  C   UNL     1      46.573   6.501  13.026  0.00  0.00    +0.000 A 
ATOM      3  C   UNL     1      45.899   7.560  12.432  0.00  0.00    +0.000 A 
ATOM      4  N   UNL     1      44.843   7.402  11.603  0.00  0.00    +0.000 NA
ATOM      5  C   UNL     1      44.426   6.136  11.368  0.00  0.00    +0.000 A 
ATOM      6  C   UNL     1      45.048   4.997  11.872  0.00  0.00    +0.000 A 
ATOM      7  C   UNL     1      46.155   5.201  12.702  0.00  0.00    +0.000 A 
BRANCH   6   8
ATOM      8  C   UNL     1      44.473   3.612  11.689  0.00  0.00    +0.000 C 
BRANCH   8   9
ATOM      9  N   UNL     1      45.171   2.849  10.657  0.00  0.00    +0.000 NA
ATOM     10  H   UNL     1      45.355   1.911  11.020  0.00  0.00    +0.000 HD
BRANCH   9  11
ATOM     11  C   UNL     1      44.443   2.735   9.383  0.00  0.00    +0.000 C 
ATOM     12  C   UNL     1      44.886   1.432   8.688  0.00  0.00    +0.000 C 
ATOM     13  C   UNL     1      46.301   1.533   8.110  0.00  0.00    +0.000 C 
ATOM     14  N   UNL     1      46.445   2.671   7.196  0.00  0.00    +0.000 NA
ATOM     15  C   UNL     1      46.110   3.922   7.880  0.00  0.00    +0.000 C 
ATOM     16  C   UNL     1      44.674   3.897   8.402  0.00  0.00    +0.000 C 
ATOM     17  H   UNL     1      45.818   2.544   6.403  0.00  0.00    +0.000 HD
ENDBRANCH   9  11
ENDBRANCH   8   9
ENDBRANCH   6   8
ENDBRANCH   1   2
BRANCH   1  19
ATOM     18  C   UNL     1      49.428   7.163  12.425  0.00  0.00    +0.000 C 
ATOM     19  N   UNL     1      48.886   7.339  13.767  0.00  0.00    +0.000 N 
ATOM     20  C   UNL     1      49.551   8.275  14.600  0.00  0.00    +0.000 C 
ATOM     21  O   UNL     1      50.545   8.868  14.184  0.00  0.00    +0.000 OA
BRANCH  20  22
ATOM     22  C   UNL     1      49.099   8.503  15.987  0.00  0.00    +0.000 A 
ATOM     23  C   UNL     1      48.357   9.595  16.410  0.00  0.00    +0.000 A 
ATOM     24  S   UNL     1      47.948   9.574  18.061  0.00  0.00    +0.000 S 
ATOM     25  C   UNL     1      48.581   8.008  18.243  0.00  0.00    +0.000 A 
ATOM     26  N   UNL     1      48.429   7.347  19.414  0.00  0.00    +0.000 NA
ATOM     27  C   UNL     1      48.860   6.127  19.391  0.00  0.00    +0.000 A 
ATOM     28  N   UNL     1      49.480   5.519  18.326  0.00  0.00    +0.000 N 
ATOM     29  C   UNL     1      49.919   4.144  18.438  0.00  0.00    +0.000 C 
ATOM     30  C   UNL     1      49.779   6.218  17.150  0.00  0.00    +0.000 A 
ATOM     31  O   UNL     1      50.511   5.754  16.280  0.00  0.00    +0.000 OA
ATOM     32  C   UNL     1      49.190   7.553  17.087  0.00  0.00    +0.000 A 
ENDBRANCH  20  22
ENDBRANCH   1  19
TORSDOF 6
ENDMDL
MODEL 6
REMARK VINA RESULT:    -6.720      3.493      7.666
REMARK INTER + INTRA:         -10.059
REMARK INTER:                  -8.573
REMARK INTRA:                  -1.486
REMARK UNBOUND:                -0.982
REMARK  Name = 
REMARK  8 active torsions:
REMARK  status: ('A' for Active; 'I' for Inactive)
REMARK    1  A    between atoms: C_1  and  N_2
REMARK    2  A    between atoms: N_2  and  C_3
REMARK    3  A    between atoms: C_3  and  C_4
REMARK    4  A    between atoms: C_8  and  C_9
REMARK    5  A    between atoms: C_9  and  N_10
REMARK    6  A    between atoms: N_10  and  C_11
REMARK    7  A    between atoms: C_18  and  C_20
REMARK    8  A    between atoms: N_26  and  C_27
REMARK                            x       y       z     vdW  Elec       q    Type
REMARK                         _______ _______ _______ _____ _____    ______ ____
ROOT
ATOM      1  C   UNL     1      50.381   8.577  14.990  0.00  0.00    +0.000 C 
ENDROOT
BRANCH   1   2
ATOM      2  C   UNL     1      49.453   8.097  13.910  0.00  0.00    +0.000 A 
ATOM      3  C   UNL     1      49.178   8.886  12.801  0.00  0.00    +0.000 A 
ATOM      4  N   UNL     1      48.215   8.595  11.897  0.00  0.00    +0.000 NA
ATOM      5  C   UNL     1      47.481   7.479  12.116  0.00  0.00    +0.000 A 
ATOM      6  C   UNL     1      47.694   6.590  13.166  0.00  0.00    +0.000 A 
ATOM      7  C   UNL     1      48.718   6.911  14.063  0.00  0.00    +0.000 A 
BRANCH   6   8
ATOM      8  C   UNL     1      46.769   5.428  13.443  0.00  0.00    +0.000 C 
BRANCH   8   9
ATOM      9  N   UNL     1      45.360   5.796  13.334  0.00  0.00    +0.000 NA
ATOM     10  H   UNL     1      45.271   6.520  12.618  0.00  0.00    +0.000 HD
BRANCH   9  11
ATOM     11  C   UNL     1      44.460   4.680  13.001  0.00  0.00    +0.000 C 
ATOM     12  C   UNL     1      45.001   3.983  11.737  0.00  0.00    +0.000 C 
ATOM     13  C   UNL     1      44.773   4.816  10.472  0.00  0.00    +0.000 C 
ATOM     14  N   UNL     1      43.363   5.174  10.291  0.00  0.00    +0.000 NA
ATOM     15  C   UNL     1      42.870   5.915  11.454  0.00  0.00    +0.000 C 
ATOM     16  C   UNL     1      43.002   5.086  12.731  0.00  0.00    +0.000 C 
ATOM     17  H   UNL     1      42.814   4.323  10.178  0.00  0.00    +0.000 HD
ENDBRANCH   9  11
ENDBRANCH   8   9
ENDBRANCH   6   8
ENDBRANCH   1   2
BRANCH   1  19
ATOM     18  C   UNL     1      49.031  10.097  16.478  0.00  0.00    +0.000 C 
ATOM     19  N   UNL     1      49.859   8.907  16.314  0.00  0.00    +0.000 N 
ATOM     20  C   UNL     1      49.920   8.023  17.421  0.00  0.00    +0.000 C 
ATOM     21  O   UNL     1      49.313   8.292  18.456  0.00  0.00    +0.000 OA
BRANCH  20  22
ATOM     22  C   UNL     1      50.755   6.806  17.368  0.00  0.00    +0.000 A 
ATOM     23  C   UNL     1      52.130   6.779  17.539  0.00  0.00    +0.000 A 
ATOM     24  S   UNL     1      52.820   5.227  17.461  0.00  0.00    +0.000 S 
ATOM     25  C   UNL     1      51.287   4.500  17.387  0.00  0.00    +0.000 A 
ATOM     26  N   UNL     1      51.173   3.153  17.431  0.00  0.00    +0.000 NA
ATOM     27  C   UNL     1      49.951   2.728  17.474  0.00  0.00    +0.000 A 
ATOM     28  N   UNL     1      48.829   3.518  17.420  0.00  0.00    +0.000 N 
ATOM     29  C   UNL     1      47.516   2.910  17.472  0.00  0.00    +0.000 C 
ATOM     30  C   UNL     1      48.911   4.903  17.231  0.00  0.00    +0.000 A 
ATOM     31  O   UNL     1      47.926   5.590  16.975  0.00  0.00    +0.000 OA
ATOM     32  C   UNL     1      50.269   5.434  17.315  0.00  0.00    +0.000 A 
ENDBRANCH  20  22
ENDBRANCH   1  19
TORSDOF 6
ENDMDL
MODEL 7
REMARK VINA RESULT:    -6.611      3.103      4.417
REMARK INTER + INTRA:          -9.912
REMARK INTER:                  -8.190
REMARK INTRA:                  -1.722
REMARK UNBOUND:                -0.982
REMARK  Name = 
REMARK  8 active torsions:
REMARK  status: ('A' for Active; 'I' for Inactive)
REMARK    1  A    between atoms: C_1  and  N_2
REMARK    2  A    between atoms: N_2  and  C_3
REMARK    3  A    between atoms: C_3  and  C_4
REMARK    4  A    between atoms: C_8  and  C_9
REMARK    5  A    between atoms: C_9  and  N_10
REMARK    6  A    between atoms: N_10  and  C_11
REMARK    7  A    between atoms: C_18  and  C_20
REMARK    8  A    between atoms: N_26  and  C_27
REMARK                            x       y       z     vdW  Elec       q    Type
REMARK                         _______ _______ _______ _____ _____    ______ ____
ROOT
ATOM      1  C   UNL     1      49.196   9.048  14.922  0.00  0.00    +0.000 C 
ENDROOT
BRANCH   1   2
ATOM      2  C   UNL     1      49.930   8.556  16.137  0.00  0.00    +0.000 A 
ATOM      3  C   UNL     1      50.653   9.429  16.938  0.00  0.00    +0.000 A 
ATOM      4  N   UNL     1      51.482   9.023  17.926  0.00  0.00    +0.000 NA
ATOM      5  C   UNL     1      51.611   7.689  18.115  0.00  0.00    +0.000 A 
ATOM      6  C   UNL     1      50.905   6.723  17.405  0.00  0.00    +0.000 A 
ATOM      7  C   UNL     1      50.036   7.183  16.411  0.00  0.00    +0.000 A 
BRANCH   6   8
ATOM      8  C   UNL     1      51.175   5.244  17.561  0.00  0.00    +0.000 C 
BRANCH   8   9
ATOM      9  N   UNL     1      50.187   4.419  16.870  0.00  0.00    +0.000 NA
ATOM     10  H   UNL     1      50.671   3.862  16.163  0.00  0.00    +0.000 HD
BRANCH   9  11
ATOM     11  C   UNL     1      49.420   3.520  17.746  0.00  0.00    +0.000 C 
ATOM     12  C   UNL     1      48.184   3.026  16.968  0.00  0.00    +0.000 C 
ATOM     13  C   UNL     1      47.121   4.119  16.812  0.00  0.00    +0.000 C 
ATOM     14  N   UNL     1      46.717   4.686  18.102  0.00  0.00    +0.000 NA
ATOM     15  C   UNL     1      47.878   5.236  18.806  0.00  0.00    +0.000 C 
ATOM     16  C   UNL     1      48.931   4.158  19.057  0.00  0.00    +0.000 C 
ATOM     17  H   UNL     1      46.296   3.954  18.673  0.00  0.00    +0.000 HD
ENDBRANCH   9  11
ENDBRANCH   8   9
ENDBRANCH   6   8
ENDBRANCH   1   2
BRANCH   1  19
ATOM     18  C   UNL     1      51.231   8.958  13.441  0.00  0.00    +0.000 C 
ATOM     19  N   UNL     1      49.783   8.888  13.594  0.00  0.00    +0.000 N 
ATOM     20  C   UNL     1      49.049   8.446  12.463  0.00  0.00    +0.000 C 
ATOM     21  O   UNL     1      49.638   8.169  11.419  0.00  0.00    +0.000 OA
BRANCH  20  22
ATOM     22  C   UNL     1      47.575   8.369  12.505  0.00  0.00    +0.000 A 
ATOM     23  C   UNL     1      46.717   9.391  12.132  0.00  0.00    +0.000 A 
ATOM     24  S   UNL     1      45.065   9.005  12.251  0.00  0.00    +0.000 S 
ATOM     25  C   UNL     1      45.425   7.387  12.624  0.00  0.00    +0.000 A 
ATOM     26  N   UNL     1      44.429   6.477  12.726  0.00  0.00    +0.000 NA
ATOM     27  C   UNL     1      44.840   5.263  12.908  0.00  0.00    +0.000 A 
ATOM     28  N   UNL     1      46.150   4.878  13.056  0.00  0.00    +0.000 N 
ATOM     29  C   UNL     1      46.471   3.481  13.260  0.00  0.00    +0.000 C 
ATOM     30  C   UNL     1      47.193   5.812  13.098  0.00  0.00    +0.000 A 
ATOM     31  O   UNL     1      48.334   5.506  13.434  0.00  0.00    +0.000 OA
ATOM     32  C   UNL     1      46.784   7.172  12.760  0.00  0.00    +0.000 A 
ENDBRANCH  20  22
ENDBRANCH   1  19
TORSDOF 6
ENDMDL
MODEL 8
REMARK VINA RESULT:    -6.462      3.378      8.734
REMARK INTER + INTRA:          -9.711
REMARK INTER:                  -8.726
REMARK INTRA:                  -0.985
REMARK UNBOUND:                -0.982
REMARK  Name = 
REMARK  8 active torsions:
REMARK  status: ('A' for Active; 'I' for Inactive)
REMARK    1  A    between atoms: C_1  and  N_2
REMARK    2  A    between atoms: N_2  and  C_3
REMARK    3  A    between atoms: C_3  and  C_4
REMARK    4  A    between atoms: C_8  and  C_9
REMARK    5  A    between atoms: C_9  and  N_10
REMARK    6  A    between atoms: N_10  and  C_11
REMARK    7  A    between atoms: C_18  and  C_20
REMARK    8  A    between atoms: N_26  and  C_27
REMARK                            x       y       z     vdW  Elec       q    Type
REMARK                         _______ _______ _______ _____ _____    ______ ____
ROOT
ATOM      1  C   UNL     1      47.861   6.293  13.929  0.00  0.00    +0.000 C 
ENDROOT
BRANCH   1   2
ATOM      2  C   UNL     1      46.835   6.727  12.920  0.00  0.00    +0.000 A 
ATOM      3  C   UNL     1      46.162   7.934  13.056  0.00  0.00    +0.000 A 
ATOM      4  N   UNL     1      45.103   8.289  12.294  0.00  0.00    +0.000 NA
ATOM      5  C   UNL     1      44.684   7.397  11.365  0.00  0.00    +0.000 A 
ATOM      6  C   UNL     1      45.306   6.179  11.108  0.00  0.00    +0.000 A 
ATOM      7  C   UNL     1      46.415   5.860  11.899  0.00  0.00    +0.000 A 
BRANCH   6   8
ATOM      8  C   UNL     1      44.729   5.160  10.153  0.00  0.00    +0.000 C 
BRANCH   8   9
ATOM      9  N   UNL     1      45.733   4.615   9.243  0.00  0.00    +0.000 NA
ATOM     10  H   UNL     1      46.296   3.933   9.756  0.00  0.00    +0.000 HD
BRANCH   9  11
ATOM     11  C   UNL     1      45.183   3.971   8.039  0.00  0.00    +0.000 C 
ATOM     12  C   UNL     1      44.566   2.620   8.452  0.00  0.00    +0.000 C 
ATOM     13  C   UNL     1      45.633   1.570   8.778  0.00  0.00    +0.000 C 
ATOM     14  N   UNL     1      46.580   1.381   7.674  0.00  0.00    +0.000 NA
ATOM     15  C   UNL     1      47.233   2.648   7.338  0.00  0.00    +0.000 C 
ATOM     16  C   UNL     1      46.209   3.704   6.925  0.00  0.00    +0.000 C 
ATOM     17  H   UNL     1      46.077   1.037   6.857  0.00  0.00    +0.000 HD
ENDBRANCH   9  11
ENDBRANCH   8   9
ENDBRANCH   6   8
ENDBRANCH   1   2
BRANCH   1  19
ATOM     18  C   UNL     1      49.765   7.442  12.747  0.00  0.00    +0.000 C 
ATOM     19  N   UNL     1      49.164   6.952  13.981  0.00  0.00    +0.000 N 
ATOM     20  C   UNL     1      49.791   7.347  15.190  0.00  0.00    +0.000 C 
ATOM     21  O   UNL     1      50.802   8.046  15.157  0.00  0.00    +0.000 OA
BRANCH  20  22
ATOM     22  C   UNL     1      49.278   6.878  16.493  0.00  0.00    +0.000 A 
ATOM     23  C   UNL     1      49.542   5.637  17.050  0.00  0.00    +0.000 A 
ATOM     24  S   UNL     1      48.846   5.387  18.581  0.00  0.00    +0.000 S 
ATOM     25  C   UNL     1      48.319   7.000  18.653  0.00  0.00    +0.000 A 
ATOM     26  N   UNL     1      47.750   7.477  19.784  0.00  0.00    +0.000 NA
ATOM     27  C   UNL     1      47.490   8.745  19.750  0.00  0.00    +0.000 A 
ATOM     28  N   UNL     1      47.692   9.572  18.672  0.00  0.00    +0.000 N 
ATOM     29  C   UNL     1      47.351  10.976  18.768  0.00  0.00    +0.000 C 
ATOM     30  C   UNL     1      48.146   9.082  17.441  0.00  0.00    +0.000 A 
ATOM     31  O   UNL     1      48.134   9.763  16.419  0.00  0.00    +0.000 OA
ATOM     32  C   UNL     1      48.578   7.688  17.481  0.00  0.00    +0.000 A 
ENDBRANCH  20  22
ENDBRANCH   1  19
TORSDOF 6
ENDMDL
MODEL 9
REMARK VINA RESULT:    -6.266      3.430      7.880
REMARK INTER + INTRA:          -9.446
REMARK INTER:                  -8.504
REMARK INTRA:                  -0.942
REMARK UNBOUND:                -0.982
REMARK  Name = 
REMARK  8 active torsions:
REMARK  status: ('A' for Active; 'I' for Inactive)
REMARK    1  A    between atoms: C_1  and  N_2
REMARK    2  A    between atoms: N_2  and  C_3
REMARK    3  A    between atoms: C_3  and  C_4
REMARK    4  A    between atoms: C_8  and  C_9
REMARK    5  A    between atoms: C_9  and  N_10
REMARK    6  A    between atoms: N_10  and  C_11
REMARK    7  A    between atoms: C_18  and  C_20
REMARK    8  A    between atoms: N_26  and  C_27
REMARK                            x       y       z     vdW  Elec       q    Type
REMARK                         _______ _______ _______ _____ _____    ______ ____
ROOT
ATOM      1  C   UNL     1      48.277   7.253  14.237  0.00  0.00    +0.000 C 
ENDROOT
BRANCH   1   2
ATOM      2  C   UNL     1      47.329   7.919  13.279  0.00  0.00    +0.000 A 
ATOM      3  C   UNL     1      47.310   9.300  13.134  0.00  0.00    +0.000 A 
ATOM      4  N   UNL     1      46.362   9.965  12.437  0.00  0.00    +0.000 NA
ATOM      5  C   UNL     1      45.377   9.226  11.873  0.00  0.00    +0.000 A 
ATOM      6  C   UNL     1      45.317   7.836  11.914  0.00  0.00    +0.000 A 
ATOM      7  C   UNL     1      46.332   7.182  12.621  0.00  0.00    +0.000 A 
BRANCH   6   8
ATOM      8  C   UNL     1      44.133   7.061  11.382  0.00  0.00    +0.000 C 
BRANCH   8   9
ATOM      9  N   UNL     1      44.535   5.914  10.571  0.00  0.00    +0.000 NA
ATOM     10  H   UNL     1      45.409   5.543  10.949  0.00  0.00    +0.000 HD
BRANCH   9  11
ATOM     11  C   UNL     1      43.542   4.829  10.510  0.00  0.00    +0.000 C 
ATOM     12  C   UNL     1      42.817   4.762  11.869  0.00  0.00    +0.000 C 
ATOM     13  C   UNL     1      43.701   4.170  12.971  0.00  0.00    +0.000 C 
ATOM     14  N   UNL     1      44.228   2.850  12.609  0.00  0.00    +0.000 NA
ATOM     15  C   UNL     1      44.993   2.929  11.362  0.00  0.00    +0.000 C 
ATOM     16  C   UNL     1      44.124   3.438  10.214  0.00  0.00    +0.000 C 
ATOM     17  H   UNL     1      43.451   2.202  12.484  0.00  0.00    +0.000 HD
ENDBRANCH   9  11
ENDBRANCH   8   9
ENDBRANCH   6   8
ENDBRANCH   1   2
BRANCH   1  19
ATOM     18  C   UNL     1      50.481   8.088  13.346  0.00  0.00    +0.000 C 
ATOM     19  N   UNL     1      49.599   7.826  14.478  0.00  0.00    +0.000 N 
ATOM     20  C   UNL     1      50.006   8.353  15.730  0.00  0.00    +0.000 C 
ATOM     21  O   UNL     1      51.065   8.971  15.821  0.00  0.00    +0.000 OA
BRANCH  20  22
ATOM     22  C   UNL     1      49.199   8.116  16.945  0.00  0.00    +0.000 A 
ATOM     23  C   UNL     1      48.346   9.043  17.523  0.00  0.00    +0.000 A 
ATOM     24  S   UNL     1      47.518   8.478  18.897  0.00  0.00    +0.000 S 
ATOM     25  C   UNL     1      48.117   6.906  18.667  0.00  0.00    +0.000 A 
ATOM     26  N   UNL     1      47.679   5.892  19.448  0.00  0.00    +0.000 NA
ATOM     27  C   UNL     1      48.129   4.728  19.104  0.00  0.00    +0.000 A 
ATOM     28  N   UNL     1      49.023   4.486  18.089  0.00  0.00    +0.000 N 
ATOM     29  C   UNL     1      49.449   3.130  17.814  0.00  0.00    +0.000 C 
ATOM     30  C   UNL     1      49.604   5.527  17.355  0.00  0.00    +0.000 A 
ATOM     31  O   UNL     1      50.549   5.343  16.593  0.00  0.00    +0.000 OA
ATOM     32  C   UNL     1      49.020   6.838  17.621  0.00  0.00    +0.000 A 
ENDBRANCH  20  22
ENDBRANCH   1  19
TORSDOF 6
ENDMDL
