MODEL 1
REMARK VINA RESULT:    -8.424      0.000      0.000
REMARK INTER + INTRA:         -11.687
REMARK INTER:                 -10.887
REMARK INTRA:                  -0.800
REMARK UNBOUND:                -0.800
REMARK  Name = 
REMARK  7 active torsions:
REMARK  status: ('A' for Active; 'I' for Inactive)
REMARK    1  A    between atoms: C_1  and  C_2
REMARK    2  A    between atoms: C_2  and  C_3
REMARK    3  A    between atoms: C_2  and  C_4
REMARK    4  A    between atoms: C_2  and  C_18
REMARK    5  A    between atoms: C_5  and  C_6
REMARK    6  A    between atoms: C_8  and  C_9
REMARK    7  A    between atoms: C_21  and  C_22
REMARK                            x       y       z     vdW  Elec       q    Type
REMARK                         _______ _______ _______ _____ _____    ______ ____
ROOT
ATOM      1  C   UNL     1      43.524   2.932  11.612  0.00  0.00    +0.000 C 
ATOM      2  C   UNL     1      44.357   4.040  10.932  0.00  0.00    +0.000 C 
ATOM      3  C   UNL     1      43.378   5.173  10.532  0.00  0.00    +0.000 C 
ENDROOT
BRANCH   2   4
ATOM      4  C   UNL     1      45.088   3.561   9.667  0.00  0.00    +0.000 A 
ATOM      5  C   UNL     1      45.298   2.191   9.435  0.00  0.00    +0.000 A 
ATOM      6  C   UNL     1      45.997   1.761   8.309  0.00  0.00    +0.000 A 
ATOM      7  C   UNL     1      46.471   2.720   7.427  0.00  0.00    +0.000 A 
ATOM      8  N   UNL     1      46.278   4.057   7.591  0.00  0.00    +0.000 NA
ATOM      9  C   UNL     1      45.595   4.435   8.700  0.00  0.00    +0.000 A 
BRANCH   7  10
ATOM     10  C   UNL     1      47.249   2.297   6.221  0.00  0.00    +0.000 C 
ATOM     11  N   UNL     1      47.137   3.120   5.131  0.00  0.00    +0.000 N 
ATOM     12  O   UNL     1      47.944   1.292   6.200  0.00  0.00    +0.000 OA
ATOM     13  H   UNL     1      46.563   3.955   5.191  0.00  0.00    +0.000 HD
ATOM     14  H   UNL     1      47.649   2.904   4.290  0.00  0.00    +0.000 HD
ENDBRANCH   7  10
ENDBRANCH   2   4
BRANCH   2  15
ATOM     15  C   UNL     1      45.291   4.593  12.001  0.00  0.00    +0.000 C 
ATOM     16  C   UNL     1      46.078   5.681  11.917  0.00  0.00    +0.000 C 
BRANCH  16  17
ATOM     17  C   UNL     1      46.963   6.095  13.010  0.00  0.00    +0.000 A 
ATOM     18  C   UNL     1      47.121   5.278  14.126  0.00  0.00    +0.000 A 
ATOM     19  C   UNL     1      47.939   5.693  15.187  0.00  0.00    +0.000 A 
ATOM     20  C   UNL     1      48.562   6.942  15.057  0.00  0.00    +0.000 A 
ATOM     21  C   UNL     1      48.363   7.686  13.906  0.00  0.00    +0.000 A 
ATOM     22  N   UNL     1      47.583   7.289  12.884  0.00  0.00    +0.000 NA
BRANCH  19  23
ATOM     23  C   UNL     1      48.130   4.851  16.389  0.00  0.00    +0.000 A 
ATOM     24  C   UNL     1      47.394   3.677  16.605  0.00  0.00    +0.000 A 
ATOM     25  C   UNL     1      47.602   2.901  17.746  0.00  0.00    +0.000 A 
ATOM     26  C   UNL     1      48.547   3.324  18.663  0.00  0.00    +0.000 A 
ATOM     27  N   UNL     1      49.279   4.444  18.512  0.00  0.00    +0.000 NA
ATOM     28  C   UNL     1      49.058   5.168  17.387  0.00  0.00    +0.000 A 
ENDBRANCH  19  23
ENDBRANCH  16  17
ENDBRANCH   2  15
TORSDOF 5
ENDMDL
MODEL 2
REMARK VINA RESULT:    -8.263      1.478      3.312
REMARK INTER + INTRA:         -11.478
REMARK INTER:                 -10.624
REMARK INTRA:                  -0.854
REMARK UNBOUND:                -0.800
REMARK  Name = 
REMARK  7 active torsions:
REMARK  status: ('A' for Active; 'I' for Inactive)
REMARK    1  A    between atoms: C_1  and  C_2
REMARK    2  A    between atoms: C_2  and  C_3
REMARK    3  A    between atoms: C_2  and  C_4
REMARK    4  A    between atoms: C_2  and  C_18
REMARK    5  A    between atoms: C_5  and  C_6
REMARK    6  A    between atoms: C_8  and  C_9
REMARK    7  A    between atoms: C_21  and  C_22
REMARK                            x       y       z     vdW  Elec       q    Type
REMARK                         _______ _______ _______ _____ _____    ______ ____
ROOT
ATOM      1  C   UNL     1      43.414   3.031  11.660  0.00  0.00    +0.000 C 
ATOM      2  C   UNL     1      44.276   4.138  11.014  0.00  0.00    +0.000 C 
ATOM      3  C   UNL     1      43.320   5.289  10.608  0.00  0.00    +0.000 C 
ENDROOT
BRANCH   2   4
ATOM      4  C   UNL     1      45.028   3.667   9.759  0.00  0.00    +0.000 A 
ATOM      5  C   UNL     1      45.203   2.297   9.499  0.00  0.00    +0.000 A 
ATOM      6  C   UNL     1      45.920   1.872   8.383  0.00  0.00    +0.000 A 
ATOM      7  C   UNL     1      46.449   2.836   7.538  0.00  0.00    +0.000 A 
ATOM      8  N   UNL     1      46.291   4.174   7.730  0.00  0.00    +0.000 NA
ATOM      9  C   UNL     1      45.588   4.546   8.828  0.00  0.00    +0.000 A 
BRANCH   7  10
ATOM     10  C   UNL     1      47.248   2.418   6.344  0.00  0.00    +0.000 C 
ATOM     11  N   UNL     1      47.173   3.258   5.264  0.00  0.00    +0.000 N 
ATOM     12  O   UNL     1      47.927   1.403   6.324  0.00  0.00    +0.000 OA
ATOM     13  H   UNL     1      46.612   4.101   5.323  0.00  0.00    +0.000 HD
ATOM     14  H   UNL     1      47.702   3.045   4.432  0.00  0.00    +0.000 HD
ENDBRANCH   7  10
ENDBRANCH   2   4
BRANCH   2  15
ATOM     15  C   UNL     1      45.193   4.664  12.110  0.00  0.00    +0.000 C 
ATOM     16  C   UNL     1      45.877   3.946  13.019  0.00  0.00    +0.000 C 
BRANCH  16  17
ATOM     17  C   UNL     1      46.707   4.574  14.052  0.00  0.00    +0.000 A 
ATOM     18  C   UNL     1      47.324   5.796  13.802  0.00  0.00    +0.000 A 
ATOM     19  C   UNL     1      48.148   6.377  14.777  0.00  0.00    +0.000 A 
ATOM     20  C   UNL     1      48.306   5.669  15.977  0.00  0.00    +0.000 A 
ATOM     21  C   UNL     1      47.643   4.466  16.151  0.00  0.00    +0.000 A 
ATOM     22  N   UNL     1      46.849   3.908  15.218  0.00  0.00    +0.000 NA
BRANCH  19  23
ATOM     23  C   UNL     1      48.820   7.675  14.547  0.00  0.00    +0.000 A 
ATOM     24  C   UNL     1      48.287   8.887  15.012  0.00  0.00    +0.000 A 
ATOM     25  C   UNL     1      48.948  10.094  14.785  0.00  0.00    +0.000 A 
ATOM     26  C   UNL     1      50.137  10.067  14.079  0.00  0.00    +0.000 A 
ATOM     27  N   UNL     1      50.693   8.937  13.603  0.00  0.00    +0.000 NA
ATOM     28  C   UNL     1      50.029   7.781  13.852  0.00  0.00    +0.000 A 
ENDBRANCH  19  23
ENDBRANCH  16  17
ENDBRANCH   2  15
TORSDOF 5
ENDMDL
MODEL 3
REMARK VINA RESULT:    -7.213      3.201      8.767
REMARK INTER + INTRA:         -10.122
REMARK INTER:                  -9.297
REMARK INTRA:                  -0.825
REMARK UNBOUND:                -0.800
REMARK  Name = 
REMARK  7 active torsions:
REMARK  status: ('A' for Active; 'I' for Inactive)
REMARK    1  A    between atoms: C_1  and  C_2
REMARK    2  A    between atoms: C_2  and  C_3
REMARK    3  A    between atoms: C_2  and  C_4
REMARK    4  A    between atoms: C_2  and  C_18
REMARK    5  A    between atoms: C_5  and  C_6
REMARK    6  A    between atoms: C_8  and  C_9
REMARK    7  A    between atoms: C_21  and  C_22
REMARK                            x       y       z     vdW  Elec       q    Type
REMARK                         _______ _______ _______ _____ _____    ______ ____
ROOT
ATOM      1  C   UNL     1      49.467   7.363  13.098  0.00  0.00    +0.000 C 
ATOM      2  C   UNL     1      48.167   7.100  13.888  0.00  0.00    +0.000 C 
ATOM      3  C   UNL     1      47.536   8.478  14.211  0.00  0.00    +0.000 C 
ENDROOT
BRANCH   2   4
ATOM      4  C   UNL     1      48.401   6.351  15.210  0.00  0.00    +0.000 A 
ATOM      5  C   UNL     1      47.721   5.153  15.487  0.00  0.00    +0.000 A 
ATOM      6  C   UNL     1      47.903   4.498  16.703  0.00  0.00    +0.000 A 
ATOM      7  C   UNL     1      48.775   5.058  17.624  0.00  0.00    +0.000 A 
ATOM      8  N   UNL     1      49.475   6.202  17.400  0.00  0.00    +0.000 NA
ATOM      9  C   UNL     1      49.269   6.811  16.206  0.00  0.00    +0.000 A 
BRANCH   7  10
ATOM     10  C   UNL     1      48.976   4.396  18.951  0.00  0.00    +0.000 C 
ATOM     11  N   UNL     1      48.341   3.193  19.110  0.00  0.00    +0.000 N 
ATOM     12  O   UNL     1      49.661   4.885  19.837  0.00  0.00    +0.000 OA
ATOM     13  H   UNL     1      47.794   2.810  18.346  0.00  0.00    +0.000 HD
ATOM     14  H   UNL     1      48.449   2.684  19.974  0.00  0.00    +0.000 HD
ENDBRANCH   7  10
ENDBRANCH   2   4
BRANCH   2  15
ATOM     15  C   UNL     1      47.225   6.373  12.937  0.00  0.00    +0.000 C 
ATOM     16  C   UNL     1      45.918   6.617  12.734  0.00  0.00    +0.000 C 
BRANCH  16  17
ATOM     17  C   UNL     1      45.106   5.820  11.808  0.00  0.00    +0.000 A 
ATOM     18  C   UNL     1      45.723   5.044  10.832  0.00  0.00    +0.000 A 
ATOM     19  C   UNL     1      44.943   4.313   9.923  0.00  0.00    +0.000 A 
ATOM     20  C   UNL     1      43.551   4.415  10.057  0.00  0.00    +0.000 A 
ATOM     21  C   UNL     1      43.019   5.198  11.067  0.00  0.00    +0.000 A 
ATOM     22  N   UNL     1      43.764   5.898  11.943  0.00  0.00    +0.000 NA
BRANCH  19  23
ATOM     23  C   UNL     1      45.563   3.477   8.872  0.00  0.00    +0.000 A 
ATOM     24  C   UNL     1      46.142   4.030   7.720  0.00  0.00    +0.000 A 
ATOM     25  C   UNL     1      46.725   3.216   6.749  0.00  0.00    +0.000 A 
ATOM     26  C   UNL     1      46.710   1.847   6.947  0.00  0.00    +0.000 A 
ATOM     27  N   UNL     1      46.164   1.259   8.029  0.00  0.00    +0.000 NA
ATOM     28  C   UNL     1      45.616   2.082   8.957  0.00  0.00    +0.000 A 
ENDBRANCH  19  23
ENDBRANCH  16  17
ENDBRANCH   2  15
TORSDOF 5
ENDMDL
MODEL 4
REMARK VINA RESULT:    -7.205      3.308      8.926
REMARK INTER + INTRA:         -10.112
REMARK INTER:                  -9.326
REMARK INTRA:                  -0.785
REMARK UNBOUND:                -0.800
REMARK  Name = 
REMARK  7 active torsions:
REMARK  status: ('A' for Active; 'I' for Inactive)
REMARK    1  A    between atoms: C_1  and  C_2
REMARK    2  A    between atoms: C_2  and  C_3
REMARK    3  A    between atoms: C_2  and  C_4
REMARK    4  A    between atoms: C_2  and  C_18
REMARK    5  A    between atoms: C_5  and  C_6
REMARK    6  A    between atoms: C_8  and  C_9
REMARK    7  A    between atoms: C_21  and  C_22
REMARK                            x       y       z     vdW  Elec       q    Type
REMARK                         _______ _______ _______ _____ _____    ______ ____
ROOT
ATOM      1  C   UNL     1      48.157   8.521  11.648  0.00  0.00    +0.000 C 
ATOM      2  C   UNL     1      47.185   7.886  12.666  0.00  0.00    +0.000 C 
ATOM      3  C   UNL     1      45.991   8.859  12.833  0.00  0.00    +0.000 C 
ENDROOT
BRANCH   2   4
ATOM      4  C   UNL     1      47.819   7.654  14.047  0.00  0.00    +0.000 A 
ATOM      5  C   UNL     1      48.080   8.734  14.908  0.00  0.00    +0.000 A 
ATOM      6  C   UNL     1      48.692   8.526  16.142  0.00  0.00    +0.000 A 
ATOM      7  C   UNL     1      49.029   7.229  16.496  0.00  0.00    +0.000 A 
ATOM      8  N   UNL     1      48.780   6.145  15.712  0.00  0.00    +0.000 NA
ATOM      9  C   UNL     1      48.184   6.390  14.518  0.00  0.00    +0.000 A 
BRANCH   7  10
ATOM     10  C   UNL     1      49.711   6.970  17.802  0.00  0.00    +0.000 C 
ATOM     11  N   UNL     1      49.756   8.034  18.663  0.00  0.00    +0.000 N 
ATOM     12  O   UNL     1      50.195   5.886  18.093  0.00  0.00    +0.000 OA
ATOM     13  H   UNL     1      49.330   8.915  18.393  0.00  0.00    +0.000 HD
ATOM     14  H   UNL     1      50.186   7.924  19.568  0.00  0.00    +0.000 HD
ENDBRANCH   7  10
ENDBRANCH   2   4
BRANCH   2  15
ATOM     15  C   UNL     1      46.656   6.613  12.019  0.00  0.00    +0.000 C 
ATOM     16  C   UNL     1      45.409   6.378  11.575  0.00  0.00    +0.000 C 
BRANCH  16  17
ATOM     17  C   UNL     1      45.011   5.090  10.996  0.00  0.00    +0.000 A 
ATOM     18  C   UNL     1      45.681   4.590   9.884  0.00  0.00    +0.000 A 
ATOM     19  C   UNL     1      45.274   3.376   9.309  0.00  0.00    +0.000 A 
ATOM     20  C   UNL     1      44.186   2.726   9.906  0.00  0.00    +0.000 A 
ATOM     21  C   UNL     1      43.584   3.286  11.021  0.00  0.00    +0.000 A 
ATOM     22  N   UNL     1      43.974   4.447  11.577  0.00  0.00    +0.000 NA
BRANCH  19  23
ATOM     23  C   UNL     1      45.963   2.814   8.127  0.00  0.00    +0.000 A 
ATOM     24  C   UNL     1      46.210   3.572   6.972  0.00  0.00    +0.000 A 
ATOM     25  C   UNL     1      46.867   3.015   5.876  0.00  0.00    +0.000 A 
ATOM     26  C   UNL     1      47.261   1.691   5.952  0.00  0.00    +0.000 A 
ATOM     27  N   UNL     1      47.047   0.913   7.029  0.00  0.00    +0.000 NA
ATOM     28  C   UNL     1      46.415   1.491   8.080  0.00  0.00    +0.000 A 
ENDBRANCH  19  23
ENDBRANCH  16  17
ENDBRANCH   2  15
TORSDOF 5
ENDMDL
MODEL 5
REMARK VINA RESULT:    -7.049      3.411      5.200
REMARK INTER + INTRA:          -9.909
REMARK INTER:                  -9.052
REMARK INTRA:                  -0.858
REMARK UNBOUND:                -0.800
REMARK  Name = 
REMARK  7 active torsions:
REMARK  status: ('A' for Active; 'I' for Inactive)
REMARK    1  A    between atoms: C_1  and  C_2
REMARK    2  A    between atoms: C_2  and  C_3
REMARK    3  A    between atoms: C_2  and  C_4
REMARK    4  A    between atoms: C_2  and  C_18
REMARK    5  A    between atoms: C_5  and  C_6
REMARK    6  A    between atoms: C_8  and  C_9
REMARK    7  A    between atoms: C_21  and  C_22
REMARK                            x       y       z     vdW  Elec       q    Type
REMARK                         _______ _______ _______ _____ _____    ______ ____
ROOT
ATOM      1  C   UNL     1      47.123   8.563  13.694  0.00  0.00    +0.000 C 
ATOM      2  C   UNL     1      47.807   7.242  13.278  0.00  0.00    +0.000 C 
ATOM      3  C   UNL     1      48.786   7.573  12.123  0.00  0.00    +0.000 C 
ENDROOT
BRANCH   2   4
ATOM      4  C   UNL     1      46.817   6.175  12.785  0.00  0.00    +0.000 A 
ATOM      5  C   UNL     1      46.170   6.313  11.545  0.00  0.00    +0.000 A 
ATOM      6  C   UNL     1      45.243   5.365  11.118  0.00  0.00    +0.000 A 
ATOM      7  C   UNL     1      44.982   4.285  11.947  0.00  0.00    +0.000 A 
ATOM      8  N   UNL     1      45.594   4.090  13.146  0.00  0.00    +0.000 NA
ATOM      9  C   UNL     1      46.489   5.035  13.526  0.00  0.00    +0.000 A 
BRANCH   7  10
ATOM     10  C   UNL     1      43.972   3.261  11.534  0.00  0.00    +0.000 C 
ATOM     11  N   UNL     1      43.690   2.303  12.472  0.00  0.00    +0.000 N 
ATOM     12  O   UNL     1      43.428   3.271  10.440  0.00  0.00    +0.000 OA
ATOM     13  H   UNL     1      44.149   2.336  13.376  0.00  0.00    +0.000 HD
ATOM     14  H   UNL     1      43.004   1.592  12.266  0.00  0.00    +0.000 HD
ENDBRANCH   7  10
ENDBRANCH   2   4
BRANCH   2  15
ATOM     15  C   UNL     1      48.638   6.794  14.474  0.00  0.00    +0.000 C 
ATOM     16  C   UNL     1      48.633   7.313  15.714  0.00  0.00    +0.000 C 
BRANCH  16  17
ATOM     17  C   UNL     1      49.509   6.812  16.778  0.00  0.00    +0.000 A 
ATOM     18  C   UNL     1      49.998   5.510  16.722  0.00  0.00    +0.000 A 
ATOM     19  C   UNL     1      50.805   5.021  17.760  0.00  0.00    +0.000 A 
ATOM     20  C   UNL     1      51.074   5.896  18.821  0.00  0.00    +0.000 A 
ATOM     21  C   UNL     1      50.560   7.182  18.791  0.00  0.00    +0.000 A 
ATOM     22  N   UNL     1      49.789   7.656  17.795  0.00  0.00    +0.000 NA
BRANCH  19  23
ATOM     23  C   UNL     1      51.343   3.642  17.734  0.00  0.00    +0.000 A 
ATOM     24  C   UNL     1      52.648   3.340  18.150  0.00  0.00    +0.000 A 
ATOM     25  C   UNL     1      53.125   2.030  18.120  0.00  0.00    +0.000 A 
ATOM     26  C   UNL     1      52.279   1.036  17.661  0.00  0.00    +0.000 A 
ATOM     27  N   UNL     1      51.020   1.266  17.244  0.00  0.00    +0.000 NA
ATOM     28  C   UNL     1      50.587   2.550  17.297  0.00  0.00    +0.000 A 
ENDBRANCH  19  23
ENDBRANCH  16  17
ENDBRANCH   2  15
TORSDOF 5
ENDMDL
MODEL 6
REMARK VINA RESULT:    -7.023      4.318      8.206
REMARK INTER + INTRA:          -9.876
REMARK INTER:                  -9.058
REMARK INTRA:                  -0.818
REMARK UNBOUND:                -0.800
REMARK  Name = 
REMARK  7 active torsions:
REMARK  status: ('A' for Active; 'I' for Inactive)
REMARK    1  A    between atoms: C_1  and  C_2
REMARK    2  A    between atoms: C_2  and  C_3
REMARK    3  A    between atoms: C_2  and  C_4
REMARK    4  A    between atoms: C_2  and  C_18
REMARK    5  A    between atoms: C_5  and  C_6
REMARK    6  A    between atoms: C_8  and  C_9
REMARK    7  A    between atoms: C_21  and  C_22
REMARK                            x       y       z     vdW  Elec       q    Type
REMARK                         _______ _______ _______ _____ _____    ______ ____
ROOT
ATOM      1  C   UNL     1      45.451   9.315  11.621  0.00  0.00    +0.000 C 
ATOM      2  C   UNL     1      46.536   8.346  12.142  0.00  0.00    +0.000 C 
ATOM      3  C   UNL     1      46.414   8.306  13.687  0.00  0.00    +0.000 C 
ENDROOT
BRANCH   2   4
ATOM      4  C   UNL     1      47.964   8.782  11.779  0.00  0.00    +0.000 A 
ATOM      5  C   UNL     1      49.006   7.841  11.706  0.00  0.00    +0.000 A 
ATOM      6  C   UNL     1      50.308   8.243  11.416  0.00  0.00    +0.000 A 
ATOM      7  C   UNL     1      50.543   9.593  11.198  0.00  0.00    +0.000 A 
ATOM      8  N   UNL     1      49.569  10.543  11.235  0.00  0.00    +0.000 NA
ATOM      9  C   UNL     1      48.316  10.111  11.521  0.00  0.00    +0.000 A 
BRANCH   7  10
ATOM     10  C   UNL     1      51.933  10.066  10.911  0.00  0.00    +0.000 C 
ATOM     11  N   UNL     1      52.899   9.095  10.926  0.00  0.00    +0.000 N 
ATOM     12  O   UNL     1      52.198  11.235  10.674  0.00  0.00    +0.000 OA
ATOM     13  H   UNL     1      52.638   8.132  11.111  0.00  0.00    +0.000 HD
ATOM     14  H   UNL     1      53.855   9.342  10.723  0.00  0.00    +0.000 HD
ENDBRANCH   7  10
ENDBRANCH   2   4
BRANCH   2  15
ATOM     15  C   UNL     1      46.169   6.965  11.614  0.00  0.00    +0.000 C 
ATOM     16  C   UNL     1      44.936   6.462  11.428  0.00  0.00    +0.000 C 
BRANCH  16  17
ATOM     17  C   UNL     1      44.711   5.097  10.941  0.00  0.00    +0.000 A 
ATOM     18  C   UNL     1      45.415   4.627   9.837  0.00  0.00    +0.000 A 
ATOM     19  C   UNL     1      45.171   3.334   9.350  0.00  0.00    +0.000 A 
ATOM     20  C   UNL     1      44.203   2.576  10.022  0.00  0.00    +0.000 A 
ATOM     21  C   UNL     1      43.558   3.115  11.123  0.00  0.00    +0.000 A 
ATOM     22  N   UNL     1      43.793   4.353  11.595  0.00  0.00    +0.000 NA
BRANCH  19  23
ATOM     23  C   UNL     1      45.901   2.800   8.179  0.00  0.00    +0.000 A 
ATOM     24  C   UNL     1      46.219   3.596   7.068  0.00  0.00    +0.000 A 
ATOM     25  C   UNL     1      46.914   3.065   5.982  0.00  0.00    +0.000 A 
ATOM     26  C   UNL     1      47.273   1.730   6.023  0.00  0.00    +0.000 A 
ATOM     27  N   UNL     1      46.990   0.917   7.057  0.00  0.00    +0.000 NA
ATOM     28  C   UNL     1      46.323   1.469   8.101  0.00  0.00    +0.000 A 
ENDBRANCH  19  23
ENDBRANCH  16  17
ENDBRANCH   2  15
TORSDOF 5
ENDMDL
MODEL 7
REMARK VINA RESULT:    -6.904      3.742      8.457
REMARK INTER + INTRA:          -9.722
REMARK INTER:                  -8.852
REMARK INTRA:                  -0.869
REMARK UNBOUND:                -0.800
REMARK  Name = 
REMARK  7 active torsions:
REMARK  status: ('A' for Active; 'I' for Inactive)
REMARK    1  A    between atoms: C_1  and  C_2
REMARK    2  A    between atoms: C_2  and  C_3
REMARK    3  A    between atoms: C_2  and  C_4
REMARK    4  A    between atoms: C_2  and  C_18
REMARK    5  A    between atoms: C_5  and  C_6
REMARK    6  A    between atoms: C_8  and  C_9
REMARK    7  A    between atoms: C_21  and  C_22
REMARK                            x       y       z     vdW  Elec       q    Type
REMARK                         _______ _______ _______ _____ _____    ______ ____
ROOT
ATOM      1  C   UNL     1      50.017   6.737  17.944  0.00  0.00    +0.000 C 
ATOM      2  C   UNL     1      49.287   5.430  17.563  0.00  0.00    +0.000 C 
ATOM      3  C   UNL     1      48.167   5.205  18.610  0.00  0.00    +0.000 C 
ENDROOT
BRANCH   2   4
ATOM      4  C   UNL     1      50.207   4.199  17.562  0.00  0.00    +0.000 A 
ATOM      5  C   UNL     1      49.701   2.925  17.248  0.00  0.00    +0.000 A 
ATOM      6  C   UNL     1      50.527   1.804  17.288  0.00  0.00    +0.000 A 
ATOM      7  C   UNL     1      51.857   1.983  17.639  0.00  0.00    +0.000 A 
ATOM      8  N   UNL     1      52.403   3.194  17.930  0.00  0.00    +0.000 NA
ATOM      9  C   UNL     1      51.566   4.260  17.882  0.00  0.00    +0.000 A 
BRANCH   7  10
ATOM     10  C   UNL     1      52.768   0.799  17.718  0.00  0.00    +0.000 C 
ATOM     11  N   UNL     1      52.302  -0.253  18.463  0.00  0.00    +0.000 N 
ATOM     12  O   UNL     1      53.853   0.759  17.157  0.00  0.00    +0.000 OA
ATOM     13  H   UNL     1      51.389  -0.191  18.901  0.00  0.00    +0.000 HD
ATOM     14  H   UNL     1      52.858  -1.090  18.543  0.00  0.00    +0.000 HD
ENDBRANCH   7  10
ENDBRANCH   2   4
BRANCH   2  15
ATOM     15  C   UNL     1      48.617   5.689  16.219  0.00  0.00    +0.000 C 
ATOM     16  C   UNL     1      48.874   6.688  15.356  0.00  0.00    +0.000 C 
BRANCH  16  17
ATOM     17  C   UNL     1      48.133   6.850  14.101  0.00  0.00    +0.000 A 
ATOM     18  C   UNL     1      47.170   5.915  13.735  0.00  0.00    +0.000 A 
ATOM     19  C   UNL     1      46.490   6.051  12.516  0.00  0.00    +0.000 A 
ATOM     20  C   UNL     1      46.833   7.151  11.718  0.00  0.00    +0.000 A 
ATOM     21  C   UNL     1      47.792   8.044  12.164  0.00  0.00    +0.000 A 
ATOM     22  N   UNL     1      48.444   7.918  13.334  0.00  0.00    +0.000 NA
BRANCH  19  23
ATOM     23  C   UNL     1      45.460   5.076  12.093  0.00  0.00    +0.000 A 
ATOM     24  C   UNL     1      44.950   5.044  10.787  0.00  0.00    +0.000 A 
ATOM     25  C   UNL     1      43.983   4.108  10.417  0.00  0.00    +0.000 A 
ATOM     26  C   UNL     1      43.533   3.218  11.375  0.00  0.00    +0.000 A 
ATOM     27  N   UNL     1      43.981   3.205  12.645  0.00  0.00    +0.000 NA
ATOM     28  C   UNL     1      44.928   4.122  12.966  0.00  0.00    +0.000 A 
ENDBRANCH  19  23
ENDBRANCH  16  17
ENDBRANCH   2  15
TORSDOF 5
ENDMDL
MODEL 8
REMARK VINA RESULT:    -6.737      3.405      8.807
REMARK INTER + INTRA:          -9.506
REMARK INTER:                  -8.752
REMARK INTRA:                  -0.754
REMARK UNBOUND:                -0.800
REMARK  Name = 
REMARK  7 active torsions:
REMARK  status: ('A' for Active; 'I' for Inactive)
REMARK    1  A    between atoms: C_1  and  C_2
REMARK    2  A    between atoms: C_2  and  C_3
REMARK    3  A    between atoms: C_2  and  C_4
REMARK    4  A    between atoms: C_2  and  C_18
REMARK    5  A    between atoms: C_5  and  C_6
REMARK    6  A    between atoms: C_8  and  C_9
REMARK    7  A    between atoms: C_21  and  C_22
REMARK                            x       y       z     vdW  Elec       q    Type
REMARK                         _______ _______ _______ _____ _____    ______ ____
ROOT
ATOM      1  C   UNL     1      47.985   5.179  18.573  0.00  0.00    +0.000 C 
ATOM      2  C   UNL     1      48.230   4.106  17.490  0.00  0.00    +0.000 C 
ATOM      3  C   UNL     1      47.185   2.983  17.707  0.00  0.00    +0.000 C 
ENDROOT
BRANCH   2   4
ATOM      4  C   UNL     1      49.634   3.484  17.559  0.00  0.00    +0.000 A 
ATOM      5  C   UNL     1      49.867   2.183  17.081  0.00  0.00    +0.000 A 
ATOM      6  C   UNL     1      51.131   1.605  17.182  0.00  0.00    +0.000 A 
ATOM      7  C   UNL     1      52.147   2.350  17.760  0.00  0.00    +0.000 A 
ATOM      8  N   UNL     1      51.983   3.621  18.219  0.00  0.00    +0.000 NA
ATOM      9  C   UNL     1      50.738   4.146  18.103  0.00  0.00    +0.000 A 
BRANCH   7  10
ATOM     10  C   UNL     1      53.511   1.753  17.910  0.00  0.00    +0.000 C 
ATOM     11  N   UNL     1      53.552   0.530  18.525  0.00  0.00    +0.000 N 
ATOM     12  O   UNL     1      54.524   2.308  17.510  0.00  0.00    +0.000 OA
ATOM     13  H   UNL     1      52.689   0.092  18.829  0.00  0.00    +0.000 HD
ATOM     14  H   UNL     1      54.439   0.062  18.642  0.00  0.00    +0.000 HD
ENDBRANCH   7  10
ENDBRANCH   2   4
BRANCH   2  15
ATOM     15  C   UNL     1      47.925   4.769  16.152  0.00  0.00    +0.000 C 
ATOM     16  C   UNL     1      46.932   4.466  15.297  0.00  0.00    +0.000 C 
BRANCH  16  17
ATOM     17  C   UNL     1      46.761   5.159  14.016  0.00  0.00    +0.000 A 
ATOM     18  C   UNL     1      46.248   4.476  12.917  0.00  0.00    +0.000 A 
ATOM     19  C   UNL     1      46.121   5.131  11.683  0.00  0.00    +0.000 A 
ATOM     20  C   UNL     1      46.532   6.470  11.631  0.00  0.00    +0.000 A 
ATOM     21  C   UNL     1      47.017   7.080  12.775  0.00  0.00    +0.000 A 
ATOM     22  N   UNL     1      47.137   6.456  13.962  0.00  0.00    +0.000 NA
BRANCH  19  23
ATOM     23  C   UNL     1      45.580   4.437  10.494  0.00  0.00    +0.000 A 
ATOM     24  C   UNL     1      44.922   3.201  10.583  0.00  0.00    +0.000 A 
ATOM     25  C   UNL     1      44.417   2.574   9.443  0.00  0.00    +0.000 A 
ATOM     26  C   UNL     1      44.591   3.198   8.221  0.00  0.00    +0.000 A 
ATOM     27  N   UNL     1      45.219   4.380   8.074  0.00  0.00    +0.000 NA
ATOM     28  C   UNL     1      45.687   4.965   9.204  0.00  0.00    +0.000 A 
ENDBRANCH  19  23
ENDBRANCH  16  17
ENDBRANCH   2  15
TORSDOF 5
ENDMDL
MODEL 9
REMARK VINA RESULT:    -6.594      4.296      8.507
REMARK INTER + INTRA:          -9.322
REMARK INTER:                  -8.464
REMARK INTRA:                  -0.858
REMARK UNBOUND:                -0.800
REMARK  Name = 
REMARK  7 active torsions:
REMARK  status: ('A' for Active; 'I' for Inactive)
REMARK    1  A    between atoms: C_1  and  C_2
REMARK    2  A    between atoms: C_2  and  C_3
REMARK    3  A    between atoms: C_2  and  C_4
REMARK    4  A    between atoms: C_2  and  C_18
REMARK    5  A    between atoms: C_5  and  C_6
REMARK    6  A    between atoms: C_8  and  C_9
REMARK    7  A    between atoms: C_21  and  C_22
REMARK                            x       y       z     vdW  Elec       q    Type
REMARK                         _______ _______ _______ _____ _____    ______ ____
ROOT
ATOM      1  C   UNL     1      48.041   5.088  18.519  0.00  0.00    +0.000 C 
ATOM      2  C   UNL     1      48.233   4.015  17.426  0.00  0.00    +0.000 C 
ATOM      3  C   UNL     1      47.127   2.949  17.626  0.00  0.00    +0.000 C 
ENDROOT
BRANCH   2   4
ATOM      4  C   UNL     1      49.600   3.315  17.495  0.00  0.00    +0.000 A 
ATOM      5  C   UNL     1      50.725   3.984  18.007  0.00  0.00    +0.000 A 
ATOM      6  C   UNL     1      51.971   3.363  18.031  0.00  0.00    +0.000 A 
ATOM      7  C   UNL     1      52.067   2.069  17.542  0.00  0.00    +0.000 A 
ATOM      8  N   UNL     1      51.008   1.366  17.056  0.00  0.00    +0.000 NA
ATOM      9  C   UNL     1      49.813   2.007  17.049  0.00  0.00    +0.000 A 
BRANCH   7  10
ATOM     10  C   UNL     1      53.394   1.379  17.527  0.00  0.00    +0.000 C 
ATOM     11  N   UNL     1      53.359   0.043  17.223  0.00  0.00    +0.000 N 
ATOM     12  O   UNL     1      54.444   1.957  17.764  0.00  0.00    +0.000 OA
ATOM     13  H   UNL     1      52.470  -0.400  17.015  0.00  0.00    +0.000 HD
ATOM     14  H   UNL     1      54.221  -0.479  17.178  0.00  0.00    +0.000 HD
ENDBRANCH   7  10
ENDBRANCH   2   4
BRANCH   2  15
ATOM     15  C   UNL     1      47.972   4.707  16.094  0.00  0.00    +0.000 C 
ATOM     16  C   UNL     1      47.074   4.360  15.154  0.00  0.00    +0.000 C 
BRANCH  16  17
ATOM     17  C   UNL     1      46.939   5.092  13.890  0.00  0.00    +0.000 A 
ATOM     18  C   UNL     1      47.861   6.079  13.555  0.00  0.00    +0.000 A 
ATOM     19  C   UNL     1      47.708   6.803  12.364  0.00  0.00    +0.000 A 
ATOM     20  C   UNL     1      46.604   6.482  11.563  0.00  0.00    +0.000 A 
ATOM     21  C   UNL     1      45.742   5.474  11.963  0.00  0.00    +0.000 A 
ATOM     22  N   UNL     1      45.888   4.775  13.103  0.00  0.00    +0.000 NA
BRANCH  19  23
ATOM     23  C   UNL     1      48.669   7.860  11.975  0.00  0.00    +0.000 A 
ATOM     24  C   UNL     1      48.271   9.185  11.743  0.00  0.00    +0.000 A 
ATOM     25  C   UNL     1      49.202  10.160  11.384  0.00  0.00    +0.000 A 
ATOM     26  C   UNL     1      50.526   9.784  11.252  0.00  0.00    +0.000 A 
ATOM     27  N   UNL     1      50.966   8.528  11.455  0.00  0.00    +0.000 NA
ATOM     28  C   UNL     1      50.035   7.609  11.813  0.00  0.00    +0.000 A 
ENDBRANCH  19  23
ENDBRANCH  16  17
ENDBRANCH   2  15
TORSDOF 5
ENDMDL
