MODEL 1
REMARK VINA RESULT:    -8.255      0.000      0.000
REMARK INTER + INTRA:         -11.056
REMARK INTER:                 -10.426
REMARK INTRA:                  -0.630
REMARK UNBOUND:                -0.630
REMARK  Name = 
REMARK  5 active torsions:
REMARK  status: ('A' for Active; 'I' for Inactive)
REMARK    1  A    between atoms: C_2  and  C_4
REMARK    2  A    between atoms: N_8  and  C_9
REMARK    3  A    between atoms: C_9  and  C_10
REMARK    4  A    between atoms: C_14  and  N_15
REMARK    5  A    between atoms: C_18  and  O_19
REMARK                            x       y       z     vdW  Elec       q    Type
REMARK                         _______ _______ _______ _____ _____    ______ ____
ROOT
ATOM      1  C   UNL     1      43.687   5.077  10.836  0.00  0.00    +0.000 C 
ENDROOT
BRANCH   1   6
ATOM      2  C   UNL     1      46.531   2.709   7.490  0.00  0.00    +0.000 A 
ATOM      3  C   UNL     1      45.953   1.813   8.357  0.00  0.00    +0.000 A 
ATOM      4  N   UNL     1      45.024   2.159   9.280  0.00  0.00    +0.000 NA
ATOM      5  C   UNL     1      44.679   3.449   9.349  0.00  0.00    +0.000 A 
ATOM      6  N   UNL     1      43.673   3.757  10.237  0.00  0.00    +0.000 N 
ATOM      7  N   UNL     1      45.230   4.408   8.587  0.00  0.00    +0.000 NA
ATOM      8  C   UNL     1      46.147   4.017   7.668  0.00  0.00    +0.000 A 
ATOM      9  H   UNL     1      43.581   2.992  10.899  0.00  0.00    +0.000 HD
BRANCH   2  11
ATOM     10  N   UNL     1      47.463   3.038   5.273  0.00  0.00    +0.000 N 
ATOM     11  C   UNL     1      47.505   2.346   6.453  0.00  0.00    +0.000 C 
ATOM     12  O   UNL     1      48.351   1.486   6.654  0.00  0.00    +0.000 OA
ATOM     13  H   UNL     1      48.212   2.844   4.618  0.00  0.00    +0.000 HD
ATOM     14  H   UNL     1      46.972   3.913   5.159  0.00  0.00    +0.000 HD
ENDBRANCH   2  11
ENDBRANCH   1   6
BRANCH   1  15
ATOM     15  C   UNL     1      44.794   5.231  11.856  0.00  0.00    +0.000 A 
ATOM     16  C   UNL     1      44.844   4.379  12.953  0.00  0.00    +0.000 A 
ATOM     17  N   UNL     1      45.828   4.436  13.872  0.00  0.00    +0.000 NA
ATOM     18  C   UNL     1      46.754   5.399  13.643  0.00  0.00    +0.000 A 
ATOM     19  C   UNL     1      46.731   6.294  12.564  0.00  0.00    +0.000 A 
ATOM     20  N   UNL     1      45.722   6.219  11.667  0.00  0.00    +0.000 NA
BRANCH  19  21
ATOM     21  N   UNL     1      47.694   7.284  12.463  0.00  0.00    +0.000 N 
ATOM     22  C   UNL     1      49.091   6.954  12.708  0.00  0.00    +0.000 C 
ATOM     23  C   UNL     1      49.920   7.795  11.731  0.00  0.00    +0.000 C 
ATOM     24  C   UNL     1      49.572   9.290  11.795  0.00  0.00    +0.000 C 
ATOM     25  C   UNL     1      48.063   9.569  11.800  0.00  0.00    +0.000 C 
ATOM     26  C   UNL     1      47.320   8.660  12.774  0.00  0.00    +0.000 C 
BRANCH  24  27
ATOM     27  O   UNL     1      50.185   9.894  12.932  0.00  0.00    +0.000 OA
ATOM     28  H   UNL     1      50.264  10.850  12.779  0.00  0.00    +0.000 HD
ENDBRANCH  24  27
ENDBRANCH  19  21
ENDBRANCH   1  15
TORSDOF 5
ENDMDL
MODEL 2
REMARK VINA RESULT:    -7.387      3.499      8.149
REMARK INTER + INTRA:          -9.960
REMARK INTER:                  -9.554
REMARK INTRA:                  -0.406
REMARK UNBOUND:                -0.630
REMARK  Name = 
REMARK  5 active torsions:
REMARK  status: ('A' for Active; 'I' for Inactive)
REMARK    1  A    between atoms: C_2  and  C_4
REMARK    2  A    between atoms: N_8  and  C_9
REMARK    3  A    between atoms: C_9  and  C_10
REMARK    4  A    between atoms: C_14  and  N_15
REMARK    5  A    between atoms: C_18  and  O_19
REMARK                            x       y       z     vdW  Elec       q    Type
REMARK                         _______ _______ _______ _____ _____    ______ ____
ROOT
ATOM      1  C   UNL     1      45.755   4.351  13.601  0.00  0.00    +0.000 C 
ENDROOT
BRANCH   1   6
ATOM      2  C   UNL     1      48.456   3.937  17.775  0.00  0.00    +0.000 A 
ATOM      3  C   UNL     1      48.591   2.813  16.996  0.00  0.00    +0.000 A 
ATOM      4  N   UNL     1      48.083   2.705  15.745  0.00  0.00    +0.000 NA
ATOM      5  C   UNL     1      47.400   3.752  15.268  0.00  0.00    +0.000 A 
ATOM      6  N   UNL     1      46.968   3.646  13.965  0.00  0.00    +0.000 N 
ATOM      7  N   UNL     1      47.163   4.869  15.974  0.00  0.00    +0.000 NA
ATOM      8  C   UNL     1      47.700   4.941  17.217  0.00  0.00    +0.000 A 
ATOM      9  H   UNL     1      46.986   2.667  13.696  0.00  0.00    +0.000 HD
BRANCH   2  11
ATOM     10  N   UNL     1      48.434   3.432  20.150  0.00  0.00    +0.000 N 
ATOM     11  C   UNL     1      49.038   4.090  19.113  0.00  0.00    +0.000 C 
ATOM     12  O   UNL     1      50.054   4.749  19.288  0.00  0.00    +0.000 OA
ATOM     13  H   UNL     1      48.918   3.465  21.040  0.00  0.00    +0.000 HD
ATOM     14  H   UNL     1      47.770   2.682  20.019  0.00  0.00    +0.000 HD
ENDBRANCH   2  11
ENDBRANCH   1   6
BRANCH   1  15
ATOM     15  C   UNL     1      45.035   3.694  12.444  0.00  0.00    +0.000 A 
ATOM     16  C   UNL     1      43.758   3.179  12.628  0.00  0.00    +0.000 A 
ATOM     17  N   UNL     1      43.048   2.622  11.627  0.00  0.00    +0.000 NA
ATOM     18  C   UNL     1      43.688   2.597  10.432  0.00  0.00    +0.000 A 
ATOM     19  C   UNL     1      44.983   3.083  10.206  0.00  0.00    +0.000 A 
ATOM     20  N   UNL     1      45.673   3.624  11.236  0.00  0.00    +0.000 NA
BRANCH  19  21
ATOM     21  N   UNL     1      45.567   2.947   8.958  0.00  0.00    +0.000 N 
ATOM     22  C   UNL     1      45.510   4.054   8.014  0.00  0.00    +0.000 C 
ATOM     23  C   UNL     1      46.838   4.051   7.249  0.00  0.00    +0.000 C 
ATOM     24  C   UNL     1      47.166   2.679   6.641  0.00  0.00    +0.000 C 
ATOM     25  C   UNL     1      46.953   1.511   7.612  0.00  0.00    +0.000 C 
ATOM     26  C   UNL     1      45.623   1.621   8.352  0.00  0.00    +0.000 C 
BRANCH  24  27
ATOM     27  O   UNL     1      46.410   2.470   5.450  0.00  0.00    +0.000 OA
ATOM     28  H   UNL     1      46.078   3.325   5.131  0.00  0.00    +0.000 HD
ENDBRANCH  24  27
ENDBRANCH  19  21
ENDBRANCH   1  15
TORSDOF 5
ENDMDL
MODEL 3
REMARK VINA RESULT:    -7.292      1.557      6.811
REMARK INTER + INTRA:          -9.841
REMARK INTER:                  -9.255
REMARK INTRA:                  -0.586
REMARK UNBOUND:                -0.630
REMARK  Name = 
REMARK  5 active torsions:
REMARK  status: ('A' for Active; 'I' for Inactive)
REMARK    1  A    between atoms: C_2  and  C_4
REMARK    2  A    between atoms: N_8  and  C_9
REMARK    3  A    between atoms: C_9  and  C_10
REMARK    4  A    between atoms: C_14  and  N_15
REMARK    5  A    between atoms: C_18  and  O_19
REMARK                            x       y       z     vdW  Elec       q    Type
REMARK                         _______ _______ _______ _____ _____    ______ ____
ROOT
ATOM      1  C   UNL     1      44.938   5.438  13.212  0.00  0.00    +0.000 C 
ENDROOT
BRANCH   1   6
ATOM      2  C   UNL     1      49.394   7.633  12.746  0.00  0.00    +0.000 A 
ATOM      3  C   UNL     1      49.258   7.070  13.991  0.00  0.00    +0.000 A 
ATOM      4  N   UNL     1      48.210   6.292  14.350  0.00  0.00    +0.000 NA
ATOM      5  C   UNL     1      47.256   6.087  13.434  0.00  0.00    +0.000 A 
ATOM      6  N   UNL     1      46.247   5.224  13.797  0.00  0.00    +0.000 N 
ATOM      7  N   UNL     1      47.269   6.641  12.211  0.00  0.00    +0.000 NA
ATOM      8  C   UNL     1      48.343   7.404  11.889  0.00  0.00    +0.000 A 
ATOM      9  H   UNL     1      46.249   5.131  14.809  0.00  0.00    +0.000 HD
BRANCH   2  11
ATOM     10  N   UNL     1      51.777   8.096  12.809  0.00  0.00    +0.000 N 
ATOM     11  C   UNL     1      50.544   8.441  12.324  0.00  0.00    +0.000 C 
ATOM     12  O   UNL     1      50.412   9.363  11.531  0.00  0.00    +0.000 OA
ATOM     13  H   UNL     1      52.565   8.598  12.418  0.00  0.00    +0.000 HD
ATOM     14  H   UNL     1      51.973   7.204  13.242  0.00  0.00    +0.000 HD
ENDBRANCH   2  11
ENDBRANCH   1   6
BRANCH   1  15
ATOM     15  C   UNL     1      44.544   4.323  12.268  0.00  0.00    +0.000 A 
ATOM     16  C   UNL     1      43.518   3.453  12.618  0.00  0.00    +0.000 A 
ATOM     17  N   UNL     1      43.090   2.469  11.803  0.00  0.00    +0.000 NA
ATOM     18  C   UNL     1      43.750   2.393  10.621  0.00  0.00    +0.000 A 
ATOM     19  C   UNL     1      44.804   3.234  10.237  0.00  0.00    +0.000 A 
ATOM     20  N   UNL     1      45.218   4.203  11.084  0.00  0.00    +0.000 NA
BRANCH  19  21
ATOM     21  N   UNL     1      45.453   3.025   9.031  0.00  0.00    +0.000 N 
ATOM     22  C   UNL     1      45.514   4.101   8.052  0.00  0.00    +0.000 C 
ATOM     23  C   UNL     1      46.884   4.001   7.371  0.00  0.00    +0.000 C 
ATOM     24  C   UNL     1      47.171   2.594   6.826  0.00  0.00    +0.000 C 
ATOM     25  C   UNL     1      46.835   1.471   7.817  0.00  0.00    +0.000 C 
ATOM     26  C   UNL     1      45.472   1.678   8.469  0.00  0.00    +0.000 C 
BRANCH  24  27
ATOM     27  O   UNL     1      46.476   2.386   5.598  0.00  0.00    +0.000 OA
ATOM     28  H   UNL     1      46.807   1.574   5.180  0.00  0.00    +0.000 HD
ENDBRANCH  24  27
ENDBRANCH  19  21
ENDBRANCH   1  15
TORSDOF 5
ENDMDL
MODEL 4
REMARK VINA RESULT:    -6.998      1.789      6.861
REMARK INTER + INTRA:          -9.469
REMARK INTER:                  -8.845
REMARK INTRA:                  -0.625
REMARK UNBOUND:                -0.630
REMARK  Name = 
REMARK  5 active torsions:
REMARK  status: ('A' for Active; 'I' for Inactive)
REMARK    1  A    between atoms: C_2  and  C_4
REMARK    2  A    between atoms: N_8  and  C_9
REMARK    3  A    between atoms: C_9  and  C_10
REMARK    4  A    between atoms: C_14  and  N_15
REMARK    5  A    between atoms: C_18  and  O_19
REMARK                            x       y       z     vdW  Elec       q    Type
REMARK                         _______ _______ _______ _____ _____    ______ ____
ROOT
ATOM      1  C   UNL     1      44.046   6.095  11.348  0.00  0.00    +0.000 C 
ENDROOT
BRANCH   1   6
ATOM      2  C   UNL     1      48.505   6.991  13.399  0.00  0.00    +0.000 A 
ATOM      3  C   UNL     1      48.555   7.159  12.037  0.00  0.00    +0.000 A 
ATOM      4  N   UNL     1      47.462   7.117  11.237  0.00  0.00    +0.000 NA
ATOM      5  C   UNL     1      46.283   6.880  11.823  0.00  0.00    +0.000 A 
ATOM      6  N   UNL     1      45.181   6.927  10.999  0.00  0.00    +0.000 N 
ATOM      7  N   UNL     1      46.139   6.644  13.137  0.00  0.00    +0.000 NA
ATOM      8  C   UNL     1      47.257   6.707  13.902  0.00  0.00    +0.000 A 
ATOM      9  H   UNL     1      45.492   6.836  10.036  0.00  0.00    +0.000 HD
BRANCH   2  11
ATOM     10  N   UNL     1      50.725   7.849  13.878  0.00  0.00    +0.000 N 
ATOM     11  C   UNL     1      49.670   7.079  14.287  0.00  0.00    +0.000 C 
ATOM     12  O   UNL     1      49.680   6.518  15.374  0.00  0.00    +0.000 OA
ATOM     13  H   UNL     1      51.467   7.981  14.555  0.00  0.00    +0.000 HD
ATOM     14  H   UNL     1      50.661   8.529  13.133  0.00  0.00    +0.000 HD
ENDBRANCH   2  11
ENDBRANCH   1   6
BRANCH   1  15
ATOM     15  C   UNL     1      44.162   4.699  10.778  0.00  0.00    +0.000 A 
ATOM     16  C   UNL     1      43.412   3.665  11.325  0.00  0.00    +0.000 A 
ATOM     17  N   UNL     1      43.437   2.410  10.834  0.00  0.00    +0.000 NA
ATOM     18  C   UNL     1      44.262   2.240   9.772  0.00  0.00    +0.000 A 
ATOM     19  C   UNL     1      45.053   3.247   9.202  0.00  0.00    +0.000 A 
ATOM     20  N   UNL     1      45.014   4.493   9.727  0.00  0.00    +0.000 NA
BRANCH  19  21
ATOM     21  N   UNL     1      45.911   2.947   8.157  0.00  0.00    +0.000 N 
ATOM     22  C   UNL     1      46.614   1.672   8.148  0.00  0.00    +0.000 C 
ATOM     23  C   UNL     1      46.692   1.221   6.686  0.00  0.00    +0.000 C 
ATOM     24  C   UNL     1      47.274   2.304   5.764  0.00  0.00    +0.000 C 
ATOM     25  C   UNL     1      46.677   3.698   6.001  0.00  0.00    +0.000 C 
ATOM     26  C   UNL     1      46.607   4.041   7.486  0.00  0.00    +0.000 C 
BRANCH  24  27
ATOM     27  O   UNL     1      48.694   2.353   5.890  0.00  0.00    +0.000 OA
ATOM     28  H   UNL     1      49.033   1.450   6.011  0.00  0.00    +0.000 HD
ENDBRANCH  24  27
ENDBRANCH  19  21
ENDBRANCH   1  15
TORSDOF 5
ENDMDL
MODEL 5
REMARK VINA RESULT:    -6.780      3.780      5.973
REMARK INTER + INTRA:          -9.194
REMARK INTER:                  -8.585
REMARK INTRA:                  -0.609
REMARK UNBOUND:                -0.630
REMARK  Name = 
REMARK  5 active torsions:
REMARK  status: ('A' for Active; 'I' for Inactive)
REMARK    1  A    between atoms: C_2  and  C_4
REMARK    2  A    between atoms: N_8  and  C_9
REMARK    3  A    between atoms: C_9  and  C_10
REMARK    4  A    between atoms: C_14  and  N_15
REMARK    5  A    between atoms: C_18  and  O_19
REMARK                            x       y       z     vdW  Elec       q    Type
REMARK                         _______ _______ _______ _____ _____    ______ ____
ROOT
ATOM      1  C   UNL     1      47.674   8.247  13.214  0.00  0.00    +0.000 C 
ENDROOT
BRANCH   1   6
ATOM      2  C   UNL     1      44.766   4.880  10.957  0.00  0.00    +0.000 A 
ATOM      3  C   UNL     1      44.490   4.936  12.301  0.00  0.00    +0.000 A 
ATOM      4  N   UNL     1      45.028   5.856  13.137  0.00  0.00    +0.000 NA
ATOM      5  C   UNL     1      45.886   6.737  12.610  0.00  0.00    +0.000 A 
ATOM      6  N   UNL     1      46.350   7.711  13.465  0.00  0.00    +0.000 N 
ATOM      7  N   UNL     1      46.264   6.726  11.322  0.00  0.00    +0.000 NA
ATOM      8  C   UNL     1      45.693   5.795  10.517  0.00  0.00    +0.000 A 
ATOM      9  H   UNL     1      46.191   7.406  14.421  0.00  0.00    +0.000 HD
BRANCH   2  11
ATOM     10  N   UNL     1      44.176   4.229   8.693  0.00  0.00    +0.000 N 
ATOM     11  C   UNL     1      44.158   3.921  10.027  0.00  0.00    +0.000 C 
ATOM     12  O   UNL     1      43.692   2.863  10.426  0.00  0.00    +0.000 OA
ATOM     13  H   UNL     1      43.851   3.504   8.065  0.00  0.00    +0.000 HD
ATOM     14  H   UNL     1      44.770   4.944   8.296  0.00  0.00    +0.000 HD
ENDBRANCH   2  11
ENDBRANCH   1   6
BRANCH   1  15
ATOM     15  C   UNL     1      48.702   7.715  14.188  0.00  0.00    +0.000 A 
ATOM     16  C   UNL     1      49.974   8.272  14.221  0.00  0.00    +0.000 A 
ATOM     17  N   UNL     1      50.919   7.872  15.094  0.00  0.00    +0.000 NA
ATOM     18  C   UNL     1      50.528   6.878  15.928  0.00  0.00    +0.000 A 
ATOM     19  C   UNL     1      49.264   6.272  15.915  0.00  0.00    +0.000 A 
ATOM     20  N   UNL     1      48.343   6.687  15.017  0.00  0.00    +0.000 NA
BRANCH  19  21
ATOM     21  N   UNL     1      48.992   5.216  16.770  0.00  0.00    +0.000 N 
ATOM     22  C   UNL     1      47.655   5.069  17.326  0.00  0.00    +0.000 C 
ATOM     23  C   UNL     1      47.372   3.564  17.403  0.00  0.00    +0.000 C 
ATOM     24  C   UNL     1      48.481   2.792  18.133  0.00  0.00    +0.000 C 
ATOM     25  C   UNL     1      49.897   3.182  17.688  0.00  0.00    +0.000 C 
ATOM     26  C   UNL     1      50.070   4.696  17.606  0.00  0.00    +0.000 C 
BRANCH  24  27
ATOM     27  O   UNL     1      48.351   2.951  19.545  0.00  0.00    +0.000 OA
ATOM     28  H   UNL     1      48.991   2.371  19.989  0.00  0.00    +0.000 HD
ENDBRANCH  24  27
ENDBRANCH  19  21
ENDBRANCH   1  15
TORSDOF 5
ENDMDL
MODEL 6
REMARK VINA RESULT:    -6.770      5.425      8.725
REMARK INTER + INTRA:          -9.181
REMARK INTER:                  -8.723
REMARK INTRA:                  -0.459
REMARK UNBOUND:                -0.630
REMARK  Name = 
REMARK  5 active torsions:
REMARK  status: ('A' for Active; 'I' for Inactive)
REMARK    1  A    between atoms: C_2  and  C_4
REMARK    2  A    between atoms: N_8  and  C_9
REMARK    3  A    between atoms: C_9  and  C_10
REMARK    4  A    between atoms: C_14  and  N_15
REMARK    5  A    between atoms: C_18  and  O_19
REMARK                            x       y       z     vdW  Elec       q    Type
REMARK                         _______ _______ _______ _____ _____    ______ ____
ROOT
ATOM      1  C   UNL     1      47.913   2.971  16.701  0.00  0.00    +0.000 C 
ENDROOT
BRANCH   1   6
ATOM      2  C   UNL     1      52.641   2.292  18.142  0.00  0.00    +0.000 A 
ATOM      3  C   UNL     1      52.108   1.122  17.657  0.00  0.00    +0.000 A 
ATOM      4  N   UNL     1      50.890   1.042  17.070  0.00  0.00    +0.000 NA
ATOM      5  C   UNL     1      50.176   2.170  16.983  0.00  0.00    +0.000 A 
ATOM      6  N   UNL     1      48.981   2.074  16.306  0.00  0.00    +0.000 N 
ATOM      7  N   UNL     1      50.584   3.348  17.478  0.00  0.00    +0.000 NA
ATOM      8  C   UNL     1      51.814   3.387  18.048  0.00  0.00    +0.000 A 
ATOM      9  H   UNL     1      48.715   1.095  16.255  0.00  0.00    +0.000 HD
BRANCH   2  11
ATOM     10  N   UNL     1      55.035   2.608  17.897  0.00  0.00    +0.000 N 
ATOM     11  C   UNL     1      53.976   2.408  18.740  0.00  0.00    +0.000 C 
ATOM     12  O   UNL     1      54.131   2.372  19.953  0.00  0.00    +0.000 OA
ATOM     13  H   UNL     1      55.928   2.794  18.340  0.00  0.00    +0.000 HD
ATOM     14  H   UNL     1      54.933   2.905  16.936  0.00  0.00    +0.000 HD
ENDBRANCH   2  11
ENDBRANCH   1   6
BRANCH   1  15
ATOM     15  C   UNL     1      47.644   4.035  15.660  0.00  0.00    +0.000 A 
ATOM     16  C   UNL     1      48.324   5.246  15.718  0.00  0.00    +0.000 A 
ATOM     17  N   UNL     1      48.162   6.215  14.796  0.00  0.00    +0.000 NA
ATOM     18  C   UNL     1      47.273   5.915  13.818  0.00  0.00    +0.000 A 
ATOM     19  C   UNL     1      46.548   4.719  13.732  0.00  0.00    +0.000 A 
ATOM     20  N   UNL     1      46.725   3.771  14.682  0.00  0.00    +0.000 NA
BRANCH  19  21
ATOM     21  N   UNL     1      45.616   4.543  12.724  0.00  0.00    +0.000 N 
ATOM     22  C   UNL     1      45.265   3.196  12.296  0.00  0.00    +0.000 C 
ATOM     23  C   UNL     1      43.769   3.215  11.961  0.00  0.00    +0.000 C 
ATOM     24  C   UNL     1      43.399   4.338  10.980  0.00  0.00    +0.000 C 
ATOM     25  C   UNL     1      44.019   5.695  11.338  0.00  0.00    +0.000 C 
ATOM     26  C   UNL     1      45.497   5.569  11.693  0.00  0.00    +0.000 C 
BRANCH  24  27
ATOM     27  O   UNL     1      43.756   3.973   9.649  0.00  0.00    +0.000 OA
ATOM     28  H   UNL     1      44.187   4.729   9.218  0.00  0.00    +0.000 HD
ENDBRANCH  24  27
ENDBRANCH  19  21
ENDBRANCH   1  15
TORSDOF 5
ENDMDL
MODEL 7
REMARK VINA RESULT:    -6.692      5.095      8.314
REMARK INTER + INTRA:          -9.083
REMARK INTER:                  -8.587
REMARK INTRA:                  -0.496
REMARK UNBOUND:                -0.630
REMARK  Name = 
REMARK  5 active torsions:
REMARK  status: ('A' for Active; 'I' for Inactive)
REMARK    1  A    between atoms: C_2  and  C_4
REMARK    2  A    between atoms: N_8  and  C_9
REMARK    3  A    between atoms: C_9  and  C_10
REMARK    4  A    between atoms: C_14  and  N_15
REMARK    5  A    between atoms: C_18  and  O_19
REMARK                            x       y       z     vdW  Elec       q    Type
REMARK                         _______ _______ _______ _____ _____    ______ ____
ROOT
ATOM      1  C   UNL     1      47.405   3.743  16.616  0.00  0.00    +0.000 C 
ENDROOT
BRANCH   1   6
ATOM      2  C   UNL     1      51.968   2.018  17.658  0.00  0.00    +0.000 A 
ATOM      3  C   UNL     1      51.857   3.341  18.011  0.00  0.00    +0.000 A 
ATOM      4  N   UNL     1      50.692   4.030  17.970  0.00  0.00    +0.000 NA
ATOM      5  C   UNL     1      49.607   3.375  17.544  0.00  0.00    +0.000 A 
ATOM      6  N   UNL     1      48.423   4.076  17.593  0.00  0.00    +0.000 N 
ATOM      7  N   UNL     1      49.625   2.101  17.122  0.00  0.00    +0.000 NA
ATOM      8  C   UNL     1      50.810   1.444  17.190  0.00  0.00    +0.000 A 
ATOM      9  H   UNL     1      48.635   5.067  17.663  0.00  0.00    +0.000 HD
BRANCH   2  11
ATOM     10  N   UNL     1      53.125  -0.053  18.176  0.00  0.00    +0.000 N 
ATOM     11  C   UNL     1      53.211   1.241  17.739  0.00  0.00    +0.000 C 
ATOM     12  O   UNL     1      54.280   1.721  17.387  0.00  0.00    +0.000 OA
ATOM     13  H   UNL     1      53.977  -0.599  18.118  0.00  0.00    +0.000 HD
ATOM     14  H   UNL     1      52.256  -0.567  18.224  0.00  0.00    +0.000 HD
ENDBRANCH   2  11
ENDBRANCH   1   6
BRANCH   1  15
ATOM     15  C   UNL     1      47.404   4.696  15.441  0.00  0.00    +0.000 A 
ATOM     16  C   UNL     1      48.170   5.854  15.492  0.00  0.00    +0.000 A 
ATOM     17  N   UNL     1      48.247   6.720  14.463  0.00  0.00    +0.000 NA
ATOM     18  C   UNL     1      47.508   6.372  13.381  0.00  0.00    +0.000 A 
ATOM     19  C   UNL     1      46.704   5.227  13.294  0.00  0.00    +0.000 A 
ATOM     20  N   UNL     1      46.639   4.385  14.351  0.00  0.00    +0.000 NA
BRANCH  19  21
ATOM     21  N   UNL     1      45.937   5.002  12.163  0.00  0.00    +0.000 N 
ATOM     22  C   UNL     1      45.752   6.074  11.196  0.00  0.00    +0.000 C 
ATOM     23  C   UNL     1      45.731   5.420   9.810  0.00  0.00    +0.000 C 
ATOM     24  C   UNL     1      44.724   4.264   9.718  0.00  0.00    +0.000 C 
ATOM     25  C   UNL     1      44.785   3.299  10.910  0.00  0.00    +0.000 C 
ATOM     26  C   UNL     1      44.840   4.043  12.241  0.00  0.00    +0.000 C 
BRANCH  24  27
ATOM     27  O   UNL     1      43.399   4.771   9.566  0.00  0.00    +0.000 OA
ATOM     28  H   UNL     1      42.967   4.795  10.436  0.00  0.00    +0.000 HD
ENDBRANCH  24  27
ENDBRANCH  19  21
ENDBRANCH   1  15
TORSDOF 5
ENDMDL
MODEL 8
REMARK VINA RESULT:    -6.666      5.425      7.119
REMARK INTER + INTRA:          -9.050
REMARK INTER:                  -8.602
REMARK INTRA:                  -0.448
REMARK UNBOUND:                -0.630
REMARK  Name = 
REMARK  5 active torsions:
REMARK  status: ('A' for Active; 'I' for Inactive)
REMARK    1  A    between atoms: C_2  and  C_4
REMARK    2  A    between atoms: N_8  and  C_9
REMARK    3  A    between atoms: C_9  and  C_10
REMARK    4  A    between atoms: C_14  and  N_15
REMARK    5  A    between atoms: C_18  and  O_19
REMARK                            x       y       z     vdW  Elec       q    Type
REMARK                         _______ _______ _______ _____ _____    ______ ____
ROOT
ATOM      1  C   UNL     1      47.089   4.269  16.079  0.00  0.00    +0.000 C 
ENDROOT
BRANCH   1   6
ATOM      2  C   UNL     1      44.937   4.171  11.579  0.00  0.00    +0.000 A 
ATOM      3  C   UNL     1      45.141   5.465  11.992  0.00  0.00    +0.000 A 
ATOM      4  N   UNL     1      45.831   5.794  13.110  0.00  0.00    +0.000 NA
ATOM      5  C   UNL     1      46.316   4.789  13.848  0.00  0.00    +0.000 A 
ATOM      6  N   UNL     1      47.084   5.154  14.931  0.00  0.00    +0.000 N 
ATOM      7  N   UNL     1      46.119   3.493  13.561  0.00  0.00    +0.000 NA
ATOM      8  C   UNL     1      45.433   3.208  12.426  0.00  0.00    +0.000 A 
ATOM      9  H   UNL     1      46.895   6.128  15.149  0.00  0.00    +0.000 HD
BRANCH   2  11
ATOM     10  N   UNL     1      44.062   4.762   9.393  0.00  0.00    +0.000 N 
ATOM     11  C   UNL     1      44.232   3.796  10.347  0.00  0.00    +0.000 C 
ATOM     12  O   UNL     1      43.851   2.649  10.162  0.00  0.00    +0.000 OA
ATOM     13  H   UNL     1      43.672   4.452   8.511  0.00  0.00    +0.000 HD
ATOM     14  H   UNL     1      44.578   5.631   9.383  0.00  0.00    +0.000 HD
ENDBRANCH   2  11
ENDBRANCH   1   6
BRANCH   1  15
ATOM     15  C   UNL     1      48.274   4.515  16.987  0.00  0.00    +0.000 A 
ATOM     16  C   UNL     1      48.271   5.609  17.844  0.00  0.00    +0.000 A 
ATOM     17  N   UNL     1      49.275   5.857  18.708  0.00  0.00    +0.000 NA
ATOM     18  C   UNL     1      50.289   4.959  18.663  0.00  0.00    +0.000 A 
ATOM     19  C   UNL     1      50.344   3.855  17.800  0.00  0.00    +0.000 A 
ATOM     20  N   UNL     1      49.326   3.642  16.935  0.00  0.00    +0.000 NA
BRANCH  19  21
ATOM     21  N   UNL     1      51.461   3.037  17.792  0.00  0.00    +0.000 N 
ATOM     22  C   UNL     1      52.789   3.632  17.848  0.00  0.00    +0.000 C 
ATOM     23  C   UNL     1      53.658   2.695  18.694  0.00  0.00    +0.000 C 
ATOM     24  C   UNL     1      53.606   1.240  18.205  0.00  0.00    +0.000 C 
ATOM     25  C   UNL     1      52.185   0.743  17.906  0.00  0.00    +0.000 C 
ATOM     26  C   UNL     1      51.387   1.758  17.092  0.00  0.00    +0.000 C 
BRANCH  24  27
ATOM     27  O   UNL     1      54.435   1.072  17.056  0.00  0.00    +0.000 OA
ATOM     28  H   UNL     1      55.245   0.603  17.316  0.00  0.00    +0.000 HD
ENDBRANCH  24  27
ENDBRANCH  19  21
ENDBRANCH   1  15
TORSDOF 5
ENDMDL
MODEL 9
REMARK VINA RESULT:    -6.563      3.946      8.470
REMARK INTER + INTRA:          -8.920
REMARK INTER:                  -8.303
REMARK INTRA:                  -0.617
REMARK UNBOUND:                -0.630
REMARK  Name = 
REMARK  5 active torsions:
REMARK  status: ('A' for Active; 'I' for Inactive)
REMARK    1  A    between atoms: C_2  and  C_4
REMARK    2  A    between atoms: N_8  and  C_9
REMARK    3  A    between atoms: C_9  and  C_10
REMARK    4  A    between atoms: C_14  and  N_15
REMARK    5  A    between atoms: C_18  and  O_19
REMARK                            x       y       z     vdW  Elec       q    Type
REMARK                         _______ _______ _______ _____ _____    ______ ____
ROOT
ATOM      1  C   UNL     1      48.259   8.151  14.221  0.00  0.00    +0.000 C 
ENDROOT
BRANCH   1   6
ATOM      2  C   UNL     1      48.588   5.431  18.390  0.00  0.00    +0.000 A 
ATOM      3  C   UNL     1      48.530   4.619  17.283  0.00  0.00    +0.000 A 
ATOM      4  N   UNL     1      48.576   5.082  16.012  0.00  0.00    +0.000 NA
ATOM      5  C   UNL     1      48.663   6.407  15.845  0.00  0.00    +0.000 A 
ATOM      6  N   UNL     1      48.793   6.843  14.546  0.00  0.00    +0.000 N 
ATOM      7  N   UNL     1      48.665   7.285  16.860  0.00  0.00    +0.000 NA
ATOM      8  C   UNL     1      48.630   6.778  18.117  0.00  0.00    +0.000 A 
ATOM      9  H   UNL     1      48.496   6.098  13.923  0.00  0.00    +0.000 HD
BRANCH   2  11
ATOM     10  N   UNL     1      48.562   3.591  19.973  0.00  0.00    +0.000 N 
ATOM     11  C   UNL     1      48.586   4.944  19.775  0.00  0.00    +0.000 C 
ATOM     12  O   UNL     1      48.649   5.722  20.717  0.00  0.00    +0.000 OA
ATOM     13  H   UNL     1      48.673   3.280  20.932  0.00  0.00    +0.000 HD
ATOM     14  H   UNL     1      48.774   2.919  19.249  0.00  0.00    +0.000 HD
ENDBRANCH   2  11
ENDBRANCH   1   6
BRANCH   1  15
ATOM     15  C   UNL     1      47.030   8.066  13.343  0.00  0.00    +0.000 A 
ATOM     16  C   UNL     1      46.455   9.230  12.845  0.00  0.00    +0.000 A 
ATOM     17  N   UNL     1      45.388   9.218  12.022  0.00  0.00    +0.000 NA
ATOM     18  C   UNL     1      44.917   7.981  11.732  0.00  0.00    +0.000 A 
ATOM     19  C   UNL     1      45.450   6.783  12.229  0.00  0.00    +0.000 A 
ATOM     20  N   UNL     1      46.513   6.830  13.063  0.00  0.00    +0.000 NA
BRANCH  19  21
ATOM     21  N   UNL     1      44.848   5.575  11.919  0.00  0.00    +0.000 N 
ATOM     22  C   UNL     1      43.697   5.553  11.027  0.00  0.00    +0.000 C 
ATOM     23  C   UNL     1      43.816   4.278  10.185  0.00  0.00    +0.000 C 
ATOM     24  C   UNL     1      44.010   3.020  11.044  0.00  0.00    +0.000 C 
ATOM     25  C   UNL     1      45.060   3.188  12.150  0.00  0.00    +0.000 C 
ATOM     26  C   UNL     1      44.884   4.501  12.907  0.00  0.00    +0.000 C 
BRANCH  24  27
ATOM     27  O   UNL     1      42.767   2.606  11.608  0.00  0.00    +0.000 OA
ATOM     28  H   UNL     1      42.159   3.363  11.624  0.00  0.00    +0.000 HD
ENDBRANCH  24  27
ENDBRANCH  19  21
ENDBRANCH   1  15
TORSDOF 5
ENDMDL
