MODEL 1
REMARK VINA RESULT:    -7.973      0.000      0.000
REMARK INTER + INTRA:         -10.086
REMARK INTER:                  -9.605
REMARK INTRA:                  -0.481
REMARK UNBOUND:                -0.481
REMARK  Name = 
REMARK  4 active torsions:
REMARK  status: ('A' for Active; 'I' for Inactive)
REMARK    1  A    between atoms: N_1  and  C_2
REMARK    2  A    between atoms: C_2  and  C_3
REMARK    3  A    between atoms: C_6  and  C_7
REMARK    4  A    between atoms: C_7  and  N_8
REMARK                            x       y       z     vdW  Elec       q    Type
REMARK                         _______ _______ _______ _____ _____    ______ ____
ROOT
ATOM      1  C   UNL     1      46.665   1.997   7.506  0.00  0.00    +0.000 A 
ATOM      2  C   UNL     1      46.581   3.367   7.269  0.00  0.00    +0.000 A 
ATOM      3  C   UNL     1      45.708   4.136   8.037  0.00  0.00    +0.000 A 
ATOM      4  C   UNL     1      44.928   3.523   9.021  0.00  0.00    +0.000 A 
ATOM      5  C   UNL     1      45.110   2.159   9.212  0.00  0.00    +0.000 A 
ATOM      6  N   UNL     1      45.948   1.389   8.482  0.00  0.00    +0.000 NA
ENDROOT
BRANCH   1   7
ATOM      7  C   UNL     1      47.548   1.121   6.644  0.00  0.00    +0.000 C 
BRANCH   7   8
ATOM      8  N   UNL     1      48.440   1.882   5.766  0.00  0.00    +0.000 NA
ATOM      9  H   UNL     1      48.874   2.622   6.314  0.00  0.00    +0.000 HD
ATOM     10  H   UNL     1      47.862   2.356   5.072  0.00  0.00    +0.000 HD
ENDBRANCH   7   8
ENDBRANCH   1   7
BRANCH   4  11
ATOM     11  C   UNL     1      43.893   4.282   9.799  0.00  0.00    +0.000 C 
BRANCH  11  12
ATOM     12  N   UNL     1      44.201   4.393  11.213  0.00  0.00    +0.000 N 
ATOM     13  C   UNL     1      43.639   3.622  12.195  0.00  0.00    +0.000 A 
ATOM     14  N   UNL     1      44.254   3.770  13.344  0.00  0.00    +0.000 NA
ATOM     15  C   UNL     1      45.262   4.670  13.101  0.00  0.00    +0.000 A 
ATOM     16  C   UNL     1      46.253   5.155  13.967  0.00  0.00    +0.000 A 
ATOM     17  C   UNL     1      47.192   6.070  13.475  0.00  0.00    +0.000 A 
ATOM     18  C   UNL     1      47.139   6.502  12.149  0.00  0.00    +0.000 A 
ATOM     19  C   UNL     1      46.162   6.025  11.268  0.00  0.00    +0.000 A 
ATOM     20  C   UNL     1      45.240   5.100  11.774  0.00  0.00    +0.000 A 
ENDBRANCH  11  12
ENDBRANCH   4  11
TORSDOF 4
ENDMDL
MODEL 2
REMARK VINA RESULT:    -7.089      1.796      6.077
REMARK INTER + INTRA:          -9.021
REMARK INTER:                  -8.667
REMARK INTRA:                  -0.353
REMARK UNBOUND:                -0.481
REMARK  Name = 
REMARK  4 active torsions:
REMARK  status: ('A' for Active; 'I' for Inactive)
REMARK    1  A    between atoms: N_1  and  C_2
REMARK    2  A    between atoms: C_2  and  C_3
REMARK    3  A    between atoms: C_6  and  C_7
REMARK    4  A    between atoms: C_7  and  N_8
REMARK                            x       y       z     vdW  Elec       q    Type
REMARK                         _______ _______ _______ _____ _____    ______ ____
ROOT
ATOM      1  C   UNL     1      46.312   4.540  13.889  0.00  0.00    +0.000 A 
ATOM      2  C   UNL     1      45.522   5.499  13.260  0.00  0.00    +0.000 A 
ATOM      3  C   UNL     1      44.801   5.143  12.121  0.00  0.00    +0.000 A 
ATOM      4  C   UNL     1      44.888   3.840  11.626  0.00  0.00    +0.000 A 
ATOM      5  C   UNL     1      45.669   2.942  12.343  0.00  0.00    +0.000 A 
ATOM      6  N   UNL     1      46.380   3.260  13.449  0.00  0.00    +0.000 NA
ENDROOT
BRANCH   1   7
ATOM      7  C   UNL     1      47.165   4.909  15.084  0.00  0.00    +0.000 C 
BRANCH   7   8
ATOM      8  N   UNL     1      47.793   3.752  15.727  0.00  0.00    +0.000 NA
ATOM      9  H   UNL     1      47.059   3.121  16.040  0.00  0.00    +0.000 HD
ATOM     10  H   UNL     1      48.255   4.082  16.575  0.00  0.00    +0.000 HD
ENDBRANCH   7   8
ENDBRANCH   1   7
BRANCH   4  11
ATOM     11  C   UNL     1      44.223   3.433  10.344  0.00  0.00    +0.000 C 
BRANCH  11  12
ATOM     12  N   UNL     1      45.061   3.625   9.173  0.00  0.00    +0.000 N 
ATOM     13  C   UNL     1      45.492   4.841   8.716  0.00  0.00    +0.000 A 
ATOM     14  N   UNL     1      46.412   4.717   7.789  0.00  0.00    +0.000 NA
ATOM     15  C   UNL     1      46.591   3.363   7.639  0.00  0.00    +0.000 A 
ATOM     16  C   UNL     1      47.486   2.669   6.812  0.00  0.00    +0.000 A 
ATOM     17  C   UNL     1      47.491   1.269   6.846  0.00  0.00    +0.000 A 
ATOM     18  C   UNL     1      46.613   0.574   7.680  0.00  0.00    +0.000 A 
ATOM     19  C   UNL     1      45.718   1.249   8.517  0.00  0.00    +0.000 A 
ATOM     20  C   UNL     1      45.738   2.649   8.479  0.00  0.00    +0.000 A 
ENDBRANCH  11  12
ENDBRANCH   4  11
TORSDOF 4
ENDMDL
MODEL 3
REMARK VINA RESULT:    -6.633      1.821      2.537
REMARK INTER + INTRA:          -8.472
REMARK INTER:                  -8.041
REMARK INTRA:                  -0.431
REMARK UNBOUND:                -0.481
REMARK  Name = 
REMARK  4 active torsions:
REMARK  status: ('A' for Active; 'I' for Inactive)
REMARK    1  A    between atoms: N_1  and  C_2
REMARK    2  A    between atoms: C_2  and  C_3
REMARK    3  A    between atoms: C_6  and  C_7
REMARK    4  A    between atoms: C_7  and  N_8
REMARK                            x       y       z     vdW  Elec       q    Type
REMARK                         _______ _______ _______ _____ _____    ______ ____
ROOT
ATOM      1  C   UNL     1      45.496   3.395   8.145  0.00  0.00    +0.000 A 
ATOM      2  C   UNL     1      44.868   2.449   8.952  0.00  0.00    +0.000 A 
ATOM      3  C   UNL     1      44.433   2.821  10.223  0.00  0.00    +0.000 A 
ATOM      4  C   UNL     1      44.640   4.129  10.670  0.00  0.00    +0.000 A 
ATOM      5  C   UNL     1      45.239   5.013   9.781  0.00  0.00    +0.000 A 
ATOM      6  N   UNL     1      45.671   4.679   8.544  0.00  0.00    +0.000 NA
ENDROOT
BRANCH   1   7
ATOM      7  C   UNL     1      46.046   3.008   6.789  0.00  0.00    +0.000 C 
BRANCH   7   8
ATOM      8  N   UNL     1      46.875   4.051   6.182  0.00  0.00    +0.000 NA
ATOM      9  H   UNL     1      46.410   4.947   6.311  0.00  0.00    +0.000 HD
ATOM     10  H   UNL     1      46.888   3.889   5.174  0.00  0.00    +0.000 HD
ENDBRANCH   7   8
ENDBRANCH   1   7
BRANCH   4  11
ATOM     11  C   UNL     1      44.294   4.552  12.067  0.00  0.00    +0.000 C 
BRANCH  11  12
ATOM     12  N   UNL     1      45.453   4.904  12.867  0.00  0.00    +0.000 N 
ATOM     13  C   UNL     1      46.373   4.007  13.340  0.00  0.00    +0.000 A 
ATOM     14  N   UNL     1      47.431   4.605  13.834  0.00  0.00    +0.000 NA
ATOM     15  C   UNL     1      47.193   5.948  13.671  0.00  0.00    +0.000 A 
ATOM     16  C   UNL     1      48.012   7.043  13.983  0.00  0.00    +0.000 A 
ATOM     17  C   UNL     1      47.549   8.335  13.709  0.00  0.00    +0.000 A 
ATOM     18  C   UNL     1      46.288   8.534  13.144  0.00  0.00    +0.000 A 
ATOM     19  C   UNL     1      45.459   7.454  12.819  0.00  0.00    +0.000 A 
ATOM     20  C   UNL     1      45.946   6.169  13.088  0.00  0.00    +0.000 A 
ENDBRANCH  11  12
ENDBRANCH   4  11
TORSDOF 4
ENDMDL
MODEL 4
REMARK VINA RESULT:    -6.457      2.403      5.819
REMARK INTER + INTRA:          -8.259
REMARK INTER:                  -7.947
REMARK INTRA:                  -0.312
REMARK UNBOUND:                -0.481
REMARK  Name = 
REMARK  4 active torsions:
REMARK  status: ('A' for Active; 'I' for Inactive)
REMARK    1  A    between atoms: N_1  and  C_2
REMARK    2  A    between atoms: C_2  and  C_3
REMARK    3  A    between atoms: C_6  and  C_7
REMARK    4  A    between atoms: C_7  and  N_8
REMARK                            x       y       z     vdW  Elec       q    Type
REMARK                         _______ _______ _______ _____ _____    ______ ____
ROOT
ATOM      1  C   UNL     1      47.531   7.440  13.711  0.00  0.00    +0.000 A 
ATOM      2  C   UNL     1      46.681   8.448  13.264  0.00  0.00    +0.000 A 
ATOM      3  C   UNL     1      45.519   8.101  12.575  0.00  0.00    +0.000 A 
ATOM      4  C   UNL     1      45.232   6.755  12.336  0.00  0.00    +0.000 A 
ATOM      5  C   UNL     1      46.119   5.819  12.854  0.00  0.00    +0.000 A 
ATOM      6  N   UNL     1      47.251   6.127  13.525  0.00  0.00    +0.000 NA
ENDROOT
BRANCH   1   7
ATOM      7  C   UNL     1      48.836   7.782  14.398  0.00  0.00    +0.000 C 
BRANCH   7   8
ATOM      8  N   UNL     1      49.995   7.108  13.808  0.00  0.00    +0.000 NA
ATOM      9  H   UNL     1      50.074   7.397  12.835  0.00  0.00    +0.000 HD
ATOM     10  H   UNL     1      49.792   6.108  13.782  0.00  0.00    +0.000 HD
ENDBRANCH   7   8
ENDBRANCH   1   7
BRANCH   4  11
ATOM     11  C   UNL     1      44.057   6.331  11.505  0.00  0.00    +0.000 C 
BRANCH  11  12
ATOM     12  N   UNL     1      44.087   4.927  11.138  0.00  0.00    +0.000 N 
ATOM     13  C   UNL     1      43.298   3.959  11.699  0.00  0.00    +0.000 A 
ATOM     14  N   UNL     1      43.361   2.830  11.034  0.00  0.00    +0.000 NA
ATOM     15  C   UNL     1      44.223   3.074   9.993  0.00  0.00    +0.000 A 
ATOM     16  C   UNL     1      44.619   2.228   8.947  0.00  0.00    +0.000 A 
ATOM     17  C   UNL     1      45.511   2.715   7.984  0.00  0.00    +0.000 A 
ATOM     18  C   UNL     1      46.008   4.016   8.067  0.00  0.00    +0.000 A 
ATOM     19  C   UNL     1      45.620   4.878   9.099  0.00  0.00    +0.000 A 
ATOM     20  C   UNL     1      44.716   4.377  10.045  0.00  0.00    +0.000 A 
ENDBRANCH  11  12
ENDBRANCH   4  11
TORSDOF 4
ENDMDL
MODEL 5
REMARK VINA RESULT:    -5.641      4.570      7.414
REMARK INTER + INTRA:          -7.277
REMARK INTER:                  -6.800
REMARK INTRA:                  -0.477
REMARK UNBOUND:                -0.481
REMARK  Name = 
REMARK  4 active torsions:
REMARK  status: ('A' for Active; 'I' for Inactive)
REMARK    1  A    between atoms: N_1  and  C_2
REMARK    2  A    between atoms: C_2  and  C_3
REMARK    3  A    between atoms: C_6  and  C_7
REMARK    4  A    between atoms: C_7  and  N_8
REMARK                            x       y       z     vdW  Elec       q    Type
REMARK                         _______ _______ _______ _____ _____    ______ ____
ROOT
ATOM      1  C   UNL     1      50.570   2.265  17.176  0.00  0.00    +0.000 A 
ATOM      2  C   UNL     1      50.412   3.505  17.789  0.00  0.00    +0.000 A 
ATOM      3  C   UNL     1      49.267   4.254  17.520  0.00  0.00    +0.000 A 
ATOM      4  C   UNL     1      48.306   3.757  16.637  0.00  0.00    +0.000 A 
ATOM      5  C   UNL     1      48.532   2.493  16.104  0.00  0.00    +0.000 A 
ATOM      6  N   UNL     1      49.632   1.746  16.347  0.00  0.00    +0.000 NA
ENDROOT
BRANCH   1   7
ATOM      7  C   UNL     1      51.833   1.458  17.389  0.00  0.00    +0.000 C 
BRANCH   7   8
ATOM      8  N   UNL     1      51.608   0.218  18.137  0.00  0.00    +0.000 NA
ATOM      9  H   UNL     1      50.674  -0.123  17.920  0.00  0.00    +0.000 HD
ATOM     10  H   UNL     1      51.593   0.454  19.130  0.00  0.00    +0.000 HD
ENDBRANCH   7   8
ENDBRANCH   1   7
BRANCH   4  11
ATOM     11  C   UNL     1      47.112   4.567  16.225  0.00  0.00    +0.000 C 
BRANCH  11  12
ATOM     12  N   UNL     1      47.088   4.879  14.808  0.00  0.00    +0.000 N 
ATOM     13  C   UNL     1      46.215   4.332  13.905  0.00  0.00    +0.000 A 
ATOM     14  N   UNL     1      46.256   4.950  12.749  0.00  0.00    +0.000 NA
ATOM     15  C   UNL     1      47.190   5.945  12.905  0.00  0.00    +0.000 A 
ATOM     16  C   UNL     1      47.601   6.933  11.998  0.00  0.00    +0.000 A 
ATOM     17  C   UNL     1      48.572   7.857  12.399  0.00  0.00    +0.000 A 
ATOM     18  C   UNL     1      49.133   7.792  13.676  0.00  0.00    +0.000 A 
ATOM     19  C   UNL     1      48.733   6.818  14.597  0.00  0.00    +0.000 A 
ATOM     20  C   UNL     1      47.749   5.911  14.182  0.00  0.00    +0.000 A 
ENDBRANCH  11  12
ENDBRANCH   4  11
TORSDOF 4
ENDMDL
MODEL 6
REMARK VINA RESULT:    -5.518      2.621      4.184
REMARK INTER + INTRA:          -7.128
REMARK INTER:                  -6.826
REMARK INTRA:                  -0.302
REMARK UNBOUND:                -0.481
REMARK  Name = 
REMARK  4 active torsions:
REMARK  status: ('A' for Active; 'I' for Inactive)
REMARK    1  A    between atoms: N_1  and  C_2
REMARK    2  A    between atoms: C_2  and  C_3
REMARK    3  A    between atoms: C_6  and  C_7
REMARK    4  A    between atoms: C_7  and  N_8
REMARK                            x       y       z     vdW  Elec       q    Type
REMARK                         _______ _______ _______ _____ _____    ______ ____
ROOT
ATOM      1  C   UNL     1      44.955   3.466   9.869  0.00  0.00    +0.000 A 
ATOM      2  C   UNL     1      45.300   4.757   9.477  0.00  0.00    +0.000 A 
ATOM      3  C   UNL     1      45.565   5.715  10.455  0.00  0.00    +0.000 A 
ATOM      4  C   UNL     1      45.472   5.371  11.805  0.00  0.00    +0.000 A 
ATOM      5  C   UNL     1      45.161   4.049  12.100  0.00  0.00    +0.000 A 
ATOM      6  N   UNL     1      44.898   3.100  11.173  0.00  0.00    +0.000 NA
ENDROOT
BRANCH   1   7
ATOM      7  C   UNL     1      44.591   2.420   8.838  0.00  0.00    +0.000 C 
BRANCH   7   8
ATOM      8  N   UNL     1      45.533   1.299   8.792  0.00  0.00    +0.000 NA
ATOM      9  H   UNL     1      45.386   0.721   9.617  0.00  0.00    +0.000 HD
ATOM     10  H   UNL     1      46.474   1.681   8.888  0.00  0.00    +0.000 HD
ENDBRANCH   7   8
ENDBRANCH   1   7
BRANCH   4  11
ATOM     11  C   UNL     1      45.637   6.388  12.896  0.00  0.00    +0.000 C 
BRANCH  11  12
ATOM     12  N   UNL     1      46.091   7.680  12.415  0.00  0.00    +0.000 N 
ATOM     13  C   UNL     1      45.331   8.819  12.410  0.00  0.00    +0.000 A 
ATOM     14  N   UNL     1      46.049   9.884  12.142  0.00  0.00    +0.000 NA
ATOM     15  C   UNL     1      47.330   9.421  11.970  0.00  0.00    +0.000 A 
ATOM     16  C   UNL     1      48.509  10.135  11.708  0.00  0.00    +0.000 A 
ATOM     17  C   UNL     1      49.713   9.432  11.586  0.00  0.00    +0.000 A 
ATOM     18  C   UNL     1      49.741   8.042  11.711  0.00  0.00    +0.000 A 
ATOM     19  C   UNL     1      48.577   7.312  11.978  0.00  0.00    +0.000 A 
ATOM     20  C   UNL     1      47.385   8.035  12.112  0.00  0.00    +0.000 A 
ENDBRANCH  11  12
ENDBRANCH   4  11
TORSDOF 4
ENDMDL
MODEL 7
REMARK VINA RESULT:    -5.243      3.254      5.431
REMARK INTER + INTRA:          -6.797
REMARK INTER:                  -6.387
REMARK INTRA:                  -0.411
REMARK UNBOUND:                -0.481
REMARK  Name = 
REMARK  4 active torsions:
REMARK  status: ('A' for Active; 'I' for Inactive)
REMARK    1  A    between atoms: N_1  and  C_2
REMARK    2  A    between atoms: C_2  and  C_3
REMARK    3  A    between atoms: C_6  and  C_7
REMARK    4  A    between atoms: C_7  and  N_8
REMARK                            x       y       z     vdW  Elec       q    Type
REMARK                         _______ _______ _______ _____ _____    ______ ____
ROOT
ATOM      1  C   UNL     1      44.720   3.951  11.323  0.00  0.00    +0.000 A 
ATOM      2  C   UNL     1      45.009   5.052  10.521  0.00  0.00    +0.000 A 
ATOM      3  C   UNL     1      45.557   6.193  11.106  0.00  0.00    +0.000 A 
ATOM      4  C   UNL     1      45.799   6.217  12.482  0.00  0.00    +0.000 A 
ATOM      5  C   UNL     1      45.516   5.057  13.194  0.00  0.00    +0.000 A 
ATOM      6  N   UNL     1      44.984   3.939  12.653  0.00  0.00    +0.000 NA
ENDROOT
BRANCH   1   7
ATOM      7  C   UNL     1      44.058   2.723  10.735  0.00  0.00    +0.000 C 
BRANCH   7   8
ATOM      8  N   UNL     1      43.025   2.152  11.602  0.00  0.00    +0.000 NA
ATOM      9  H   UNL     1      43.295   1.200  11.840  0.00  0.00    +0.000 HD
ATOM     10  H   UNL     1      42.170   2.066  11.051  0.00  0.00    +0.000 HD
ENDBRANCH   7   8
ENDBRANCH   1   7
BRANCH   4  11
ATOM     11  C   UNL     1      46.282   7.454  13.180  0.00  0.00    +0.000 C 
BRANCH  11  12
ATOM     12  N   UNL     1      47.649   7.810  12.843  0.00  0.00    +0.000 N 
ATOM     13  C   UNL     1      48.710   6.946  12.880  0.00  0.00    +0.000 A 
ATOM     14  N   UNL     1      49.777   7.458  12.315  0.00  0.00    +0.000 NA
ATOM     15  C   UNL     1      49.395   8.706  11.887  0.00  0.00    +0.000 A 
ATOM     16  C   UNL     1      50.128   9.670  11.180  0.00  0.00    +0.000 A 
ATOM     17  C   UNL     1      49.508  10.878  10.841  0.00  0.00    +0.000 A 
ATOM     18  C   UNL     1      48.184  11.126  11.209  0.00  0.00    +0.000 A 
ATOM     19  C   UNL     1      47.434  10.175  11.909  0.00  0.00    +0.000 A 
ATOM     20  C   UNL     1      48.068   8.967  12.227  0.00  0.00    +0.000 A 
ENDBRANCH  11  12
ENDBRANCH   4  11
TORSDOF 4
ENDMDL
