MODEL 1
REMARK VINA RESULT:    -8.261      0.000      0.000
REMARK INTER + INTRA:         -11.089
REMARK INTER:                 -10.434
REMARK INTRA:                  -0.655
REMARK UNBOUND:                -0.655
REMARK  Name = 
REMARK  6 active torsions:
REMARK  status: ('A' for Active; 'I' for Inactive)
REMARK    1  A    between atoms: C_1  and  O_2
REMARK    2  A    between atoms: O_2  and  C_3
REMARK    3  A    between atoms: C_5  and  C_6
REMARK    4  A    between atoms: C_6  and  N_7
REMARK    5  A    between atoms: C_11  and  C_12
REMARK    6  A    between atoms: C_21  and  O_22
REMARK                            x       y       z     vdW  Elec       q    Type
REMARK                         _______ _______ _______ _____ _____    ______ ____
ROOT
ATOM      1  C   UNL     1      43.770   5.362  11.227  0.00  0.00    +0.000 C 
ATOM      2  C   UNL     1      42.875   6.571  11.046  0.00  0.00    +0.000 C 
ATOM      3  C   UNL     1      42.399   5.445  11.890  0.00  0.00    +0.000 C 
ENDROOT
BRANCH   1   4
ATOM      4  N   UNL     1      43.835   4.133  10.431  0.00  0.00    +0.000 N 
ATOM      5  C   UNL     1      44.875   3.762   9.583  0.00  0.00    +0.000 A 
ATOM      6  N   UNL     1      45.140   2.443   9.645  0.00  0.00    +0.000 NA
ATOM      7  C   UNL     1      45.932   1.917   8.686  0.00  0.00    +0.000 A 
ATOM      8  C   UNL     1      46.444   2.664   7.653  0.00  0.00    +0.000 A 
ATOM      9  C   UNL     1      46.179   4.011   7.718  0.00  0.00    +0.000 A 
ATOM     10  N   UNL     1      45.401   4.589   8.672  0.00  0.00    +0.000 NA
ATOM     11  H   UNL     1      43.690   3.288  10.983  0.00  0.00    +0.000 HD
BRANCH   8  12
ATOM     12  C   UNL     1      47.184   1.983   6.575  0.00  0.00    +0.000 C 
ATOM     13  N   UNL     1      47.827   2.776   5.660  0.00  0.00    +0.000 N 
ATOM     14  O   UNL     1      47.171   0.772   6.466  0.00  0.00    +0.000 OA
ATOM     15  H   UNL     1      47.642   3.767   5.558  0.00  0.00    +0.000 HD
ATOM     16  H   UNL     1      48.176   2.295   4.839  0.00  0.00    +0.000 HD
ENDBRANCH   8  12
ENDBRANCH   1   4
BRANCH   1  19
ATOM     17  C   UNL     1      46.953   4.925  13.364  0.00  0.00    +0.000 A 
ATOM     18  C   UNL     1      45.636   4.770  12.903  0.00  0.00    +0.000 A 
ATOM     19  C   UNL     1      45.091   5.639  11.939  0.00  0.00    +0.000 A 
ATOM     20  C   UNL     1      45.881   6.727  11.519  0.00  0.00    +0.000 A 
ATOM     21  C   UNL     1      47.196   6.888  11.953  0.00  0.00    +0.000 A 
ATOM     22  C   UNL     1      47.731   5.971  12.849  0.00  0.00    +0.000 A 
BRANCH  17  24
ATOM     23  C   UNL     1      47.239   4.254  15.635  0.00  0.00    +0.000 C 
ATOM     24  O   UNL     1      47.574   4.103  14.265  0.00  0.00    +0.000 OA
ENDBRANCH  17  24
BRANCH  22  25
ATOM     25  O   UNL     1      49.048   6.075  13.214  0.00  0.00    +0.000 OA
ATOM     26  H   UNL     1      49.093   6.385  14.131  0.00  0.00    +0.000 HD
ENDBRANCH  22  25
ENDBRANCH   1  19
TORSDOF 5
ENDMDL
MODEL 2
REMARK VINA RESULT:    -6.528      2.704      6.622
REMARK INTER + INTRA:          -8.900
REMARK INTER:                  -8.703
REMARK INTRA:                  -0.196
REMARK UNBOUND:                -0.655
REMARK  Name = 
REMARK  6 active torsions:
REMARK  status: ('A' for Active; 'I' for Inactive)
REMARK    1  A    between atoms: C_1  and  O_2
REMARK    2  A    between atoms: O_2  and  C_3
REMARK    3  A    between atoms: C_5  and  C_6
REMARK    4  A    between atoms: C_6  and  N_7
REMARK    5  A    between atoms: C_11  and  C_12
REMARK    6  A    between atoms: C_21  and  O_22
REMARK                            x       y       z     vdW  Elec       q    Type
REMARK                         _______ _______ _______ _____ _____    ______ ____
ROOT
ATOM      1  C   UNL     1      44.321   4.233  11.433  0.00  0.00    +0.000 C 
ATOM      2  C   UNL     1      43.460   3.121  11.996  0.00  0.00    +0.000 C 
ATOM      3  C   UNL     1      42.804   4.365  11.520  0.00  0.00    +0.000 C 
ENDROOT
BRANCH   1   4
ATOM      4  N   UNL     1      44.933   5.369  12.127  0.00  0.00    +0.000 N 
ATOM      5  C   UNL     1      45.999   5.303  13.022  0.00  0.00    +0.000 A 
ATOM      6  N   UNL     1      46.857   6.330  12.873  0.00  0.00    +0.000 NA
ATOM      7  C   UNL     1      47.772   6.528  13.845  0.00  0.00    +0.000 A 
ATOM      8  C   UNL     1      47.838   5.747  14.974  0.00  0.00    +0.000 A 
ATOM      9  C   UNL     1      46.970   4.682  14.999  0.00  0.00    +0.000 A 
ATOM     10  N   UNL     1      46.042   4.432  14.037  0.00  0.00    +0.000 NA
ATOM     11  H   UNL     1      45.223   6.117  11.498  0.00  0.00    +0.000 HD
BRANCH   8  12
ATOM     12  C   UNL     1      48.777   6.119  16.048  0.00  0.00    +0.000 C 
ATOM     13  N   UNL     1      48.235   6.502  17.247  0.00  0.00    +0.000 N 
ATOM     14  O   UNL     1      49.978   6.145  15.857  0.00  0.00    +0.000 OA
ATOM     15  H   UNL     1      47.259   6.751  17.361  0.00  0.00    +0.000 HD
ATOM     16  H   UNL     1      48.887   6.917  17.904  0.00  0.00    +0.000 HD
ENDBRANCH   8  12
ENDBRANCH   1   4
BRANCH   1  19
ATOM     17  C   UNL     1      45.724   2.277   8.417  0.00  0.00    +0.000 A 
ATOM     18  C   UNL     1      45.227   2.554   9.700  0.00  0.00    +0.000 A 
ATOM     19  C   UNL     1      45.085   3.876  10.160  0.00  0.00    +0.000 A 
ATOM     20  C   UNL     1      45.543   4.913   9.323  0.00  0.00    +0.000 A 
ATOM     21  C   UNL     1      46.023   4.659   8.040  0.00  0.00    +0.000 A 
ATOM     22  C   UNL     1      46.083   3.347   7.586  0.00  0.00    +0.000 A 
BRANCH  17  24
ATOM     23  C   UNL     1      47.166   0.565   7.593  0.00  0.00    +0.000 C 
ATOM     24  O   UNL     1      45.855   1.027   7.875  0.00  0.00    +0.000 OA
ENDBRANCH  17  24
BRANCH  22  25
ATOM     25  O   UNL     1      46.474   3.097   6.296  0.00  0.00    +0.000 OA
ATOM     26  H   UNL     1      45.980   2.332   5.963  0.00  0.00    +0.000 HD
ENDBRANCH  22  25
ENDBRANCH   1  19
TORSDOF 5
ENDMDL
MODEL 3
REMARK VINA RESULT:    -5.833      2.686      6.489
REMARK INTER + INTRA:          -8.023
REMARK INTER:                  -7.628
REMARK INTRA:                  -0.395
REMARK UNBOUND:                -0.655
REMARK  Name = 
REMARK  6 active torsions:
REMARK  status: ('A' for Active; 'I' for Inactive)
REMARK    1  A    between atoms: C_1  and  O_2
REMARK    2  A    between atoms: O_2  and  C_3
REMARK    3  A    between atoms: C_5  and  C_6
REMARK    4  A    between atoms: C_6  and  N_7
REMARK    5  A    between atoms: C_11  and  C_12
REMARK    6  A    between atoms: C_21  and  O_22
REMARK                            x       y       z     vdW  Elec       q    Type
REMARK                         _______ _______ _______ _____ _____    ______ ____
ROOT
ATOM      1  C   UNL     1      44.308   5.320  10.909  0.00  0.00    +0.000 C 
ATOM      2  C   UNL     1      43.387   4.931  12.047  0.00  0.00    +0.000 C 
ATOM      3  C   UNL     1      42.905   5.903  11.034  0.00  0.00    +0.000 C 
ENDROOT
BRANCH   1   4
ATOM      4  N   UNL     1      45.272   6.423  10.837  0.00  0.00    +0.000 N 
ATOM      5  C   UNL     1      46.368   6.607  11.677  0.00  0.00    +0.000 A 
ATOM      6  N   UNL     1      47.449   7.060  11.015  0.00  0.00    +0.000 NA
ATOM      7  C   UNL     1      48.480   7.532  11.748  0.00  0.00    +0.000 A 
ATOM      8  C   UNL     1      48.452   7.589  13.120  0.00  0.00    +0.000 A 
ATOM      9  C   UNL     1      47.337   7.037  13.706  0.00  0.00    +0.000 A 
ATOM     10  N   UNL     1      46.281   6.536  13.011  0.00  0.00    +0.000 NA
ATOM     11  H   UNL     1      45.684   6.537   9.912  0.00  0.00    +0.000 HD
BRANCH   8  12
ATOM     12  C   UNL     1      49.563   8.246  13.833  0.00  0.00    +0.000 C 
ATOM     13  N   UNL     1      50.723   7.531  13.976  0.00  0.00    +0.000 N 
ATOM     14  O   UNL     1      49.433   9.350  14.326  0.00  0.00    +0.000 OA
ATOM     15  H   UNL     1      50.781   6.531  13.824  0.00  0.00    +0.000 HD
ATOM     16  H   UNL     1      51.402   7.931  14.615  0.00  0.00    +0.000 HD
ENDBRANCH   8  12
ENDBRANCH   1   4
BRANCH   1  19
ATOM     17  C   UNL     1      46.136   3.213   8.244  0.00  0.00    +0.000 A 
ATOM     18  C   UNL     1      45.634   4.325   8.936  0.00  0.00    +0.000 A 
ATOM     19  C   UNL     1      44.689   4.181   9.968  0.00  0.00    +0.000 A 
ATOM     20  C   UNL     1      44.195   2.886  10.225  0.00  0.00    +0.000 A 
ATOM     21  C   UNL     1      44.695   1.767   9.561  0.00  0.00    +0.000 A 
ATOM     22  C   UNL     1      45.681   1.935   8.597  0.00  0.00    +0.000 A 
BRANCH  17  24
ATOM     23  C   UNL     1      46.638   3.244   5.912  0.00  0.00    +0.000 C 
ATOM     24  O   UNL     1      47.085   3.259   7.258  0.00  0.00    +0.000 OA
ENDBRANCH  17  24
BRANCH  22  25
ATOM     25  O   UNL     1      46.235   0.833   8.001  0.00  0.00    +0.000 OA
ATOM     26  H   UNL     1      46.113   0.069   8.585  0.00  0.00    +0.000 HD
ENDBRANCH  22  25
ENDBRANCH   1  19
TORSDOF 5
ENDMDL
MODEL 4
REMARK VINA RESULT:    -5.789      4.128      7.691
REMARK INTER + INTRA:          -7.966
REMARK INTER:                  -7.651
REMARK INTRA:                  -0.316
REMARK UNBOUND:                -0.655
REMARK  Name = 
REMARK  6 active torsions:
REMARK  status: ('A' for Active; 'I' for Inactive)
REMARK    1  A    between atoms: C_1  and  O_2
REMARK    2  A    between atoms: O_2  and  C_3
REMARK    3  A    between atoms: C_5  and  C_6
REMARK    4  A    between atoms: C_6  and  N_7
REMARK    5  A    between atoms: C_11  and  C_12
REMARK    6  A    between atoms: C_21  and  O_22
REMARK                            x       y       z     vdW  Elec       q    Type
REMARK                         _______ _______ _______ _____ _____    ______ ____
ROOT
ATOM      1  C   UNL     1      46.800   5.868  13.010  0.00  0.00    +0.000 C 
ATOM      2  C   UNL     1      46.611   7.366  13.136  0.00  0.00    +0.000 C 
ATOM      3  C   UNL     1      47.638   6.849  12.197  0.00  0.00    +0.000 C 
ENDROOT
BRANCH   1   4
ATOM      4  N   UNL     1      47.701   4.986  13.758  0.00  0.00    +0.000 N 
ATOM      5  C   UNL     1      47.816   4.918  15.144  0.00  0.00    +0.000 A 
ATOM      6  N   UNL     1      47.978   3.656  15.583  0.00  0.00    +0.000 NA
ATOM      7  C   UNL     1      48.369   3.483  16.864  0.00  0.00    +0.000 A 
ATOM      8  C   UNL     1      48.628   4.535  17.710  0.00  0.00    +0.000 A 
ATOM      9  C   UNL     1      48.363   5.780  17.193  0.00  0.00    +0.000 A 
ATOM     10  N   UNL     1      47.953   6.003  15.915  0.00  0.00    +0.000 NA
ATOM     11  H   UNL     1      47.609   4.004  13.498  0.00  0.00    +0.000 HD
BRANCH   8  12
ATOM     12  C   UNL     1      49.182   4.258  19.048  0.00  0.00    +0.000 C 
ATOM     13  N   UNL     1      48.402   3.532  19.910  0.00  0.00    +0.000 N 
ATOM     14  O   UNL     1      50.259   4.707  19.392  0.00  0.00    +0.000 OA
ATOM     15  H   UNL     1      47.411   3.375  19.764  0.00  0.00    +0.000 HD
ATOM     16  H   UNL     1      48.726   3.506  20.870  0.00  0.00    +0.000 HD
ENDBRANCH   8  12
ENDBRANCH   1   4
BRANCH   1  19
ATOM     17  C   UNL     1      44.565   3.587  10.846  0.00  0.00    +0.000 A 
ATOM     18  C   UNL     1      45.591   4.470  11.215  0.00  0.00    +0.000 A 
ATOM     19  C   UNL     1      45.593   5.108  12.469  0.00  0.00    +0.000 A 
ATOM     20  C   UNL     1      44.480   4.902  13.309  0.00  0.00    +0.000 A 
ATOM     21  C   UNL     1      43.460   4.016  12.967  0.00  0.00    +0.000 A 
ATOM     22  C   UNL     1      43.524   3.344  11.753  0.00  0.00    +0.000 A 
BRANCH  17  24
ATOM     23  C   UNL     1      44.720   3.616   8.466  0.00  0.00    +0.000 C 
ATOM     24  O   UNL     1      44.507   2.893   9.667  0.00  0.00    +0.000 OA
ENDBRANCH  17  24
BRANCH  22  25
ATOM     25  O   UNL     1      42.569   2.409  11.448  0.00  0.00    +0.000 OA
ATOM     26  H   UNL     1      41.727   2.685  11.843  0.00  0.00    +0.000 HD
ENDBRANCH  22  25
ENDBRANCH   1  19
TORSDOF 5
ENDMDL
MODEL 5
REMARK VINA RESULT:    -5.725      4.209      7.663
REMARK INTER + INTRA:          -7.886
REMARK INTER:                  -7.549
REMARK INTRA:                  -0.337
REMARK UNBOUND:                -0.655
REMARK  Name = 
REMARK  6 active torsions:
REMARK  status: ('A' for Active; 'I' for Inactive)
REMARK    1  A    between atoms: C_1  and  O_2
REMARK    2  A    between atoms: O_2  and  C_3
REMARK    3  A    between atoms: C_5  and  C_6
REMARK    4  A    between atoms: C_6  and  N_7
REMARK    5  A    between atoms: C_11  and  C_12
REMARK    6  A    between atoms: C_21  and  O_22
REMARK                            x       y       z     vdW  Elec       q    Type
REMARK                         _______ _______ _______ _____ _____    ______ ____
ROOT
ATOM      1  C   UNL     1      47.589   6.359  13.043  0.00  0.00    +0.000 C 
ATOM      2  C   UNL     1      48.198   7.735  13.214  0.00  0.00    +0.000 C 
ATOM      3  C   UNL     1      48.954   6.704  12.457  0.00  0.00    +0.000 C 
ENDROOT
BRANCH   1   4
ATOM      4  N   UNL     1      47.728   5.175  13.896  0.00  0.00    +0.000 N 
ATOM      5  C   UNL     1      47.842   5.175  15.284  0.00  0.00    +0.000 A 
ATOM      6  N   UNL     1      47.160   4.164  15.854  0.00  0.00    +0.000 NA
ATOM      7  C   UNL     1      47.408   3.895  17.153  0.00  0.00    +0.000 A 
ATOM      8  C   UNL     1      48.335   4.589  17.892  0.00  0.00    +0.000 A 
ATOM      9  C   UNL     1      48.925   5.648  17.244  0.00  0.00    +0.000 A 
ATOM     10  N   UNL     1      48.696   5.967  15.942  0.00  0.00    +0.000 NA
ATOM     11  H   UNL     1      47.002   4.476  13.736  0.00  0.00    +0.000 HD
BRANCH   8  12
ATOM     12  C   UNL     1      48.641   4.139  19.262  0.00  0.00    +0.000 C 
ATOM     13  N   UNL     1      48.220   2.884  19.617  0.00  0.00    +0.000 N 
ATOM     14  O   UNL     1      49.187   4.875  20.063  0.00  0.00    +0.000 OA
ATOM     15  H   UNL     1      47.539   2.356  19.083  0.00  0.00    +0.000 HD
ATOM     16  H   UNL     1      48.285   2.668  20.605  0.00  0.00    +0.000 HD
ENDBRANCH   8  12
ENDBRANCH   1   4
BRANCH   1  19
ATOM     17  C   UNL     1      44.408   5.102  11.257  0.00  0.00    +0.000 A 
ATOM     18  C   UNL     1      45.710   5.128  11.779  0.00  0.00    +0.000 A 
ATOM     19  C   UNL     1      46.290   6.323  12.242  0.00  0.00    +0.000 A 
ATOM     20  C   UNL     1      45.552   7.513  12.081  0.00  0.00    +0.000 A 
ATOM     21  C   UNL     1      44.251   7.505  11.581  0.00  0.00    +0.000 A 
ATOM     22  C   UNL     1      43.679   6.297  11.200  0.00  0.00    +0.000 A 
BRANCH  17  24
ATOM     23  C   UNL     1      43.414   3.000  11.793  0.00  0.00    +0.000 C 
ATOM     24  O   UNL     1      43.754   3.979  10.824  0.00  0.00    +0.000 OA
ENDBRANCH  17  24
BRANCH  22  25
ATOM     25  O   UNL     1      42.372   6.272  10.786  0.00  0.00    +0.000 OA
ATOM     26  H   UNL     1      42.290   6.806   9.981  0.00  0.00    +0.000 HD
ENDBRANCH  22  25
ENDBRANCH   1  19
TORSDOF 5
ENDMDL
MODEL 6
REMARK VINA RESULT:    -5.661      4.193      7.159
REMARK INTER + INTRA:          -7.805
REMARK INTER:                  -7.995
REMARK INTRA:                   0.190
REMARK UNBOUND:                -0.655
REMARK  Name = 
REMARK  6 active torsions:
REMARK  status: ('A' for Active; 'I' for Inactive)
REMARK    1  A    between atoms: C_1  and  O_2
REMARK    2  A    between atoms: O_2  and  C_3
REMARK    3  A    between atoms: C_5  and  C_6
REMARK    4  A    between atoms: C_6  and  N_7
REMARK    5  A    between atoms: C_11  and  C_12
REMARK    6  A    between atoms: C_21  and  O_22
REMARK                            x       y       z     vdW  Elec       q    Type
REMARK                         _______ _______ _______ _____ _____    ______ ____
ROOT
ATOM      1  C   UNL     1      48.460   7.724  12.724  0.00  0.00    +0.000 C 
ATOM      2  C   UNL     1      49.471   8.498  11.904  0.00  0.00    +0.000 C 
ATOM      3  C   UNL     1      49.733   7.067  12.201  0.00  0.00    +0.000 C 
ENDROOT
BRANCH   1   4
ATOM      4  N   UNL     1      48.397   7.538  14.177  0.00  0.00    +0.000 N 
ATOM      5  C   UNL     1      48.299   6.319  14.842  0.00  0.00    +0.000 A 
ATOM      6  N   UNL     1      49.043   6.286  15.964  0.00  0.00    +0.000 NA
ATOM      7  C   UNL     1      48.826   5.275  16.831  0.00  0.00    +0.000 A 
ATOM      8  C   UNL     1      47.869   4.310  16.623  0.00  0.00    +0.000 A 
ATOM      9  C   UNL     1      47.214   4.387  15.417  0.00  0.00    +0.000 A 
ATOM     10  N   UNL     1      47.409   5.377  14.506  0.00  0.00    +0.000 NA
ATOM     11  H   UNL     1      49.158   7.998  14.675  0.00  0.00    +0.000 HD
BRANCH   8  12
ATOM     12  C   UNL     1      47.605   3.323  17.686  0.00  0.00    +0.000 C 
ATOM     13  N   UNL     1      48.516   3.245  18.707  0.00  0.00    +0.000 N 
ATOM     14  O   UNL     1      46.654   2.567  17.625  0.00  0.00    +0.000 OA
ATOM     15  H   UNL     1      49.442   3.655  18.658  0.00  0.00    +0.000 HD
ATOM     16  H   UNL     1      48.408   2.448  19.324  0.00  0.00    +0.000 HD
ENDBRANCH   8  12
ENDBRANCH   1   4
BRANCH   1  19
ATOM     17  C   UNL     1      45.277   6.193  11.172  0.00  0.00    +0.000 A 
ATOM     18  C   UNL     1      46.620   6.362  11.540  0.00  0.00    +0.000 A 
ATOM     19  C   UNL     1      47.084   7.576  12.080  0.00  0.00    +0.000 A 
ATOM     20  C   UNL     1      46.173   8.649  12.155  0.00  0.00    +0.000 A 
ATOM     21  C   UNL     1      44.832   8.494  11.811  0.00  0.00    +0.000 A 
ATOM     22  C   UNL     1      44.388   7.261  11.349  0.00  0.00    +0.000 A 
BRANCH  17  24
ATOM     23  C   UNL     1      44.799   3.878  11.496  0.00  0.00    +0.000 C 
ATOM     24  O   UNL     1      44.733   5.037  10.680  0.00  0.00    +0.000 OA
ENDBRANCH  17  24
BRANCH  22  25
ATOM     25  O   UNL     1      43.054   7.080  11.089  0.00  0.00    +0.000 OA
ATOM     26  H   UNL     1      42.890   7.277  10.154  0.00  0.00    +0.000 HD
ENDBRANCH  22  25
ENDBRANCH   1  19
TORSDOF 5
ENDMDL
MODEL 7
REMARK VINA RESULT:    -5.338      3.318      4.991
REMARK INTER + INTRA:          -7.397
REMARK INTER:                  -7.011
REMARK INTRA:                  -0.386
REMARK UNBOUND:                -0.655
REMARK  Name = 
REMARK  6 active torsions:
REMARK  status: ('A' for Active; 'I' for Inactive)
REMARK    1  A    between atoms: C_1  and  O_2
REMARK    2  A    between atoms: O_2  and  C_3
REMARK    3  A    between atoms: C_5  and  C_6
REMARK    4  A    between atoms: C_6  and  N_7
REMARK    5  A    between atoms: C_11  and  C_12
REMARK    6  A    between atoms: C_21  and  O_22
REMARK                            x       y       z     vdW  Elec       q    Type
REMARK                         _______ _______ _______ _____ _____    ______ ____
ROOT
ATOM      1  C   UNL     1      47.896   7.955  13.446  0.00  0.00    +0.000 C 
ATOM      2  C   UNL     1      48.432   8.598  12.183  0.00  0.00    +0.000 C 
ATOM      3  C   UNL     1      47.490   9.366  13.035  0.00  0.00    +0.000 C 
ENDROOT
BRANCH   1   4
ATOM      4  N   UNL     1      46.684   7.150  13.629  0.00  0.00    +0.000 N 
ATOM      5  C   UNL     1      46.272   6.096  12.818  0.00  0.00    +0.000 A 
ATOM      6  N   UNL     1      45.741   5.082  13.527  0.00  0.00    +0.000 NA
ATOM      7  C   UNL     1      45.064   4.130  12.849  0.00  0.00    +0.000 A 
ATOM      8  C   UNL     1      44.879   4.177  11.489  0.00  0.00    +0.000 A 
ATOM      9  C   UNL     1      45.519   5.210  10.846  0.00  0.00    +0.000 A 
ATOM     10  N   UNL     1      46.224   6.182  11.483  0.00  0.00    +0.000 NA
ATOM     11  H   UNL     1      46.605   6.751  14.564  0.00  0.00    +0.000 HD
BRANCH   8  12
ATOM     12  C   UNL     1      44.010   3.172  10.850  0.00  0.00    +0.000 C 
ATOM     13  N   UNL     1      43.376   2.278  11.674  0.00  0.00    +0.000 N 
ATOM     14  O   UNL     1      43.910   3.099   9.640  0.00  0.00    +0.000 OA
ATOM     15  H   UNL     1      43.640   2.134  12.642  0.00  0.00    +0.000 HD
ATOM     16  H   UNL     1      42.932   1.497  11.206  0.00  0.00    +0.000 HD
ENDBRANCH   8  12
ENDBRANCH   1   4
BRANCH   1  19
ATOM     17  C   UNL     1      49.756   6.295  16.390  0.00  0.00    +0.000 A 
ATOM     18  C   UNL     1      48.710   6.754  15.576  0.00  0.00    +0.000 A 
ATOM     19  C   UNL     1      48.948   7.632  14.503  0.00  0.00    +0.000 A 
ATOM     20  C   UNL     1      50.263   8.108  14.328  0.00  0.00    +0.000 A 
ATOM     21  C   UNL     1      51.318   7.651  15.115  0.00  0.00    +0.000 A 
ATOM     22  C   UNL     1      51.062   6.727  16.121  0.00  0.00    +0.000 A 
BRANCH  17  24
ATOM     23  C   UNL     1      48.810   5.800  18.524  0.00  0.00    +0.000 C 
ATOM     24  O   UNL     1      49.620   5.410  17.426  0.00  0.00    +0.000 OA
ENDBRANCH  17  24
BRANCH  22  25
ATOM     25  O   UNL     1      52.106   6.210  16.843  0.00  0.00    +0.000 OA
ATOM     26  H   UNL     1      51.890   5.299  17.094  0.00  0.00    +0.000 HD
ENDBRANCH  22  25
ENDBRANCH   1  19
TORSDOF 5
ENDMDL
MODEL 8
REMARK VINA RESULT:    -5.265      3.951      6.460
REMARK INTER + INTRA:          -7.305
REMARK INTER:                  -6.782
REMARK INTRA:                  -0.523
REMARK UNBOUND:                -0.655
REMARK  Name = 
REMARK  6 active torsions:
REMARK  status: ('A' for Active; 'I' for Inactive)
REMARK    1  A    between atoms: C_1  and  O_2
REMARK    2  A    between atoms: O_2  and  C_3
REMARK    3  A    between atoms: C_5  and  C_6
REMARK    4  A    between atoms: C_6  and  N_7
REMARK    5  A    between atoms: C_11  and  C_12
REMARK    6  A    between atoms: C_21  and  O_22
REMARK                            x       y       z     vdW  Elec       q    Type
REMARK                         _______ _______ _______ _____ _____    ______ ____
ROOT
ATOM      1  C   UNL     1      47.887   4.420  16.668  0.00  0.00    +0.000 C 
ATOM      2  C   UNL     1      47.123   3.264  17.279  0.00  0.00    +0.000 C 
ATOM      3  C   UNL     1      48.545   3.063  16.900  0.00  0.00    +0.000 C 
ENDROOT
BRANCH   1   4
ATOM      4  N   UNL     1      48.040   4.782  15.256  0.00  0.00    +0.000 N 
ATOM      5  C   UNL     1      47.005   4.977  14.345  0.00  0.00    +0.000 A 
ATOM      6  N   UNL     1      47.246   6.005  13.509  0.00  0.00    +0.000 NA
ATOM      7  C   UNL     1      46.458   6.126  12.420  0.00  0.00    +0.000 A 
ATOM      8  C   UNL     1      45.453   5.234  12.127  0.00  0.00    +0.000 A 
ATOM      9  C   UNL     1      45.239   4.263  13.076  0.00  0.00    +0.000 A 
ATOM     10  N   UNL     1      45.995   4.112  14.196  0.00  0.00    +0.000 NA
ATOM     11  H   UNL     1      48.616   5.611  15.113  0.00  0.00    +0.000 HD
BRANCH   8  12
ATOM     12  C   UNL     1      44.733   5.363  10.847  0.00  0.00    +0.000 C 
ATOM     13  N   UNL     1      45.489   5.565   9.722  0.00  0.00    +0.000 N 
ATOM     14  O   UNL     1      43.518   5.352  10.801  0.00  0.00    +0.000 OA
ATOM     15  H   UNL     1      46.463   5.847   9.751  0.00  0.00    +0.000 HD
ATOM     16  H   UNL     1      44.969   5.824   8.891  0.00  0.00    +0.000 HD
ENDBRANCH   8  12
ENDBRANCH   1   4
BRANCH   1  19
ATOM     17  C   UNL     1      48.675   7.976  17.939  0.00  0.00    +0.000 A 
ATOM     18  C   UNL     1      48.733   6.800  17.176  0.00  0.00    +0.000 A 
ATOM     19  C   UNL     1      48.063   5.631  17.579  0.00  0.00    +0.000 A 
ATOM     20  C   UNL     1      47.404   5.652  18.825  0.00  0.00    +0.000 A 
ATOM     21  C   UNL     1      47.320   6.815  19.588  0.00  0.00    +0.000 A 
ATOM     22  C   UNL     1      47.932   7.975  19.127  0.00  0.00    +0.000 A 
BRANCH  17  24
ATOM     23  C   UNL     1      48.752   9.853  16.468  0.00  0.00    +0.000 C 
ATOM     24  O   UNL     1      49.261   9.166  17.601  0.00  0.00    +0.000 OA
ENDBRANCH  17  24
BRANCH  22  25
ATOM     25  O   UNL     1      47.783   9.141  19.831  0.00  0.00    +0.000 OA
ATOM     26  H   UNL     1      47.644   8.924  20.766  0.00  0.00    +0.000 HD
ENDBRANCH  22  25
ENDBRANCH   1  19
TORSDOF 5
ENDMDL
