MODEL 1
REMARK VINA RESULT:    -7.608      0.000      0.000
REMARK INTER + INTRA:         -10.162
REMARK INTER:                 -10.055
REMARK INTRA:                  -0.108
REMARK UNBOUND:                -0.108
REMARK  Name = 
REMARK  6 active torsions:
REMARK  status: ('A' for Active; 'I' for Inactive)
REMARK    1  A    between atoms: N_1  and  C_2
REMARK    2  A    between atoms: N_5  and  C_6
REMARK    3  A    between atoms: C_6  and  C_7
REMARK    4  A    between atoms: C_10  and  C_11
REMARK    5  A    between atoms: C_11  and  N_12
REMARK    6  A    between atoms: C_13  and  C_15
REMARK                            x       y       z     vdW  Elec       q    Type
REMARK                         _______ _______ _______ _____ _____    ______ ____
ROOT
ATOM      1  C   UNL     1      47.153   3.498  16.986  0.00  0.00    +0.000 C 
ENDROOT
BRANCH   1   5
ATOM      2  C   UNL     1      51.427   2.983  17.621  0.00  0.00    +0.000 A 
ATOM      3  C   UNL     1      50.795   4.206  17.896  0.00  0.00    +0.000 A 
ATOM      4  C   UNL     1      49.419   4.373  17.700  0.00  0.00    +0.000 A 
ATOM      5  C   UNL     1      48.642   3.330  17.180  0.00  0.00    +0.000 A 
ATOM      6  C   UNL     1      49.284   2.137  16.823  0.00  0.00    +0.000 A 
ATOM      7  C   UNL     1      50.656   1.956  17.062  0.00  0.00    +0.000 A 
BRANCH   2   8
ATOM      8  C   UNL     1      52.911   2.817  17.903  0.00  0.00    +0.000 C 
BRANCH   8  12
ATOM      9  C   UNL     1      54.273   0.228  16.978  0.00  0.00    +0.000 C 
ATOM     10  C   UNL     1      55.415   0.759  17.838  0.00  0.00    +0.000 C 
ATOM     11  C   UNL     1      54.731   1.498  18.988  0.00  0.00    +0.000 C 
ATOM     12  N   UNL     1      53.297   1.617  18.674  0.00  0.00    +0.000 NA
ATOM     13  C   UNL     1      53.044   0.384  17.888  0.00  0.00    +0.000 C 
BRANCH   9  14
ATOM     14  N   UNL     1      54.529  -1.125  16.491  0.00  0.00    +0.000 NA
ATOM     15  H   UNL     1      55.529  -1.252  16.335  0.00  0.00    +0.000 HD
ATOM     16  H   UNL     1      54.076  -1.262  15.588  0.00  0.00    +0.000 HD
ENDBRANCH   9  14
ENDBRANCH   8  12
ENDBRANCH   2   8
ENDBRANCH   1   5
BRANCH   1  17
ATOM     17  N   UNL     1      46.856   4.449  15.943  0.00  0.00    +0.000 N 
ATOM     18  C   UNL     1      46.964   4.118  14.612  0.00  0.00    +0.000 C 
ATOM     19  O   UNL     1      47.292   2.996  14.239  0.00  0.00    +0.000 OA
ATOM     20  H   UNL     1      46.838   5.427  16.208  0.00  0.00    +0.000 HD
BRANCH  18  21
ATOM     21  C   UNL     1      46.599   5.171  13.654  0.00  0.00    +0.000 A 
ATOM     22  C   UNL     1      47.514   6.170  13.341  0.00  0.00    +0.000 A 
ATOM     23  S   UNL     1      46.937   7.290  12.189  0.00  0.00    +0.000 S 
ATOM     24  C   UNL     1      45.426   6.515  12.110  0.00  0.00    +0.000 A 
ATOM     25  N   UNL     1      44.428   7.001  11.322  0.00  0.00    +0.000 NA
ATOM     26  C   UNL     1      43.326   6.328  11.380  0.00  0.00    +0.000 A 
ATOM     27  N   UNL     1      43.136   5.210  12.147  0.00  0.00    +0.000 N 
ATOM     28  C   UNL     1      44.124   4.663  12.928  0.00  0.00    +0.000 A 
ATOM     29  O   UNL     1      43.939   3.622  13.553  0.00  0.00    +0.000 OA
ATOM     30  C   UNL     1      45.376   5.395  12.921  0.00  0.00    +0.000 A 
ATOM     31  H   UNL     1      42.253   4.717  12.134  0.00  0.00    +0.000 HD
ENDBRANCH  18  21
ENDBRANCH   1  17
TORSDOF 6
ENDMDL
MODEL 2
REMARK VINA RESULT:    -7.577      3.082      9.342
REMARK INTER + INTRA:         -10.121
REMARK INTER:                  -9.074
REMARK INTRA:                  -1.047
REMARK UNBOUND:                -0.108
REMARK  Name = 
REMARK  6 active torsions:
REMARK  status: ('A' for Active; 'I' for Inactive)
REMARK    1  A    between atoms: N_1  and  C_2
REMARK    2  A    between atoms: N_5  and  C_6
REMARK    3  A    between atoms: C_6  and  C_7
REMARK    4  A    between atoms: C_10  and  C_11
REMARK    5  A    between atoms: C_11  and  N_12
REMARK    6  A    between atoms: C_13  and  C_15
REMARK                            x       y       z     vdW  Elec       q    Type
REMARK                         _______ _______ _______ _____ _____    ______ ____
ROOT
ATOM      1  C   UNL     1      49.054   6.171  17.436  0.00  0.00    +0.000 C 
ENDROOT
BRANCH   1   5
ATOM      2  C   UNL     1      46.773   4.692  14.038  0.00  0.00    +0.000 A 
ATOM      3  C   UNL     1      46.843   3.965  15.237  0.00  0.00    +0.000 A 
ATOM      4  C   UNL     1      47.569   4.441  16.334  0.00  0.00    +0.000 A 
ATOM      5  C   UNL     1      48.285   5.641  16.247  0.00  0.00    +0.000 A 
ATOM      6  C   UNL     1      48.289   6.326  15.025  0.00  0.00    +0.000 A 
ATOM      7  C   UNL     1      47.524   5.870  13.940  0.00  0.00    +0.000 A 
BRANCH   2   8
ATOM      8  C   UNL     1      45.925   4.175  12.887  0.00  0.00    +0.000 C 
BRANCH   8  12
ATOM      9  C   UNL     1      43.553   5.550  11.510  0.00  0.00    +0.000 C 
ATOM     10  C   UNL     1      43.262   4.129  11.040  0.00  0.00    +0.000 C 
ATOM     11  C   UNL     1      43.722   3.232  12.189  0.00  0.00    +0.000 C 
ATOM     12  N   UNL     1      44.475   4.058  13.148  0.00  0.00    +0.000 NA
ATOM     13  C   UNL     1      43.810   5.378  13.017  0.00  0.00    +0.000 C 
BRANCH   9  14
ATOM     14  N   UNL     1      42.485   6.482  11.157  0.00  0.00    +0.000 NA
ATOM     15  H   UNL     1      41.584   6.094  11.436  0.00  0.00    +0.000 HD
ATOM     16  H   UNL     1      42.448   6.601  10.145  0.00  0.00    +0.000 HD
ENDBRANCH   9  14
ENDBRANCH   8  12
ENDBRANCH   2   8
ENDBRANCH   1   5
BRANCH   1  17
ATOM     17  N   UNL     1      50.072   5.244  17.866  0.00  0.00    +0.000 N 
ATOM     18  C   UNL     1      51.352   5.295  17.364  0.00  0.00    +0.000 C 
ATOM     19  O   UNL     1      51.705   6.140  16.547  0.00  0.00    +0.000 OA
ATOM     20  H   UNL     1      49.756   4.399  18.326  0.00  0.00    +0.000 HD
BRANCH  18  21
ATOM     21  C   UNL     1      52.299   4.314  17.913  0.00  0.00    +0.000 A 
ATOM     22  C   UNL     1      53.433   4.749  18.591  0.00  0.00    +0.000 A 
ATOM     23  S   UNL     1      54.404   3.479  19.187  0.00  0.00    +0.000 S 
ATOM     24  C   UNL     1      53.376   2.303  18.516  0.00  0.00    +0.000 A 
ATOM     25  N   UNL     1      53.659   0.976  18.628  0.00  0.00    +0.000 NA
ATOM     26  C   UNL     1      52.807   0.197  18.046  0.00  0.00    +0.000 A 
ATOM     27  N   UNL     1      51.694   0.625  17.373  0.00  0.00    +0.000 N 
ATOM     28  C   UNL     1      51.349   1.950  17.267  0.00  0.00    +0.000 A 
ATOM     29  O   UNL     1      50.309   2.294  16.711  0.00  0.00    +0.000 OA
ATOM     30  C   UNL     1      52.287   2.871  17.878  0.00  0.00    +0.000 A 
ATOM     31  H   UNL     1      51.056  -0.038  16.955  0.00  0.00    +0.000 HD
ENDBRANCH  18  21
ENDBRANCH   1  17
TORSDOF 6
ENDMDL
MODEL 3
REMARK VINA RESULT:    -7.473      1.818      2.218
REMARK INTER + INTRA:          -9.984
REMARK INTER:                  -9.274
REMARK INTRA:                  -0.709
REMARK UNBOUND:                -0.108
REMARK  Name = 
REMARK  6 active torsions:
REMARK  status: ('A' for Active; 'I' for Inactive)
REMARK    1  A    between atoms: N_1  and  C_2
REMARK    2  A    between atoms: N_5  and  C_6
REMARK    3  A    between atoms: C_6  and  C_7
REMARK    4  A    between atoms: C_10  and  C_11
REMARK    5  A    between atoms: C_11  and  N_12
REMARK    6  A    between atoms: C_13  and  C_15
REMARK                            x       y       z     vdW  Elec       q    Type
REMARK                         _______ _______ _______ _____ _____    ______ ____
ROOT
ATOM      1  C   UNL     1      47.246   3.558  16.749  0.00  0.00    +0.000 C 
ENDROOT
BRANCH   1   5
ATOM      2  C   UNL     1      51.479   4.201  17.524  0.00  0.00    +0.000 A 
ATOM      3  C   UNL     1      50.935   2.908  17.497  0.00  0.00    +0.000 A 
ATOM      4  C   UNL     1      49.575   2.697  17.241  0.00  0.00    +0.000 A 
ATOM      5  C   UNL     1      48.710   3.781  17.047  0.00  0.00    +0.000 A 
ATOM      6  C   UNL     1      49.231   5.076  17.160  0.00  0.00    +0.000 A 
ATOM      7  C   UNL     1      50.604   5.285  17.372  0.00  0.00    +0.000 A 
BRANCH   2   8
ATOM      8  C   UNL     1      52.970   4.392  17.745  0.00  0.00    +0.000 C 
BRANCH   8  12
ATOM      9  C   UNL     1      54.412   2.839  19.965  0.00  0.00    +0.000 C 
ATOM     10  C   UNL     1      55.528   3.831  19.656  0.00  0.00    +0.000 C 
ATOM     11  C   UNL     1      54.810   5.123  19.265  0.00  0.00    +0.000 C 
ATOM     12  N   UNL     1      53.378   4.824  19.099  0.00  0.00    +0.000 NA
ATOM     13  C   UNL     1      53.167   3.733  20.083  0.00  0.00    +0.000 C 
BRANCH   9  14
ATOM     14  N   UNL     1      54.709   2.015  21.133  0.00  0.00    +0.000 NA
ATOM     15  H   UNL     1      55.299   1.229  20.859  0.00  0.00    +0.000 HD
ATOM     16  H   UNL     1      53.849   1.615  21.506  0.00  0.00    +0.000 HD
ENDBRANCH   9  14
ENDBRANCH   8  12
ENDBRANCH   2   8
ENDBRANCH   1   5
BRANCH   1  17
ATOM     17  N   UNL     1      46.753   4.497  15.771  0.00  0.00    +0.000 N 
ATOM     18  C   UNL     1      46.756   4.207  14.426  0.00  0.00    +0.000 C 
ATOM     19  O   UNL     1      47.151   3.131  13.987  0.00  0.00    +0.000 OA
ATOM     20  H   UNL     1      46.669   5.462  16.066  0.00  0.00    +0.000 HD
BRANCH  18  21
ATOM     21  C   UNL     1      46.196   5.239  13.542  0.00  0.00    +0.000 A 
ATOM     22  C   UNL     1      46.915   6.402  13.292  0.00  0.00    +0.000 A 
ATOM     23  S   UNL     1      46.131   7.476  12.222  0.00  0.00    +0.000 S 
ATOM     24  C   UNL     1      44.779   6.452  12.097  0.00  0.00    +0.000 A 
ATOM     25  N   UNL     1      43.698   6.804  11.348  0.00  0.00    +0.000 NA
ATOM     26  C   UNL     1      42.733   5.945  11.366  0.00  0.00    +0.000 A 
ATOM     27  N   UNL     1      42.756   4.762  12.057  0.00  0.00    +0.000 N 
ATOM     28  C   UNL     1      43.838   4.350  12.795  0.00  0.00    +0.000 A 
ATOM     29  O   UNL     1      43.849   3.254  13.349  0.00  0.00    +0.000 OA
ATOM     30  C   UNL     1      44.941   5.290  12.832  0.00  0.00    +0.000 A 
ATOM     31  H   UNL     1      41.974   4.124  12.015  0.00  0.00    +0.000 HD
ENDBRANCH  18  21
ENDBRANCH   1  17
TORSDOF 6
ENDMDL
MODEL 4
REMARK VINA RESULT:    -7.278      2.916      8.941
REMARK INTER + INTRA:          -9.725
REMARK INTER:                  -8.820
REMARK INTRA:                  -0.906
REMARK UNBOUND:                -0.108
REMARK  Name = 
REMARK  6 active torsions:
REMARK  status: ('A' for Active; 'I' for Inactive)
REMARK    1  A    between atoms: N_1  and  C_2
REMARK    2  A    between atoms: N_5  and  C_6
REMARK    3  A    between atoms: C_6  and  C_7
REMARK    4  A    between atoms: C_10  and  C_11
REMARK    5  A    between atoms: C_11  and  N_12
REMARK    6  A    between atoms: C_13  and  C_15
REMARK                            x       y       z     vdW  Elec       q    Type
REMARK                         _______ _______ _______ _____ _____    ______ ____
ROOT
ATOM      1  C   UNL     1      48.685   7.935  15.490  0.00  0.00    +0.000 C 
ENDROOT
BRANCH   1   5
ATOM      2  C   UNL     1      46.384   6.367  12.146  0.00  0.00    +0.000 A 
ATOM      3  C   UNL     1      47.158   5.520  12.955  0.00  0.00    +0.000 A 
ATOM      4  C   UNL     1      47.893   6.020  14.036  0.00  0.00    +0.000 A 
ATOM      5  C   UNL     1      47.911   7.392  14.311  0.00  0.00    +0.000 A 
ATOM      6  C   UNL     1      47.210   8.252  13.455  0.00  0.00    +0.000 A 
ATOM      7  C   UNL     1      46.437   7.744  12.398  0.00  0.00    +0.000 A 
BRANCH   2   8
ATOM      8  C   UNL     1      45.550   5.783  11.018  0.00  0.00    +0.000 C 
BRANCH   8  12
ATOM      9  C   UNL     1      43.845   3.323  11.695  0.00  0.00    +0.000 C 
ATOM     10  C   UNL     1      43.703   4.040  13.034  0.00  0.00    +0.000 C 
ATOM     11  C   UNL     1      43.710   5.529  12.686  0.00  0.00    +0.000 C 
ATOM     12  N   UNL     1      44.098   5.672  11.273  0.00  0.00    +0.000 NA
ATOM     13  C   UNL     1      43.554   4.430  10.669  0.00  0.00    +0.000 C 
BRANCH   9  14
ATOM     14  N   UNL     1      42.992   2.141  11.606  0.00  0.00    +0.000 NA
ATOM     15  H   UNL     1      43.560   1.299  11.700  0.00  0.00    +0.000 HD
ATOM     16  H   UNL     1      42.557   2.094  10.685  0.00  0.00    +0.000 HD
ENDBRANCH   9  14
ENDBRANCH   8  12
ENDBRANCH   2   8
ENDBRANCH   1   5
BRANCH   1  17
ATOM     17  N   UNL     1      49.694   7.004  15.937  0.00  0.00    +0.000 N 
ATOM     18  C   UNL     1      49.636   6.421  17.182  0.00  0.00    +0.000 C 
ATOM     19  O   UNL     1      48.719   6.637  17.967  0.00  0.00    +0.000 OA
ATOM     20  H   UNL     1      50.572   7.007  15.434  0.00  0.00    +0.000 HD
BRANCH  18  21
ATOM     21  C   UNL     1      50.709   5.467  17.497  0.00  0.00    +0.000 A 
ATOM     22  C   UNL     1      51.942   5.932  17.939  0.00  0.00    +0.000 A 
ATOM     23  S   UNL     1      53.058   4.688  18.287  0.00  0.00    +0.000 S 
ATOM     24  C   UNL     1      51.955   3.487  17.808  0.00  0.00    +0.000 A 
ATOM     25  N   UNL     1      52.300   2.171  17.822  0.00  0.00    +0.000 NA
ATOM     26  C   UNL     1      51.374   1.372  17.406  0.00  0.00    +0.000 A 
ATOM     27  N   UNL     1      50.131   1.769  16.988  0.00  0.00    +0.000 N 
ATOM     28  C   UNL     1      49.727   3.081  16.992  0.00  0.00    +0.000 A 
ATOM     29  O   UNL     1      48.584   3.396  16.672  0.00  0.00    +0.000 OA
ATOM     30  C   UNL     1      50.739   4.026  17.424  0.00  0.00    +0.000 A 
ATOM     31  H   UNL     1      49.444   1.091  16.691  0.00  0.00    +0.000 HD
ENDBRANCH  18  21
ENDBRANCH   1  17
TORSDOF 6
ENDMDL
MODEL 5
REMARK VINA RESULT:    -7.149      4.470      5.714
REMARK INTER + INTRA:          -9.556
REMARK INTER:                  -8.805
REMARK INTRA:                  -0.750
REMARK UNBOUND:                -0.108
REMARK  Name = 
REMARK  6 active torsions:
REMARK  status: ('A' for Active; 'I' for Inactive)
REMARK    1  A    between atoms: N_1  and  C_2
REMARK    2  A    between atoms: N_5  and  C_6
REMARK    3  A    between atoms: C_6  and  C_7
REMARK    4  A    between atoms: C_10  and  C_11
REMARK    5  A    between atoms: C_11  and  N_12
REMARK    6  A    between atoms: C_13  and  C_15
REMARK                            x       y       z     vdW  Elec       q    Type
REMARK                         _______ _______ _______ _____ _____    ______ ____
ROOT
ATOM      1  C   UNL     1      48.162   8.065  12.310  0.00  0.00    +0.000 C 
ENDROOT
BRANCH   1   5
ATOM      2  C   UNL     1      48.740   7.556  16.593  0.00  0.00    +0.000 A 
ATOM      3  C   UNL     1      48.785   6.459  15.719  0.00  0.00    +0.000 A 
ATOM      4  C   UNL     1      48.607   6.620  14.341  0.00  0.00    +0.000 A 
ATOM      5  C   UNL     1      48.334   7.882  13.800  0.00  0.00    +0.000 A 
ATOM      6  C   UNL     1      48.202   8.966  14.677  0.00  0.00    +0.000 A 
ATOM      7  C   UNL     1      48.425   8.811  16.055  0.00  0.00    +0.000 A 
BRANCH   2   8
ATOM      8  C   UNL     1      48.998   7.355  18.077  0.00  0.00    +0.000 C 
BRANCH   8  12
ATOM      9  C   UNL     1      48.656   4.928  19.923  0.00  0.00    +0.000 C 
ATOM     10  C   UNL     1      48.614   6.007  21.000  0.00  0.00    +0.000 C 
ATOM     11  C   UNL     1      47.938   7.204  20.332  0.00  0.00    +0.000 C 
ATOM     12  N   UNL     1      47.836   6.932  18.888  0.00  0.00    +0.000 NA
ATOM     13  C   UNL     1      47.683   5.457  18.855  0.00  0.00    +0.000 C 
BRANCH   9  14
ATOM     14  N   UNL     1      48.348   3.602  20.453  0.00  0.00    +0.000 NA
ATOM     15  H   UNL     1      48.431   2.907  19.710  0.00  0.00    +0.000 HD
ATOM     16  H   UNL     1      47.381   3.570  20.772  0.00  0.00    +0.000 HD
ENDBRANCH   9  14
ENDBRANCH   8  12
ENDBRANCH   2   8
ENDBRANCH   1   5
BRANCH   1  17
ATOM     17  N   UNL     1      47.495   6.936  11.709  0.00  0.00    +0.000 N 
ATOM     18  C   UNL     1      46.139   6.940  11.475  0.00  0.00    +0.000 C 
ATOM     19  O   UNL     1      45.430   7.906  11.737  0.00  0.00    +0.000 OA
ATOM     20  H   UNL     1      47.989   6.053  11.723  0.00  0.00    +0.000 HD
BRANCH  18  21
ATOM     21  C   UNL     1      45.593   5.739  10.827  0.00  0.00    +0.000 A 
ATOM     22  C   UNL     1      45.782   5.541   9.464  0.00  0.00    +0.000 A 
ATOM     23  S   UNL     1      45.110   4.082   8.885  0.00  0.00    +0.000 S 
ATOM     24  C   UNL     1      44.495   3.690  10.421  0.00  0.00    +0.000 A 
ATOM     25  N   UNL     1      43.763   2.560  10.616  0.00  0.00    +0.000 NA
ATOM     26  C   UNL     1      43.336   2.403  11.826  0.00  0.00    +0.000 A 
ATOM     27  N   UNL     1      43.585   3.268  12.859  0.00  0.00    +0.000 N 
ATOM     28  C   UNL     1      44.349   4.400  12.716  0.00  0.00    +0.000 A 
ATOM     29  O   UNL     1      44.606   5.119  13.678  0.00  0.00    +0.000 OA
ATOM     30  C   UNL     1      44.831   4.640  11.370  0.00  0.00    +0.000 A 
ATOM     31  H   UNL     1      43.237   3.078  13.788  0.00  0.00    +0.000 HD
ENDBRANCH  18  21
ENDBRANCH   1  17
TORSDOF 6
ENDMDL
MODEL 6
REMARK VINA RESULT:    -7.048      1.851      2.542
REMARK INTER + INTRA:          -9.422
REMARK INTER:                  -8.655
REMARK INTRA:                  -0.767
REMARK UNBOUND:                -0.108
REMARK  Name = 
REMARK  6 active torsions:
REMARK  status: ('A' for Active; 'I' for Inactive)
REMARK    1  A    between atoms: N_1  and  C_2
REMARK    2  A    between atoms: N_5  and  C_6
REMARK    3  A    between atoms: C_6  and  C_7
REMARK    4  A    between atoms: C_10  and  C_11
REMARK    5  A    between atoms: C_11  and  N_12
REMARK    6  A    between atoms: C_13  and  C_15
REMARK                            x       y       z     vdW  Elec       q    Type
REMARK                         _______ _______ _______ _____ _____    ______ ____
ROOT
ATOM      1  C   UNL     1      47.215   3.303  16.880  0.00  0.00    +0.000 C 
ENDROOT
BRANCH   1   5
ATOM      2  C   UNL     1      51.379   3.643  18.098  0.00  0.00    +0.000 A 
ATOM      3  C   UNL     1      50.470   4.689  18.320  0.00  0.00    +0.000 A 
ATOM      4  C   UNL     1      49.129   4.580  17.936  0.00  0.00    +0.000 A 
ATOM      5  C   UNL     1      48.667   3.434  17.277  0.00  0.00    +0.000 A 
ATOM      6  C   UNL     1      49.589   2.424  16.976  0.00  0.00    +0.000 A 
ATOM      7  C   UNL     1      50.925   2.515  17.401  0.00  0.00    +0.000 A 
BRANCH   2   8
ATOM      8  C   UNL     1      52.814   3.769  18.582  0.00  0.00    +0.000 C 
BRANCH   8  12
ATOM      9  C   UNL     1      54.724   6.128  18.130  0.00  0.00    +0.000 C 
ATOM     10  C   UNL     1      55.775   5.087  18.504  0.00  0.00    +0.000 C 
ATOM     11  C   UNL     1      55.231   3.766  17.961  0.00  0.00    +0.000 C 
ATOM     12  N   UNL     1      53.838   3.978  17.536  0.00  0.00    +0.000 NA
ATOM     13  C   UNL     1      53.855   5.395  17.095  0.00  0.00    +0.000 C 
BRANCH   9  14
ATOM     14  N   UNL     1      55.321   7.381  17.676  0.00  0.00    +0.000 NA
ATOM     15  H   UNL     1      55.359   7.395  16.657  0.00  0.00    +0.000 HD
ATOM     16  H   UNL     1      56.285   7.446  18.002  0.00  0.00    +0.000 HD
ENDBRANCH   9  14
ENDBRANCH   8  12
ENDBRANCH   2   8
ENDBRANCH   1   5
BRANCH   1  17
ATOM     17  N   UNL     1      46.829   4.319  15.932  0.00  0.00    +0.000 N 
ATOM     18  C   UNL     1      46.922   4.112  14.575  0.00  0.00    +0.000 C 
ATOM     19  O   UNL     1      47.311   3.051  14.097  0.00  0.00    +0.000 OA
ATOM     20  H   UNL     1      46.756   5.266  16.282  0.00  0.00    +0.000 HD
BRANCH  18  21
ATOM     21  C   UNL     1      46.464   5.218  13.721  0.00  0.00    +0.000 A 
ATOM     22  C   UNL     1      47.255   6.351  13.572  0.00  0.00    +0.000 A 
ATOM     23  S   UNL     1      46.586   7.520  12.523  0.00  0.00    +0.000 S 
ATOM     24  C   UNL     1      45.191   6.580  12.275  0.00  0.00    +0.000 A 
ATOM     25  N   UNL     1      44.172   7.028  11.492  0.00  0.00    +0.000 NA
ATOM     26  C   UNL     1      43.164   6.224  11.414  0.00  0.00    +0.000 A 
ATOM     27  N   UNL     1      43.088   5.007  12.040  0.00  0.00    +0.000 N 
ATOM     28  C   UNL     1      44.106   4.499  12.808  0.00  0.00    +0.000 A 
ATOM     29  O   UNL     1      44.031   3.376  13.302  0.00  0.00    +0.000 OA
ATOM     30  C   UNL     1      45.253   5.374  12.952  0.00  0.00    +0.000 A 
ATOM     31  H   UNL     1      42.277   4.416  11.924  0.00  0.00    +0.000 HD
ENDBRANCH  18  21
ENDBRANCH   1  17
TORSDOF 6
ENDMDL
MODEL 7
REMARK VINA RESULT:    -6.940      4.574      5.929
REMARK INTER + INTRA:          -9.279
REMARK INTER:                  -8.477
REMARK INTRA:                  -0.802
REMARK UNBOUND:                -0.108
REMARK  Name = 
REMARK  6 active torsions:
REMARK  status: ('A' for Active; 'I' for Inactive)
REMARK    1  A    between atoms: N_1  and  C_2
REMARK    2  A    between atoms: N_5  and  C_6
REMARK    3  A    between atoms: C_6  and  C_7
REMARK    4  A    between atoms: C_10  and  C_11
REMARK    5  A    between atoms: C_11  and  N_12
REMARK    6  A    between atoms: C_13  and  C_15
REMARK                            x       y       z     vdW  Elec       q    Type
REMARK                         _______ _______ _______ _____ _____    ______ ____
ROOT
ATOM      1  C   UNL     1      47.272   7.733  12.183  0.00  0.00    +0.000 C 
ENDROOT
BRANCH   1   5
ATOM      2  C   UNL     1      48.823   7.722  16.249  0.00  0.00    +0.000 A 
ATOM      3  C   UNL     1      48.272   8.884  15.685  0.00  0.00    +0.000 A 
ATOM      4  C   UNL     1      47.766   8.889  14.380  0.00  0.00    +0.000 A 
ATOM      5  C   UNL     1      47.837   7.739  13.584  0.00  0.00    +0.000 A 
ATOM      6  C   UNL     1      48.463   6.603  14.112  0.00  0.00    +0.000 A 
ATOM      7  C   UNL     1      48.931   6.586  15.436  0.00  0.00    +0.000 A 
BRANCH   2   8
ATOM      8  C   UNL     1      49.308   7.735  17.688  0.00  0.00    +0.000 C 
BRANCH   8  12
ATOM      9  C   UNL     1      48.937   5.236  19.429  0.00  0.00    +0.000 C 
ATOM     10  C   UNL     1      49.326   6.201  20.544  0.00  0.00    +0.000 C 
ATOM     11  C   UNL     1      48.752   7.551  20.115  0.00  0.00    +0.000 C 
ATOM     12  N   UNL     1      48.293   7.436  18.721  0.00  0.00    +0.000 NA
ATOM     13  C   UNL     1      47.869   6.016  18.644  0.00  0.00    +0.000 C 
BRANCH   9  14
ATOM     14  N   UNL     1      48.515   3.936  19.943  0.00  0.00    +0.000 NA
ATOM     15  H   UNL     1      49.315   3.303  19.979  0.00  0.00    +0.000 HD
ATOM     16  H   UNL     1      47.840   3.512  19.307  0.00  0.00    +0.000 HD
ENDBRANCH   9  14
ENDBRANCH   8  12
ENDBRANCH   2   8
ENDBRANCH   1   5
BRANCH   1  17
ATOM     17  N   UNL     1      46.619   6.483  11.878  0.00  0.00    +0.000 N 
ATOM     18  C   UNL     1      45.254   6.399  11.729  0.00  0.00    +0.000 C 
ATOM     19  O   UNL     1      44.522   7.379  11.820  0.00  0.00    +0.000 OA
ATOM     20  H   UNL     1      47.149   5.637  12.051  0.00  0.00    +0.000 HD
BRANCH  18  21
ATOM     21  C   UNL     1      44.724   5.071  11.386  0.00  0.00    +0.000 A 
ATOM     22  C   UNL     1      43.941   4.380  12.305  0.00  0.00    +0.000 A 
ATOM     23  S   UNL     1      43.385   2.872  11.731  0.00  0.00    +0.000 S 
ATOM     24  C   UNL     1      44.214   3.062  10.259  0.00  0.00    +0.000 A 
ATOM     25  N   UNL     1      44.189   2.089   9.308  0.00  0.00    +0.000 NA
ATOM     26  C   UNL     1      44.885   2.356   8.253  0.00  0.00    +0.000 A 
ATOM     27  N   UNL     1      45.594   3.511   8.058  0.00  0.00    +0.000 N 
ATOM     28  C   UNL     1      45.617   4.535   8.973  0.00  0.00    +0.000 A 
ATOM     29  O   UNL     1      46.211   5.585   8.738  0.00  0.00    +0.000 OA
ATOM     30  C   UNL     1      44.874   4.277  10.191  0.00  0.00    +0.000 A 
ATOM     31  H   UNL     1      46.104   3.667   7.200  0.00  0.00    +0.000 HD
ENDBRANCH  18  21
ENDBRANCH   1  17
TORSDOF 6
ENDMDL
MODEL 8
REMARK VINA RESULT:    -6.830      4.341      9.071
REMARK INTER + INTRA:          -9.134
REMARK INTER:                  -8.175
REMARK INTRA:                  -0.959
REMARK UNBOUND:                -0.108
REMARK  Name = 
REMARK  6 active torsions:
REMARK  status: ('A' for Active; 'I' for Inactive)
REMARK    1  A    between atoms: N_1  and  C_2
REMARK    2  A    between atoms: N_5  and  C_6
REMARK    3  A    between atoms: C_6  and  C_7
REMARK    4  A    between atoms: C_10  and  C_11
REMARK    5  A    between atoms: C_11  and  N_12
REMARK    6  A    between atoms: C_13  and  C_15
REMARK                            x       y       z     vdW  Elec       q    Type
REMARK                         _______ _______ _______ _____ _____    ______ ____
ROOT
ATOM      1  C   UNL     1      48.241   9.116  14.778  0.00  0.00    +0.000 C 
ENDROOT
BRANCH   1   5
ATOM      2  C   UNL     1      46.044   6.723  11.883  0.00  0.00    +0.000 A 
ATOM      3  C   UNL     1      47.184   6.217  12.526  0.00  0.00    +0.000 A 
ATOM      4  C   UNL     1      47.889   6.981  13.463  0.00  0.00    +0.000 A 
ATOM      5  C   UNL     1      47.497   8.294  13.751  0.00  0.00    +0.000 A 
ATOM      6  C   UNL     1      46.412   8.834  13.048  0.00  0.00    +0.000 A 
ATOM      7  C   UNL     1      45.679   8.051  12.141  0.00  0.00    +0.000 A 
BRANCH   2   8
ATOM      8  C   UNL     1      45.267   5.845  10.916  0.00  0.00    +0.000 C 
BRANCH   8  12
ATOM      9  C   UNL     1      43.760   3.293  11.712  0.00  0.00    +0.000 C 
ATOM     10  C   UNL     1      43.617   4.032  13.038  0.00  0.00    +0.000 C 
ATOM     11  C   UNL     1      43.509   5.509  12.657  0.00  0.00    +0.000 C 
ATOM     12  N   UNL     1      43.836   5.642  11.227  0.00  0.00    +0.000 NA
ATOM     13  C   UNL     1      43.357   4.352  10.672  0.00  0.00    +0.000 C 
BRANCH   9  14
ATOM     14  N   UNL     1      42.988   2.054  11.681  0.00  0.00    +0.000 NA
ATOM     15  H   UNL     1      43.525   1.303  12.115  0.00  0.00    +0.000 HD
ATOM     16  H   UNL     1      42.822   1.770  10.716  0.00  0.00    +0.000 HD
ENDBRANCH   9  14
ENDBRANCH   8  12
ENDBRANCH   2   8
ENDBRANCH   1   5
BRANCH   1  17
ATOM     17  N   UNL     1      48.290   8.451  16.057  0.00  0.00    +0.000 N 
ATOM     18  C   UNL     1      49.407   8.507  16.857  0.00  0.00    +0.000 C 
ATOM     19  O   UNL     1      50.410   9.142  16.543  0.00  0.00    +0.000 OA
ATOM     20  H   UNL     1      47.602   7.726  16.221  0.00  0.00    +0.000 HD
BRANCH  18  21
ATOM     21  C   UNL     1      49.311   7.813  18.150  0.00  0.00    +0.000 A 
ATOM     22  C   UNL     1      49.471   8.526  19.332  0.00  0.00    +0.000 A 
ATOM     23  S   UNL     1      49.296   7.570  20.736  0.00  0.00    +0.000 S 
ATOM     24  C   UNL     1      49.056   6.161  19.815  0.00  0.00    +0.000 A 
ATOM     25  N   UNL     1      48.881   4.952  20.415  0.00  0.00    +0.000 NA
ATOM     26  C   UNL     1      48.738   3.965  19.593  0.00  0.00    +0.000 A 
ATOM     27  N   UNL     1      48.742   4.079  18.228  0.00  0.00    +0.000 N 
ATOM     28  C   UNL     1      48.877   5.283  17.582  0.00  0.00    +0.000 A 
ATOM     29  O   UNL     1      48.812   5.358  16.357  0.00  0.00    +0.000 OA
ATOM     30  C   UNL     1      49.070   6.423  18.456  0.00  0.00    +0.000 A 
ATOM     31  H   UNL     1      48.606   3.269  17.641  0.00  0.00    +0.000 HD
ENDBRANCH  18  21
ENDBRANCH   1  17
TORSDOF 6
ENDMDL
MODEL 9
REMARK VINA RESULT:    -6.751      6.632      7.577
REMARK INTER + INTRA:          -9.029
REMARK INTER:                  -8.287
REMARK INTRA:                  -0.742
REMARK UNBOUND:                -0.108
REMARK  Name = 
REMARK  6 active torsions:
REMARK  status: ('A' for Active; 'I' for Inactive)
REMARK    1  A    between atoms: N_1  and  C_2
REMARK    2  A    between atoms: N_5  and  C_6
REMARK    3  A    between atoms: C_6  and  C_7
REMARK    4  A    between atoms: C_10  and  C_11
REMARK    5  A    between atoms: C_11  and  N_12
REMARK    6  A    between atoms: C_13  and  C_15
REMARK                            x       y       z     vdW  Elec       q    Type
REMARK                         _______ _______ _______ _____ _____    ______ ____
ROOT
ATOM      1  C   UNL     1      46.223   8.087  12.909  0.00  0.00    +0.000 C 
ENDROOT
BRANCH   1   5
ATOM      2  C   UNL     1      50.220   8.913  11.401  0.00  0.00    +0.000 A 
ATOM      3  C   UNL     1      49.831   7.610  11.749  0.00  0.00    +0.000 A 
ATOM      4  C   UNL     1      48.544   7.340  12.228  0.00  0.00    +0.000 A 
ATOM      5  C   UNL     1      47.621   8.376  12.414  0.00  0.00    +0.000 A 
ATOM      6  C   UNL     1      48.033   9.689  12.150  0.00  0.00    +0.000 A 
ATOM      7  C   UNL     1      49.309   9.954  11.628  0.00  0.00    +0.000 A 
BRANCH   2   8
ATOM      8  C   UNL     1      51.605   9.163  10.828  0.00  0.00    +0.000 C 
BRANCH   8  12
ATOM      9  C   UNL     1      53.645   8.166   8.763  0.00  0.00    +0.000 C 
ATOM     10  C   UNL     1      54.641   8.649   9.812  0.00  0.00    +0.000 C 
ATOM     11  C   UNL     1      53.956   8.390  11.154  0.00  0.00    +0.000 C 
ATOM     12  N   UNL     1      52.552   8.029  10.896  0.00  0.00    +0.000 NA
ATOM     13  C   UNL     1      52.640   7.340   9.584  0.00  0.00    +0.000 C 
BRANCH   9  14
ATOM     14  N   UNL     1      54.295   7.455   7.666  0.00  0.00    +0.000 NA
ATOM     15  H   UNL     1      54.028   7.876   6.776  0.00  0.00    +0.000 HD
ATOM     16  H   UNL     1      53.973   6.488   7.637  0.00  0.00    +0.000 HD
ENDBRANCH   9  14
ENDBRANCH   8  12
ENDBRANCH   2   8
ENDBRANCH   1   5
BRANCH   1  17
ATOM     17  N   UNL     1      45.800   6.753  12.558  0.00  0.00    +0.000 N 
ATOM     18  C   UNL     1      44.708   6.530  11.752  0.00  0.00    +0.000 C 
ATOM     19  O   UNL     1      44.051   7.447  11.268  0.00  0.00    +0.000 OA
ATOM     20  H   UNL     1      46.150   5.997  13.134  0.00  0.00    +0.000 HD
BRANCH  18  21
ATOM     21  C   UNL     1      44.408   5.124  11.446  0.00  0.00    +0.000 A 
ATOM     22  C   UNL     1      43.657   4.367  12.338  0.00  0.00    +0.000 A 
ATOM     23  S   UNL     1      43.378   2.767  11.811  0.00  0.00    +0.000 S 
ATOM     24  C   UNL     1      44.294   3.012  10.400  0.00  0.00    +0.000 A 
ATOM     25  N   UNL     1      44.494   2.004   9.508  0.00  0.00    +0.000 NA
ATOM     26  C   UNL     1      45.232   2.323   8.497  0.00  0.00    +0.000 A 
ATOM     27  N   UNL     1      45.780   3.562   8.293  0.00  0.00    +0.000 N 
ATOM     28  C   UNL     1      45.575   4.618   9.146  0.00  0.00    +0.000 A 
ATOM     29  O   UNL     1      46.028   5.733   8.898  0.00  0.00    +0.000 OA
ATOM     30  C   UNL     1      44.775   4.307  10.314  0.00  0.00    +0.000 A 
ATOM     31  H   UNL     1      46.335   3.753   7.470  0.00  0.00    +0.000 HD
ENDBRANCH  18  21
ENDBRANCH   1  17
TORSDOF 6
ENDMDL
