MODEL 1
REMARK VINA RESULT:    -8.657      0.000      0.000
REMARK INTER + INTRA:         -12.465
REMARK INTER:                 -11.694
REMARK INTRA:                  -0.771
REMARK UNBOUND:                -0.771
REMARK  Name = 
REMARK  6 active torsions:
REMARK  status: ('A' for Active; 'I' for Inactive)
REMARK    1  A    between atoms: C_2  and  C_3
REMARK    2  A    between atoms: C_6  and  C_7
REMARK    3  A    between atoms: C_7  and  N_8
REMARK    4  A    between atoms: C_11  and  C_12
REMARK    5  A    between atoms: C_12  and  N_13
REMARK    6  A    between atoms: C_14  and  C_16
REMARK                            x       y       z     vdW  Elec       q    Type
REMARK                         _______ _______ _______ _____ _____    ______ ____
ROOT
ATOM      1  C   UNL     1      46.879   8.007  13.280  0.00  0.00    +0.000 C 
ENDROOT
BRANCH   1   5
ATOM      2  N   UNL     1      44.427   5.306  11.109  0.00  0.00    +0.000 N 
ATOM      3  C   UNL     1      44.072   6.639  11.107  0.00  0.00    +0.000 C 
ATOM      4  C   UNL     1      44.913   7.550  11.830  0.00  0.00    +0.000 C 
ATOM      5  C   UNL     1      45.980   7.074  12.504  0.00  0.00    +0.000 C 
ATOM      6  N   UNL     1      46.304   5.723  12.556  0.00  0.00    +0.000 NA
ATOM      7  C   UNL     1      45.528   4.941  11.869  0.00  0.00    +0.000 C 
BRANCH   2   8
ATOM      8  C   UNL     1      43.777   4.334  10.233  0.00  0.00    +0.000 C 
BRANCH   8  12
ATOM      9  C   UNL     1      46.547   2.531   7.528  0.00  0.00    +0.000 A 
ATOM     10  C   UNL     1      45.878   1.685   8.401  0.00  0.00    +0.000 A 
ATOM     11  C   UNL     1      44.958   2.243   9.291  0.00  0.00    +0.000 A 
ATOM     12  C   UNL     1      44.734   3.625   9.296  0.00  0.00    +0.000 A 
ATOM     13  C   UNL     1      45.454   4.380   8.374  0.00  0.00    +0.000 A 
ATOM     14  N   UNL     1      46.349   3.870   7.495  0.00  0.00    +0.000 NA
BRANCH   9  16
ATOM     15  N   UNL     1      48.307   1.626   5.843  0.00  0.00    +0.000 NA
ATOM     16  C   UNL     1      47.507   2.009   6.596  0.00  0.00    +0.000 C 
ENDBRANCH   9  16
ENDBRANCH   8  12
ENDBRANCH   2   8
ENDBRANCH   1   5
BRANCH   1  17
ATOM     17  N   UNL     1      47.385   7.322  14.447  0.00  0.00    +0.000 N 
ATOM     18  C   UNL     1      48.645   6.790  14.502  0.00  0.00    +0.000 C 
ATOM     19  O   UNL     1      49.428   6.855  13.558  0.00  0.00    +0.000 OA
ATOM     20  H   UNL     1      46.683   7.037  15.123  0.00  0.00    +0.000 HD
BRANCH  18  21
ATOM     21  C   UNL     1      49.051   6.210  15.791  0.00  0.00    +0.000 A 
ATOM     22  C   UNL     1      50.111   6.766  16.493  0.00  0.00    +0.000 A 
ATOM     23  S   UNL     1      50.393   6.029  18.005  0.00  0.00    +0.000 S 
ATOM     24  C   UNL     1      49.140   4.906  17.753  0.00  0.00    +0.000 A 
ATOM     25  N   UNL     1      48.851   3.958  18.684  0.00  0.00    +0.000 NA
ATOM     26  C   UNL     1      47.900   3.152  18.349  0.00  0.00    +0.000 A 
ATOM     27  N   UNL     1      47.212   3.207  17.165  0.00  0.00    +0.000 N 
ATOM     28  C   UNL     1      47.448   4.166  16.208  0.00  0.00    +0.000 A 
ATOM     29  O   UNL     1      46.784   4.210  15.180  0.00  0.00    +0.000 OA
ATOM     30  C   UNL     1      48.512   5.095  16.534  0.00  0.00    +0.000 A 
ATOM     31  H   UNL     1      46.473   2.551  16.961  0.00  0.00    +0.000 HD
ENDBRANCH  18  21
ENDBRANCH   1  17
TORSDOF 6
ENDMDL
MODEL 2
REMARK VINA RESULT:    -8.110      2.155      3.745
REMARK INTER + INTRA:         -11.726
REMARK INTER:                 -10.864
REMARK INTRA:                  -0.862
REMARK UNBOUND:                -0.771
REMARK  Name = 
REMARK  6 active torsions:
REMARK  status: ('A' for Active; 'I' for Inactive)
REMARK    1  A    between atoms: C_2  and  C_3
REMARK    2  A    between atoms: C_6  and  C_7
REMARK    3  A    between atoms: C_7  and  N_8
REMARK    4  A    between atoms: C_11  and  C_12
REMARK    5  A    between atoms: C_12  and  N_13
REMARK    6  A    between atoms: C_14  and  C_16
REMARK                            x       y       z     vdW  Elec       q    Type
REMARK                         _______ _______ _______ _____ _____    ______ ____
ROOT
ATOM      1  C   UNL     1      47.103   4.731  15.023  0.00  0.00    +0.000 C 
ENDROOT
BRANCH   1   5
ATOM      2  N   UNL     1      44.662   4.271  11.580  0.00  0.00    +0.000 N 
ATOM      3  C   UNL     1      44.831   5.546  12.082  0.00  0.00    +0.000 C 
ATOM      4  C   UNL     1      45.671   5.697  13.237  0.00  0.00    +0.000 C 
ATOM      5  C   UNL     1      46.223   4.603  13.803  0.00  0.00    +0.000 C 
ATOM      6  N   UNL     1      46.003   3.314  13.334  0.00  0.00    +0.000 NA
ATOM      7  C   UNL     1      45.258   3.229  12.274  0.00  0.00    +0.000 C 
BRANCH   2   8
ATOM      8  C   UNL     1      44.017   4.030  10.291  0.00  0.00    +0.000 C 
BRANCH   8  12
ATOM      9  C   UNL     1      46.704   2.599   7.296  0.00  0.00    +0.000 A 
ATOM     10  C   UNL     1      46.109   1.650   8.114  0.00  0.00    +0.000 A 
ATOM     11  C   UNL     1      45.218   2.085   9.096  0.00  0.00    +0.000 A 
ATOM     12  C   UNL     1      44.948   3.451   9.245  0.00  0.00    +0.000 A 
ATOM     13  C   UNL     1      45.595   4.317   8.368  0.00  0.00    +0.000 A 
ATOM     14  N   UNL     1      46.460   3.927   7.402  0.00  0.00    +0.000 NA
BRANCH   9  16
ATOM     15  N   UNL     1      48.349   1.875   5.418  0.00  0.00    +0.000 NA
ATOM     16  C   UNL     1      47.632   2.206   6.273  0.00  0.00    +0.000 C 
ENDBRANCH   9  16
ENDBRANCH   8  12
ENDBRANCH   2   8
ENDBRANCH   1   5
BRANCH   1  17
ATOM     17  N   UNL     1      47.796   5.998  14.982  0.00  0.00    +0.000 N 
ATOM     18  C   UNL     1      48.918   6.251  15.724  0.00  0.00    +0.000 C 
ATOM     19  O   UNL     1      49.406   5.417  16.482  0.00  0.00    +0.000 OA
ATOM     20  H   UNL     1      47.274   6.766  14.571  0.00  0.00    +0.000 HD
BRANCH  18  21
ATOM     21  C   UNL     1      49.567   7.551  15.500  0.00  0.00    +0.000 A 
ATOM     22  C   UNL     1      49.941   8.330  16.585  0.00  0.00    +0.000 A 
ATOM     23  S   UNL     1      50.758   9.763  16.151  0.00  0.00    +0.000 S 
ATOM     24  C   UNL     1      50.594   9.419  14.493  0.00  0.00    +0.000 A 
ATOM     25  N   UNL     1      51.080  10.269  13.550  0.00  0.00    +0.000 NA
ATOM     26  C   UNL     1      50.858   9.901  12.332  0.00  0.00    +0.000 A 
ATOM     27  N   UNL     1      50.192   8.758  11.973  0.00  0.00    +0.000 N 
ATOM     28  C   UNL     1      49.712   7.854  12.890  0.00  0.00    +0.000 A 
ATOM     29  O   UNL     1      49.158   6.822  12.530  0.00  0.00    +0.000 OA
ATOM     30  C   UNL     1      49.931   8.224  14.275  0.00  0.00    +0.000 A 
ATOM     31  H   UNL     1      50.054   8.520  11.002  0.00  0.00    +0.000 HD
ENDBRANCH  18  21
ENDBRANCH   1  17
TORSDOF 6
ENDMDL
MODEL 3
REMARK VINA RESULT:    -7.488      1.595      2.409
REMARK INTER + INTRA:         -10.886
REMARK INTER:                 -10.165
REMARK INTRA:                  -0.721
REMARK UNBOUND:                -0.771
REMARK  Name = 
REMARK  6 active torsions:
REMARK  status: ('A' for Active; 'I' for Inactive)
REMARK    1  A    between atoms: C_2  and  C_3
REMARK    2  A    between atoms: C_6  and  C_7
REMARK    3  A    between atoms: C_7  and  N_8
REMARK    4  A    between atoms: C_11  and  C_12
REMARK    5  A    between atoms: C_12  and  N_13
REMARK    6  A    between atoms: C_14  and  C_16
REMARK                            x       y       z     vdW  Elec       q    Type
REMARK                         _______ _______ _______ _____ _____    ______ ____
ROOT
ATOM      1  C   UNL     1      47.215   8.036  13.283  0.00  0.00    +0.000 C 
ENDROOT
BRANCH   1   5
ATOM      2  N   UNL     1      44.622   5.423  11.170  0.00  0.00    +0.000 N 
ATOM      3  C   UNL     1      44.384   6.779  11.074  0.00  0.00    +0.000 C 
ATOM      4  C   UNL     1      45.274   7.659  11.778  0.00  0.00    +0.000 C 
ATOM      5  C   UNL     1      46.269   7.136  12.525  0.00  0.00    +0.000 C 
ATOM      6  N   UNL     1      46.471   5.769  12.670  0.00  0.00    +0.000 NA
ATOM      7  C   UNL     1      45.657   5.014  11.996  0.00  0.00    +0.000 C 
BRANCH   2   8
ATOM      8  C   UNL     1      43.923   4.457  10.324  0.00  0.00    +0.000 C 
BRANCH   8  12
ATOM      9  C   UNL     1      46.567   2.578   7.546  0.00  0.00    +0.000 A 
ATOM     10  C   UNL     1      45.893   1.750   8.433  0.00  0.00    +0.000 A 
ATOM     11  C   UNL     1      45.014   2.333   9.347  0.00  0.00    +0.000 A 
ATOM     12  C   UNL     1      44.834   3.722   9.361  0.00  0.00    +0.000 A 
ATOM     13  C   UNL     1      45.555   4.458   8.425  0.00  0.00    +0.000 A 
ATOM     14  N   UNL     1      46.411   3.923   7.522  0.00  0.00    +0.000 NA
BRANCH   9  16
ATOM     15  N   UNL     1      48.204   1.598   5.780  0.00  0.00    +0.000 NA
ATOM     16  C   UNL     1      47.487   2.030   6.589  0.00  0.00    +0.000 C 
ENDBRANCH   9  16
ENDBRANCH   8  12
ENDBRANCH   2   8
ENDBRANCH   1   5
BRANCH   1  17
ATOM     17  N   UNL     1      47.521   7.438  14.562  0.00  0.00    +0.000 N 
ATOM     18  C   UNL     1      48.748   6.904  14.853  0.00  0.00    +0.000 C 
ATOM     19  O   UNL     1      49.669   6.893  14.041  0.00  0.00    +0.000 OA
ATOM     20  H   UNL     1      46.718   7.210  15.139  0.00  0.00    +0.000 HD
BRANCH  18  21
ATOM     21  C   UNL     1      48.937   6.421  16.229  0.00  0.00    +0.000 A 
ATOM     22  C   UNL     1      48.426   5.187  16.602  0.00  0.00    +0.000 A 
ATOM     23  S   UNL     1      48.810   4.741  18.203  0.00  0.00    +0.000 S 
ATOM     24  C   UNL     1      49.631   6.208  18.472  0.00  0.00    +0.000 A 
ATOM     25  N   UNL     1      50.204   6.479  19.674  0.00  0.00    +0.000 NA
ATOM     26  C   UNL     1      50.764   7.640  19.750  0.00  0.00    +0.000 A 
ATOM     27  N   UNL     1      50.801   8.555  18.731  0.00  0.00    +0.000 N 
ATOM     28  C   UNL     1      50.263   8.312  17.490  0.00  0.00    +0.000 A 
ATOM     29  O   UNL     1      50.352   9.139  16.590  0.00  0.00    +0.000 OA
ATOM     30  C   UNL     1      49.616   7.023  17.353  0.00  0.00    +0.000 A 
ATOM     31  H   UNL     1      51.260   9.447  18.848  0.00  0.00    +0.000 HD
ENDBRANCH  18  21
ENDBRANCH   1  17
TORSDOF 6
ENDMDL
MODEL 4
REMARK VINA RESULT:    -7.349      2.366      3.265
REMARK INTER + INTRA:         -10.698
REMARK INTER:                 -10.002
REMARK INTRA:                  -0.696
REMARK UNBOUND:                -0.771
REMARK  Name = 
REMARK  6 active torsions:
REMARK  status: ('A' for Active; 'I' for Inactive)
REMARK    1  A    between atoms: C_2  and  C_3
REMARK    2  A    between atoms: C_6  and  C_7
REMARK    3  A    between atoms: C_7  and  N_8
REMARK    4  A    between atoms: C_11  and  C_12
REMARK    5  A    between atoms: C_12  and  N_13
REMARK    6  A    between atoms: C_14  and  C_16
REMARK                            x       y       z     vdW  Elec       q    Type
REMARK                         _______ _______ _______ _____ _____    ______ ____
ROOT
ATOM      1  C   UNL     1      46.953   4.668  15.177  0.00  0.00    +0.000 C 
ENDROOT
BRANCH   1   5
ATOM      2  N   UNL     1      44.880   4.841  11.476  0.00  0.00    +0.000 N 
ATOM      3  C   UNL     1      45.888   5.760  11.691  0.00  0.00    +0.000 C 
ATOM      4  C   UNL     1      46.596   5.686  12.938  0.00  0.00    +0.000 C 
ATOM      5  C   UNL     1      46.232   4.764  13.853  0.00  0.00    +0.000 C 
ATOM      6  N   UNL     1      45.178   3.879  13.661  0.00  0.00    +0.000 NA
ATOM      7  C   UNL     1      44.584   3.966  12.510  0.00  0.00    +0.000 C 
BRANCH   2   8
ATOM      8  C   UNL     1      44.250   4.682  10.167  0.00  0.00    +0.000 C 
BRANCH   8  12
ATOM      9  C   UNL     1      46.738   2.725   7.301  0.00  0.00    +0.000 A 
ATOM     10  C   UNL     1      46.026   1.915   8.173  0.00  0.00    +0.000 A 
ATOM     11  C   UNL     1      45.195   2.524   9.115  0.00  0.00    +0.000 A 
ATOM     12  C   UNL     1      45.102   3.920   9.171  0.00  0.00    +0.000 A 
ATOM     13  C   UNL     1      45.856   4.637   8.246  0.00  0.00    +0.000 A 
ATOM     14  N   UNL     1      46.666   4.077   7.316  0.00  0.00    +0.000 NA
BRANCH   9  16
ATOM     15  N   UNL     1      48.334   1.655   5.550  0.00  0.00    +0.000 NA
ATOM     16  C   UNL     1      47.611   2.149   6.316  0.00  0.00    +0.000 C 
ENDBRANCH   9  16
ENDBRANCH   8  12
ENDBRANCH   2   8
ENDBRANCH   1   5
BRANCH   1  17
ATOM     17  N   UNL     1      47.958   5.703  15.248  0.00  0.00    +0.000 N 
ATOM     18  C   UNL     1      48.608   6.022  16.410  0.00  0.00    +0.000 C 
ATOM     19  O   UNL     1      48.374   5.452  17.472  0.00  0.00    +0.000 OA
ATOM     20  H   UNL     1      47.979   6.344  14.461  0.00  0.00    +0.000 HD
BRANCH  18  21
ATOM     21  C   UNL     1      49.675   7.029  16.303  0.00  0.00    +0.000 A 
ATOM     22  C   UNL     1      49.361   8.327  15.929  0.00  0.00    +0.000 A 
ATOM     23  S   UNL     1      50.699   9.386  15.940  0.00  0.00    +0.000 S 
ATOM     24  C   UNL     1      51.756   8.132  16.396  0.00  0.00    +0.000 A 
ATOM     25  N   UNL     1      53.084   8.365  16.572  0.00  0.00    +0.000 NA
ATOM     26  C   UNL     1      53.773   7.319  16.884  0.00  0.00    +0.000 A 
ATOM     27  N   UNL     1      53.254   6.060  17.036  0.00  0.00    +0.000 N 
ATOM     28  C   UNL     1      51.914   5.784  16.900  0.00  0.00    +0.000 A 
ATOM     29  O   UNL     1      51.481   4.653  17.085  0.00  0.00    +0.000 OA
ATOM     30  C   UNL     1      51.095   6.925  16.543  0.00  0.00    +0.000 A 
ATOM     31  H   UNL     1      53.844   5.281  17.288  0.00  0.00    +0.000 HD
ENDBRANCH  18  21
ENDBRANCH   1  17
TORSDOF 6
ENDMDL
MODEL 5
REMARK VINA RESULT:    -7.208      1.753      2.073
REMARK INTER + INTRA:         -10.507
REMARK INTER:                  -9.781
REMARK INTRA:                  -0.726
REMARK UNBOUND:                -0.771
REMARK  Name = 
REMARK  6 active torsions:
REMARK  status: ('A' for Active; 'I' for Inactive)
REMARK    1  A    between atoms: C_2  and  C_3
REMARK    2  A    between atoms: C_6  and  C_7
REMARK    3  A    between atoms: C_7  and  N_8
REMARK    4  A    between atoms: C_11  and  C_12
REMARK    5  A    between atoms: C_12  and  N_13
REMARK    6  A    between atoms: C_14  and  C_16
REMARK                            x       y       z     vdW  Elec       q    Type
REMARK                         _______ _______ _______ _____ _____    ______ ____
ROOT
ATOM      1  C   UNL     1      47.978   8.035  13.713  0.00  0.00    +0.000 C 
ENDROOT
BRANCH   1   5
ATOM      2  N   UNL     1      44.935   5.940  11.622  0.00  0.00    +0.000 N 
ATOM      3  C   UNL     1      44.825   7.312  11.711  0.00  0.00    +0.000 C 
ATOM      4  C   UNL     1      45.865   8.017  12.405  0.00  0.00    +0.000 C 
ATOM      5  C   UNL     1      46.874   7.322  12.969  0.00  0.00    +0.000 C 
ATOM      6  N   UNL     1      46.953   5.935  12.932  0.00  0.00    +0.000 NA
ATOM      7  C   UNL     1      46.004   5.343  12.273  0.00  0.00    +0.000 C 
BRANCH   2   8
ATOM      8  C   UNL     1      44.060   5.151  10.756  0.00  0.00    +0.000 C 
BRANCH   8  12
ATOM      9  C   UNL     1      46.066   2.440   8.136  0.00  0.00    +0.000 A 
ATOM     10  C   UNL     1      46.252   3.794   7.903  0.00  0.00    +0.000 A 
ATOM     11  C   UNL     1      45.618   4.706   8.748  0.00  0.00    +0.000 A 
ATOM     12  C   UNL     1      44.810   4.249   9.796  0.00  0.00    +0.000 A 
ATOM     13  C   UNL     1      44.696   2.869   9.944  0.00  0.00    +0.000 A 
ATOM     14  N   UNL     1      45.301   1.958   9.145  0.00  0.00    +0.000 NA
BRANCH   9  16
ATOM     15  N   UNL     1      47.167   0.675   6.577  0.00  0.00    +0.000 NA
ATOM     16  C   UNL     1      46.691   1.459   7.292  0.00  0.00    +0.000 C 
ENDBRANCH   9  16
ENDBRANCH   8  12
ENDBRANCH   2   8
ENDBRANCH   1   5
BRANCH   1  17
ATOM     17  N   UNL     1      47.881   7.727  15.121  0.00  0.00    +0.000 N 
ATOM     18  C   UNL     1      48.956   7.784  15.965  0.00  0.00    +0.000 C 
ATOM     19  O   UNL     1      50.080   8.094  15.578  0.00  0.00    +0.000 OA
ATOM     20  H   UNL     1      47.040   7.231  15.400  0.00  0.00    +0.000 HD
BRANCH  18  21
ATOM     21  C   UNL     1      48.680   7.540  17.388  0.00  0.00    +0.000 A 
ATOM     22  C   UNL     1      48.200   8.570  18.184  0.00  0.00    +0.000 A 
ATOM     23  S   UNL     1      47.851   8.095  19.784  0.00  0.00    +0.000 S 
ATOM     24  C   UNL     1      48.379   6.505  19.485  0.00  0.00    +0.000 A 
ATOM     25  N   UNL     1      48.355   5.563  20.465  0.00  0.00    +0.000 NA
ATOM     26  C   UNL     1      48.814   4.410  20.110  0.00  0.00    +0.000 A 
ATOM     27  N   UNL     1      49.296   4.114  18.862  0.00  0.00    +0.000 N 
ATOM     28  C   UNL     1      49.310   5.024  17.832  0.00  0.00    +0.000 A 
ATOM     29  O   UNL     1      49.711   4.710  16.717  0.00  0.00    +0.000 OA
ATOM     30  C   UNL     1      48.810   6.339  18.180  0.00  0.00    +0.000 A 
ATOM     31  H   UNL     1      49.637   3.190  18.641  0.00  0.00    +0.000 HD
ENDBRANCH  18  21
ENDBRANCH   1  17
TORSDOF 6
ENDMDL
MODEL 6
REMARK VINA RESULT:    -7.039      3.521      8.252
REMARK INTER + INTRA:         -10.280
REMARK INTER:                  -9.318
REMARK INTRA:                  -0.961
REMARK UNBOUND:                -0.771
REMARK  Name = 
REMARK  6 active torsions:
REMARK  status: ('A' for Active; 'I' for Inactive)
REMARK    1  A    between atoms: C_2  and  C_3
REMARK    2  A    between atoms: C_6  and  C_7
REMARK    3  A    between atoms: C_7  and  N_8
REMARK    4  A    between atoms: C_11  and  C_12
REMARK    5  A    between atoms: C_12  and  N_13
REMARK    6  A    between atoms: C_14  and  C_16
REMARK                            x       y       z     vdW  Elec       q    Type
REMARK                         _______ _______ _______ _____ _____    ______ ____
ROOT
ATOM      1  C   UNL     1      48.079   6.874  13.433  0.00  0.00    +0.000 C 
ENDROOT
BRANCH   1   5
ATOM      2  N   UNL     1      48.945   5.095  17.189  0.00  0.00    +0.000 N 
ATOM      3  C   UNL     1      47.817   4.666  16.520  0.00  0.00    +0.000 C 
ATOM      4  C   UNL     1      47.538   5.260  15.243  0.00  0.00    +0.000 C 
ATOM      5  C   UNL     1      48.352   6.226  14.770  0.00  0.00    +0.000 C 
ATOM      6  N   UNL     1      49.454   6.701  15.470  0.00  0.00    +0.000 NA
ATOM      7  C   UNL     1      49.680   6.118  16.608  0.00  0.00    +0.000 C 
BRANCH   2   8
ATOM      8  C   UNL     1      49.443   4.409  18.380  0.00  0.00    +0.000 C 
BRANCH   8  12
ATOM      9  C   UNL     1      52.495   1.567  17.457  0.00  0.00    +0.000 A 
ATOM     10  C   UNL     1      52.891   2.731  18.100  0.00  0.00    +0.000 A 
ATOM     11  C   UNL     1      51.916   3.675  18.424  0.00  0.00    +0.000 A 
ATOM     12  C   UNL     1      50.575   3.442  18.094  0.00  0.00    +0.000 A 
ATOM     13  C   UNL     1      50.286   2.239  17.455  0.00  0.00    +0.000 A 
ATOM     14  N   UNL     1      51.207   1.301  17.132  0.00  0.00    +0.000 NA
BRANCH   9  16
ATOM     15  N   UNL     1      54.240  -0.230  16.762  0.00  0.00    +0.000 NA
ATOM     16  C   UNL     1      53.459   0.565  17.097  0.00  0.00    +0.000 C 
ENDBRANCH   9  16
ENDBRANCH   8  12
ENDBRANCH   2   8
ENDBRANCH   1   5
BRANCH   1  17
ATOM     17  N   UNL     1      47.280   5.983  12.625  0.00  0.00    +0.000 N 
ATOM     18  C   UNL     1      46.303   6.430  11.777  0.00  0.00    +0.000 C 
ATOM     19  O   UNL     1      46.036   7.623  11.653  0.00  0.00    +0.000 OA
ATOM     20  H   UNL     1      47.306   5.005  12.899  0.00  0.00    +0.000 HD
BRANCH  18  21
ATOM     21  C   UNL     1      45.644   5.411  10.948  0.00  0.00    +0.000 A 
ATOM     22  C   UNL     1      45.735   5.483   9.565  0.00  0.00    +0.000 A 
ATOM     23  S   UNL     1      44.989   4.177   8.760  0.00  0.00    +0.000 S 
ATOM     24  C   UNL     1      44.472   3.495  10.231  0.00  0.00    +0.000 A 
ATOM     25  N   UNL     1      43.752   2.342  10.253  0.00  0.00    +0.000 NA
ATOM     26  C   UNL     1      43.397   1.956  11.433  0.00  0.00    +0.000 A 
ATOM     27  N   UNL     1      43.697   2.620  12.594  0.00  0.00    +0.000 N 
ATOM     28  C   UNL     1      44.449   3.771  12.622  0.00  0.00    +0.000 A 
ATOM     29  O   UNL     1      44.732   4.314  13.683  0.00  0.00    +0.000 OA
ATOM     30  C   UNL     1      44.868   4.251  11.321  0.00  0.00    +0.000 A 
ATOM     31  H   UNL     1      43.397   2.264  13.489  0.00  0.00    +0.000 HD
ENDBRANCH  18  21
ENDBRANCH   1  17
TORSDOF 6
ENDMDL
MODEL 7
REMARK VINA RESULT:    -6.780      2.344      3.462
REMARK INTER + INTRA:          -9.929
REMARK INTER:                  -9.208
REMARK INTRA:                  -0.721
REMARK UNBOUND:                -0.771
REMARK  Name = 
REMARK  6 active torsions:
REMARK  status: ('A' for Active; 'I' for Inactive)
REMARK    1  A    between atoms: C_2  and  C_3
REMARK    2  A    between atoms: C_6  and  C_7
REMARK    3  A    between atoms: C_7  and  N_8
REMARK    4  A    between atoms: C_11  and  C_12
REMARK    5  A    between atoms: C_12  and  N_13
REMARK    6  A    between atoms: C_14  and  C_16
REMARK                            x       y       z     vdW  Elec       q    Type
REMARK                         _______ _______ _______ _____ _____    ______ ____
ROOT
ATOM      1  C   UNL     1      46.158   8.303  13.278  0.00  0.00    +0.000 C 
ENDROOT
BRANCH   1   5
ATOM      2  N   UNL     1      44.359   4.985  11.334  0.00  0.00    +0.000 N 
ATOM      3  C   UNL     1      43.883   6.244  11.028  0.00  0.00    +0.000 C 
ATOM      4  C   UNL     1      44.506   7.364  11.677  0.00  0.00    +0.000 C 
ATOM      5  C   UNL     1      45.489   7.146  12.574  0.00  0.00    +0.000 C 
ATOM      6  N   UNL     1      45.927   5.875  12.927  0.00  0.00    +0.000 NA
ATOM      7  C   UNL     1      45.352   4.896  12.297  0.00  0.00    +0.000 C 
BRANCH   2   8
ATOM      8  C   UNL     1      43.955   3.804  10.574  0.00  0.00    +0.000 C 
BRANCH   8  12
ATOM      9  C   UNL     1      46.633   2.557   7.491  0.00  0.00    +0.000 A 
ATOM     10  C   UNL     1      46.352   3.913   7.570  0.00  0.00    +0.000 A 
ATOM     11  C   UNL     1      45.488   4.354   8.574  0.00  0.00    +0.000 A 
ATOM     12  C   UNL     1      44.920   3.435   9.465  0.00  0.00    +0.000 A 
ATOM     13  C   UNL     1      45.274   2.099   9.299  0.00  0.00    +0.000 A 
ATOM     14  N   UNL     1      46.112   1.640   8.341  0.00  0.00    +0.000 NA
BRANCH   9  16
ATOM     15  N   UNL     1      48.241   1.611   5.680  0.00  0.00    +0.000 NA
ATOM     16  C   UNL     1      47.512   2.050   6.473  0.00  0.00    +0.000 C 
ENDBRANCH   9  16
ENDBRANCH   8  12
ENDBRANCH   2   8
ENDBRANCH   1   5
BRANCH   1  17
ATOM     17  N   UNL     1      47.432   7.870  13.803  0.00  0.00    +0.000 N 
ATOM     18  C   UNL     1      48.046   8.490  14.857  0.00  0.00    +0.000 C 
ATOM     19  O   UNL     1      47.554   9.463  15.424  0.00  0.00    +0.000 OA
ATOM     20  H   UNL     1      47.963   7.249  13.199  0.00  0.00    +0.000 HD
BRANCH  18  21
ATOM     21  C   UNL     1      49.290   7.874  15.340  0.00  0.00    +0.000 A 
ATOM     22  C   UNL     1      49.248   6.963  16.386  0.00  0.00    +0.000 A 
ATOM     23  S   UNL     1      50.765   6.280  16.761  0.00  0.00    +0.000 S 
ATOM     24  C   UNL     1      51.543   7.218  15.573  0.00  0.00    +0.000 A 
ATOM     25  N   UNL     1      52.884   7.123  15.373  0.00  0.00    +0.000 NA
ATOM     26  C   UNL     1      53.346   7.914  14.464  0.00  0.00    +0.000 A 
ATOM     27  N   UNL     1      52.587   8.793  13.736  0.00  0.00    +0.000 N 
ATOM     28  C   UNL     1      51.225   8.900  13.881  0.00  0.00    +0.000 A 
ATOM     29  O   UNL     1      50.573   9.668  13.182  0.00  0.00    +0.000 OA
ATOM     30  C   UNL     1      50.655   8.036  14.895  0.00  0.00    +0.000 A 
ATOM     31  H   UNL     1      53.006   9.383  13.032  0.00  0.00    +0.000 HD
ENDBRANCH  18  21
ENDBRANCH   1  17
TORSDOF 6
ENDMDL
MODEL 8
REMARK VINA RESULT:    -6.506      4.891      7.309
REMARK INTER + INTRA:          -9.559
REMARK INTER:                  -8.680
REMARK INTRA:                  -0.879
REMARK UNBOUND:                -0.771
REMARK  Name = 
REMARK  6 active torsions:
REMARK  status: ('A' for Active; 'I' for Inactive)
REMARK    1  A    between atoms: C_2  and  C_3
REMARK    2  A    between atoms: C_6  and  C_7
REMARK    3  A    between atoms: C_7  and  N_8
REMARK    4  A    between atoms: C_11  and  C_12
REMARK    5  A    between atoms: C_12  and  N_13
REMARK    6  A    between atoms: C_14  and  C_16
REMARK                            x       y       z     vdW  Elec       q    Type
REMARK                         _______ _______ _______ _____ _____    ______ ____
ROOT
ATOM      1  C   UNL     1      46.367   8.392  12.998  0.00  0.00    +0.000 C 
ENDROOT
BRANCH   1   5
ATOM      2  N   UNL     1      50.422   8.537  11.749  0.00  0.00    +0.000 N 
ATOM      3  C   UNL     1      49.644   9.657  11.537  0.00  0.00    +0.000 C 
ATOM      4  C   UNL     1      48.278   9.608  11.976  0.00  0.00    +0.000 C 
ATOM      5  C   UNL     1      47.802   8.476  12.534  0.00  0.00    +0.000 C 
ATOM      6  N   UNL     1      48.569   7.328  12.693  0.00  0.00    +0.000 NA
ATOM      7  C   UNL     1      49.803   7.428  12.304  0.00  0.00    +0.000 C 
BRANCH   2   8
ATOM      8  C   UNL     1      51.870   8.556  11.548  0.00  0.00    +0.000 C 
BRANCH   8  12
ATOM      9  C   UNL     1      53.110   7.725   7.547  0.00  0.00    +0.000 A 
ATOM     10  C   UNL     1      52.805   6.636   8.350  0.00  0.00    +0.000 A 
ATOM     11  C   UNL     1      52.387   6.875   9.660  0.00  0.00    +0.000 A 
ATOM     12  C   UNL     1      52.291   8.187  10.139  0.00  0.00    +0.000 A 
ATOM     13  C   UNL     1      52.615   9.206   9.247  0.00  0.00    +0.000 A 
ATOM     14  N   UNL     1      53.019   9.008   7.970  0.00  0.00    +0.000 NA
BRANCH   9  16
ATOM     15  N   UNL     1      53.865   7.368   5.084  0.00  0.00    +0.000 NA
ATOM     16  C   UNL     1      53.550   7.535   6.192  0.00  0.00    +0.000 C 
ENDBRANCH   9  16
ENDBRANCH   8  12
ENDBRANCH   2   8
ENDBRANCH   1   5
BRANCH   1  17
ATOM     17  N   UNL     1      45.866   7.058  12.758  0.00  0.00    +0.000 N 
ATOM     18  C   UNL     1      44.921   6.784  11.808  0.00  0.00    +0.000 C 
ATOM     19  O   UNL     1      44.429   7.658  11.099  0.00  0.00    +0.000 OA
ATOM     20  H   UNL     1      46.063   6.381  13.489  0.00  0.00    +0.000 HD
BRANCH  18  21
ATOM     21  C   UNL     1      44.584   5.366  11.614  0.00  0.00    +0.000 A 
ATOM     22  C   UNL     1      43.893   4.681  12.603  0.00  0.00    +0.000 A 
ATOM     23  S   UNL     1      43.507   3.074  12.182  0.00  0.00    +0.000 S 
ATOM     24  C   UNL     1      44.296   3.220  10.681  0.00  0.00    +0.000 A 
ATOM     25  N   UNL     1      44.348   2.176   9.813  0.00  0.00    +0.000 NA
ATOM     26  C   UNL     1      45.006   2.415   8.728  0.00  0.00    +0.000 A 
ATOM     27  N   UNL     1      45.617   3.606   8.433  0.00  0.00    +0.000 N 
ATOM     28  C   UNL     1      45.564   4.698   9.266  0.00  0.00    +0.000 A 
ATOM     29  O   UNL     1      46.087   5.760   8.949  0.00  0.00    +0.000 OA
ATOM     30  C   UNL     1      44.841   4.480  10.503  0.00  0.00    +0.000 A 
ATOM     31  H   UNL     1      46.113   3.735   7.563  0.00  0.00    +0.000 HD
ENDBRANCH  18  21
ENDBRANCH   1  17
TORSDOF 6
ENDMDL
MODEL 9
REMARK VINA RESULT:    -6.280      2.801      3.722
REMARK INTER + INTRA:          -9.254
REMARK INTER:                  -8.546
REMARK INTRA:                  -0.708
REMARK UNBOUND:                -0.771
REMARK  Name = 
REMARK  6 active torsions:
REMARK  status: ('A' for Active; 'I' for Inactive)
REMARK    1  A    between atoms: C_2  and  C_3
REMARK    2  A    between atoms: C_6  and  C_7
REMARK    3  A    between atoms: C_7  and  N_8
REMARK    4  A    between atoms: C_11  and  C_12
REMARK    5  A    between atoms: C_12  and  N_13
REMARK    6  A    between atoms: C_14  and  C_16
REMARK                            x       y       z     vdW  Elec       q    Type
REMARK                         _______ _______ _______ _____ _____    ______ ____
ROOT
ATOM      1  C   UNL     1      47.556   4.597  15.779  0.00  0.00    +0.000 C 
ENDROOT
BRANCH   1   5
ATOM      2  N   UNL     1      45.352   4.474  12.153  0.00  0.00    +0.000 N 
ATOM      3  C   UNL     1      45.924   3.299  12.597  0.00  0.00    +0.000 C 
ATOM      4  C   UNL     1      46.655   3.344  13.832  0.00  0.00    +0.000 C 
ATOM      5  C   UNL     1      46.786   4.518  14.482  0.00  0.00    +0.000 C 
ATOM      6  N   UNL     1      46.261   5.713  14.004  0.00  0.00    +0.000 NA
ATOM      7  C   UNL     1      45.589   5.619  12.897  0.00  0.00    +0.000 C 
BRANCH   2   8
ATOM      8  C   UNL     1      44.409   4.497  11.036  0.00  0.00    +0.000 C 
BRANCH   8  12
ATOM      9  C   UNL     1      46.172   3.271   7.345  0.00  0.00    +0.000 A 
ATOM     10  C   UNL     1      45.484   2.306   8.066  0.00  0.00    +0.000 A 
ATOM     11  C   UNL     1      44.888   2.677   9.272  0.00  0.00    +0.000 A 
ATOM     12  C   UNL     1      44.997   3.995   9.734  0.00  0.00    +0.000 A 
ATOM     13  C   UNL     1      45.704   4.884   8.929  0.00  0.00    +0.000 A 
ATOM     14  N   UNL     1      46.290   4.557   7.752  0.00  0.00    +0.000 NA
BRANCH   9  16
ATOM     15  N   UNL     1      47.305   2.709   5.074  0.00  0.00    +0.000 NA
ATOM     16  C   UNL     1      46.808   2.940   6.101  0.00  0.00    +0.000 C 
ENDBRANCH   9  16
ENDBRANCH   8  12
ENDBRANCH   2   8
ENDBRANCH   1   5
BRANCH   1  17
ATOM     17  N   UNL     1      47.867   5.979  16.065  0.00  0.00    +0.000 N 
ATOM     18  C   UNL     1      49.120   6.394  16.426  0.00  0.00    +0.000 C 
ATOM     19  O   UNL     1      50.064   5.616  16.538  0.00  0.00    +0.000 OA
ATOM     20  H   UNL     1      47.065   6.581  16.228  0.00  0.00    +0.000 HD
BRANCH  18  21
ATOM     21  C   UNL     1      49.304   7.844  16.589  0.00  0.00    +0.000 A 
ATOM     22  C   UNL     1      49.511   8.641  15.473  0.00  0.00    +0.000 A 
ATOM     23  S   UNL     1      49.616  10.306  15.831  0.00  0.00    +0.000 S 
ATOM     24  C   UNL     1      49.441  10.015  17.498  0.00  0.00    +0.000 A 
ATOM     25  N   UNL     1      49.455  11.038  18.393  0.00  0.00    +0.000 NA
ATOM     26  C   UNL     1      49.345  10.672  19.626  0.00  0.00    +0.000 A 
ATOM     27  N   UNL     1      49.223   9.373  20.045  0.00  0.00    +0.000 N 
ATOM     28  C   UNL     1      49.173   8.309  19.175  0.00  0.00    +0.000 A 
ATOM     29  O   UNL     1      49.021   7.165  19.585  0.00  0.00    +0.000 OA
ATOM     30  C   UNL     1      49.298   8.666  17.776  0.00  0.00    +0.000 A 
ATOM     31  H   UNL     1      49.134   9.148  21.025  0.00  0.00    +0.000 HD
ENDBRANCH  18  21
ENDBRANCH   1  17
TORSDOF 6
ENDMDL
