MODEL 1
REMARK VINA RESULT:    -8.164      0.000      0.000
REMARK INTER + INTRA:         -12.741
REMARK INTER:                 -11.505
REMARK INTRA:                  -1.235
REMARK UNBOUND:                -1.235
REMARK  Name = 
REMARK  8 active torsions:
REMARK  status: ('A' for Active; 'I' for Inactive)
REMARK    1  A    between atoms: C_1  and  O_2
REMARK    2  A    between atoms: O_2  and  C_3
REMARK    3  A    between atoms: C_10  and  C_11
REMARK    4  A    between atoms: N_13  and  C_14
REMARK    5  A    between atoms: C_14  and  C_15
REMARK    6  A    between atoms: C_18  and  N_19
REMARK    7  A    between atoms: N_19  and  C_20
REMARK    8  A    between atoms: C_20  and  C_21
REMARK                            x       y       z     vdW  Elec       q    Type
REMARK                         _______ _______ _______ _____ _____    ______ ____
ROOT
ATOM      1  C   UNL     1      46.321   7.936  12.821  0.00  0.00    +0.000 C 
ENDROOT
BRANCH   1   2
ATOM      2  C   UNL     1      45.772   6.875  11.894  0.00  0.00    +0.000 A 
ATOM      3  C   UNL     1      44.555   6.249  12.186  0.00  0.00    +0.000 A 
ATOM      4  C   UNL     1      44.009   5.285  11.324  0.00  0.00    +0.000 A 
ATOM      5  C   UNL     1      44.669   4.912  10.147  0.00  0.00    +0.000 A 
ATOM      6  C   UNL     1      45.915   5.490   9.890  0.00  0.00    +0.000 A 
ATOM      7  C   UNL     1      46.448   6.485  10.728  0.00  0.00    +0.000 A 
BRANCH   5   8
ATOM      8  N   UNL     1      44.168   3.973   9.236  0.00  0.00    +0.000 N 
ATOM      9  H   UNL     1      44.106   4.357   8.291  0.00  0.00    +0.000 HD
BRANCH   8  10
ATOM     10  C   UNL     1      44.737   2.630   9.276  0.00  0.00    +0.000 C 
BRANCH  10  11
ATOM     11  C   UNL     1      45.350   2.246   7.919  0.00  0.00    +0.000 C 
ATOM     12  C   UNL     1      45.967   3.500   7.272  0.00  0.00    +0.000 C 
ATOM     13  C   UNL     1      46.759   3.155   6.015  0.00  0.00    +0.000 C 
ATOM     14  C   UNL     1      47.766   2.043   6.285  0.00  0.00    +0.000 C 
ATOM     15  N   UNL     1      47.096   0.856   6.809  0.00  0.00    +0.000 NA
ATOM     16  C   UNL     1      46.413   1.145   8.076  0.00  0.00    +0.000 C 
ATOM     17  H   UNL     1      47.785   0.120   6.967  0.00  0.00    +0.000 HD
ENDBRANCH  10  11
ENDBRANCH   8  10
ENDBRANCH   5   8
ENDBRANCH   1   2
BRANCH   1  20
ATOM     18  C   UNL     1      48.234   7.011  14.105  0.00  0.00    +0.000 C 
ATOM     19  O   UNL     1      48.999   7.153  13.156  0.00  0.00    +0.000 OA
ATOM     20  N   UNL     1      46.909   7.379  14.012  0.00  0.00    +0.000 N 
ATOM     21  H   UNL     1      46.310   7.295  14.821  0.00  0.00    +0.000 HD
BRANCH  18  29
ATOM     22  C   UNL     1      47.232   4.269  15.921  0.00  0.00    +0.000 A 
ATOM     23  N   UNL     1      47.087   3.232  16.766  0.00  0.00    +0.000 NA
ATOM     24  C   UNL     1      47.916   3.159  17.809  0.00  0.00    +0.000 A 
ATOM     25  N   UNL     1      48.875   4.019  18.135  0.00  0.00    +0.000 NA
ATOM     26  C   UNL     1      48.988   5.035  17.260  0.00  0.00    +0.000 A 
ATOM     27  S   UNL     1      50.153   6.242  17.516  0.00  0.00    +0.000 S 
ATOM     28  C   UNL     1      49.705   7.053  16.090  0.00  0.00    +0.000 A 
ATOM     29  C   UNL     1      48.681   6.431  15.384  0.00  0.00    +0.000 A 
ATOM     30  C   UNL     1      48.232   5.239  16.112  0.00  0.00    +0.000 A 
BRANCH  22  32
ATOM     31  C   UNL     1      46.903   3.630  13.698  0.00  0.00    +0.000 C 
ATOM     32  O   UNL     1      46.394   4.327  14.829  0.00  0.00    +0.000 OA
ENDBRANCH  22  32
ENDBRANCH  18  29
ENDBRANCH   1  20
TORSDOF 7
ENDMDL
MODEL 2
REMARK VINA RESULT:    -7.530      1.631      2.244
REMARK INTER + INTRA:         -11.847
REMARK INTER:                 -10.704
REMARK INTRA:                  -1.144
REMARK UNBOUND:                -1.235
REMARK  Name = 
REMARK  8 active torsions:
REMARK  status: ('A' for Active; 'I' for Inactive)
REMARK    1  A    between atoms: C_1  and  O_2
REMARK    2  A    between atoms: O_2  and  C_3
REMARK    3  A    between atoms: C_10  and  C_11
REMARK    4  A    between atoms: N_13  and  C_14
REMARK    5  A    between atoms: C_14  and  C_15
REMARK    6  A    between atoms: C_18  and  N_19
REMARK    7  A    between atoms: N_19  and  C_20
REMARK    8  A    between atoms: C_20  and  C_21
REMARK                            x       y       z     vdW  Elec       q    Type
REMARK                         _______ _______ _______ _____ _____    ______ ____
ROOT
ATOM      1  C   UNL     1      46.583   7.252  13.280  0.00  0.00    +0.000 C 
ENDROOT
BRANCH   1   2
ATOM      2  C   UNL     1      46.007   6.012  12.635  0.00  0.00    +0.000 A 
ATOM      3  C   UNL     1      45.201   6.123  11.496  0.00  0.00    +0.000 A 
ATOM      4  C   UNL     1      44.681   4.984  10.860  0.00  0.00    +0.000 A 
ATOM      5  C   UNL     1      44.946   3.700  11.350  0.00  0.00    +0.000 A 
ATOM      6  C   UNL     1      45.696   3.594  12.524  0.00  0.00    +0.000 A 
ATOM      7  C   UNL     1      46.252   4.728  13.143  0.00  0.00    +0.000 A 
BRANCH   5   8
ATOM      8  N   UNL     1      44.476   2.524  10.751  0.00  0.00    +0.000 N 
ATOM      9  H   UNL     1      43.623   2.184  11.198  0.00  0.00    +0.000 HD
BRANCH   8  10
ATOM     10  C   UNL     1      44.414   2.494   9.293  0.00  0.00    +0.000 C 
BRANCH  10  11
ATOM     11  C   UNL     1      45.821   2.574   8.677  0.00  0.00    +0.000 C 
ATOM     12  C   UNL     1      46.178   1.210   8.058  0.00  0.00    +0.000 C 
ATOM     13  C   UNL     1      47.478   1.273   7.263  0.00  0.00    +0.000 C 
ATOM     14  C   UNL     1      47.453   2.419   6.256  0.00  0.00    +0.000 C 
ATOM     15  N   UNL     1      47.201   3.691   6.928  0.00  0.00    +0.000 NA
ATOM     16  C   UNL     1      45.904   3.684   7.613  0.00  0.00    +0.000 C 
ATOM     17  H   UNL     1      47.206   4.444   6.239  0.00  0.00    +0.000 HD
ENDBRANCH  10  11
ENDBRANCH   8  10
ENDBRANCH   5   8
ENDBRANCH   1   2
BRANCH   1  20
ATOM     18  C   UNL     1      48.399   7.908  14.842  0.00  0.00    +0.000 C 
ATOM     19  O   UNL     1      47.949   9.044  14.960  0.00  0.00    +0.000 OA
ATOM     20  N   UNL     1      47.776   6.977  14.039  0.00  0.00    +0.000 N 
ATOM     21  H   UNL     1      48.139   6.034  13.994  0.00  0.00    +0.000 HD
BRANCH  18  29
ATOM     22  C   UNL     1      49.229   5.097  16.639  0.00  0.00    +0.000 A 
ATOM     23  N   UNL     1      49.820   4.088  17.303  0.00  0.00    +0.000 NA
ATOM     24  C   UNL     1      51.107   4.224  17.627  0.00  0.00    +0.000 A 
ATOM     25  N   UNL     1      51.889   5.272  17.386  0.00  0.00    +0.000 NA
ATOM     26  C   UNL     1      51.259   6.253  16.715  0.00  0.00    +0.000 A 
ATOM     27  S   UNL     1      52.094   7.679  16.326  0.00  0.00    +0.000 S 
ATOM     28  C   UNL     1      50.734   8.325  15.537  0.00  0.00    +0.000 A 
ATOM     29  C   UNL     1      49.627   7.482  15.536  0.00  0.00    +0.000 A 
ATOM     30  C   UNL     1      49.940   6.255  16.277  0.00  0.00    +0.000 A 
BRANCH  22  32
ATOM     31  C   UNL     1      47.146   4.232  17.252  0.00  0.00    +0.000 C 
ATOM     32  O   UNL     1      47.908   4.941  16.281  0.00  0.00    +0.000 OA
ENDBRANCH  22  32
ENDBRANCH  18  29
ENDBRANCH   1  20
TORSDOF 7
ENDMDL
MODEL 3
REMARK VINA RESULT:    -7.411      2.160      3.052
REMARK INTER + INTRA:         -11.679
REMARK INTER:                 -10.861
REMARK INTRA:                  -0.818
REMARK UNBOUND:                -1.235
REMARK  Name = 
REMARK  8 active torsions:
REMARK  status: ('A' for Active; 'I' for Inactive)
REMARK    1  A    between atoms: C_1  and  O_2
REMARK    2  A    between atoms: O_2  and  C_3
REMARK    3  A    between atoms: C_10  and  C_11
REMARK    4  A    between atoms: N_13  and  C_14
REMARK    5  A    between atoms: C_14  and  C_15
REMARK    6  A    between atoms: C_18  and  N_19
REMARK    7  A    between atoms: N_19  and  C_20
REMARK    8  A    between atoms: C_20  and  C_21
REMARK                            x       y       z     vdW  Elec       q    Type
REMARK                         _______ _______ _______ _____ _____    ______ ____
ROOT
ATOM      1  C   UNL     1      47.426   6.600  13.604  0.00  0.00    +0.000 C 
ENDROOT
BRANCH   1   2
ATOM      2  C   UNL     1      46.521   5.854  12.649  0.00  0.00    +0.000 A 
ATOM      3  C   UNL     1      46.328   6.332  11.347  0.00  0.00    +0.000 A 
ATOM      4  C   UNL     1      45.519   5.640  10.433  0.00  0.00    +0.000 A 
ATOM      5  C   UNL     1      44.871   4.453  10.795  0.00  0.00    +0.000 A 
ATOM      6  C   UNL     1      45.012   4.013  12.114  0.00  0.00    +0.000 A 
ATOM      7  C   UNL     1      45.853   4.680  13.023  0.00  0.00    +0.000 A 
BRANCH   5   8
ATOM      8  N   UNL     1      44.068   3.705   9.925  0.00  0.00    +0.000 N 
ATOM      9  H   UNL     1      43.652   4.288   9.197  0.00  0.00    +0.000 HD
BRANCH   8  10
ATOM     10  C   UNL     1      44.618   2.452   9.417  0.00  0.00    +0.000 C 
BRANCH  10  11
ATOM     11  C   UNL     1      45.864   2.705   8.550  0.00  0.00    +0.000 C 
ATOM     12  C   UNL     1      46.404   1.357   8.039  0.00  0.00    +0.000 C 
ATOM     13  C   UNL     1      47.522   1.547   7.019  0.00  0.00    +0.000 C 
ATOM     14  C   UNL     1      47.098   2.501   5.908  0.00  0.00    +0.000 C 
ATOM     15  N   UNL     1      46.687   3.788   6.462  0.00  0.00    +0.000 NA
ATOM     16  C   UNL     1      45.543   3.637   7.369  0.00  0.00    +0.000 C 
ATOM     17  H   UNL     1      46.424   4.416   5.702  0.00  0.00    +0.000 HD
ENDBRANCH  10  11
ENDBRANCH   8  10
ENDBRANCH   5   8
ENDBRANCH   1   2
BRANCH   1  20
ATOM     18  C   UNL     1      48.614   6.145  15.736  0.00  0.00    +0.000 C 
ATOM     19  O   UNL     1      49.504   6.945  15.464  0.00  0.00    +0.000 OA
ATOM     20  N   UNL     1      47.562   5.931  14.873  0.00  0.00    +0.000 N 
ATOM     21  H   UNL     1      46.818   5.301  15.139  0.00  0.00    +0.000 HD
BRANCH  18  29
ATOM     22  C   UNL     1      48.958   7.012  19.045  0.00  0.00    +0.000 A 
ATOM     23  N   UNL     1      48.989   7.091  20.388  0.00  0.00    +0.000 NA
ATOM     24  C   UNL     1      48.840   5.962  21.082  0.00  0.00    +0.000 A 
ATOM     25  N   UNL     1      48.681   4.736  20.595  0.00  0.00    +0.000 NA
ATOM     26  C   UNL     1      48.650   4.704  19.251  0.00  0.00    +0.000 A 
ATOM     27  S   UNL     1      48.467   3.221  18.446  0.00  0.00    +0.000 S 
ATOM     28  C   UNL     1      48.492   3.981  16.925  0.00  0.00    +0.000 A 
ATOM     29  C   UNL     1      48.626   5.364  16.987  0.00  0.00    +0.000 A 
ATOM     30  C   UNL     1      48.756   5.787  18.385  0.00  0.00    +0.000 A 
BRANCH  22  32
ATOM     31  C   UNL     1      47.853   8.885  18.189  0.00  0.00    +0.000 C 
ATOM     32  O   UNL     1      49.083   8.184  18.331  0.00  0.00    +0.000 OA
ENDBRANCH  22  32
ENDBRANCH  18  29
ENDBRANCH   1  20
TORSDOF 7
ENDMDL
MODEL 4
REMARK VINA RESULT:    -7.346      2.324      3.029
REMARK INTER + INTRA:         -11.587
REMARK INTER:                 -10.414
REMARK INTRA:                  -1.173
REMARK UNBOUND:                -1.235
REMARK  Name = 
REMARK  8 active torsions:
REMARK  status: ('A' for Active; 'I' for Inactive)
REMARK    1  A    between atoms: C_1  and  O_2
REMARK    2  A    between atoms: O_2  and  C_3
REMARK    3  A    between atoms: C_10  and  C_11
REMARK    4  A    between atoms: N_13  and  C_14
REMARK    5  A    between atoms: C_14  and  C_15
REMARK    6  A    between atoms: C_18  and  N_19
REMARK    7  A    between atoms: N_19  and  C_20
REMARK    8  A    between atoms: C_20  and  C_21
REMARK                            x       y       z     vdW  Elec       q    Type
REMARK                         _______ _______ _______ _____ _____    ______ ____
ROOT
ATOM      1  C   UNL     1      48.562   7.210  14.764  0.00  0.00    +0.000 C 
ENDROOT
BRANCH   1   2
ATOM      2  C   UNL     1      47.607   6.398  13.918  0.00  0.00    +0.000 A 
ATOM      3  C   UNL     1      47.134   5.166  14.381  0.00  0.00    +0.000 A 
ATOM      4  C   UNL     1      46.221   4.409  13.628  0.00  0.00    +0.000 A 
ATOM      5  C   UNL     1      45.762   4.860  12.385  0.00  0.00    +0.000 A 
ATOM      6  C   UNL     1      46.286   6.060  11.895  0.00  0.00    +0.000 A 
ATOM      7  C   UNL     1      47.169   6.840  12.661  0.00  0.00    +0.000 A 
BRANCH   5   8
ATOM      8  N   UNL     1      44.837   4.164  11.596  0.00  0.00    +0.000 N 
ATOM      9  H   UNL     1      44.045   3.829  12.146  0.00  0.00    +0.000 HD
BRANCH   8  10
ATOM     10  C   UNL     1      44.443   4.775  10.330  0.00  0.00    +0.000 C 
BRANCH  10  11
ATOM     11  C   UNL     1      44.671   3.810   9.154  0.00  0.00    +0.000 C 
ATOM     12  C   UNL     1      45.795   4.362   8.259  0.00  0.00    +0.000 C 
ATOM     13  C   UNL     1      46.203   3.361   7.183  0.00  0.00    +0.000 C 
ATOM     14  C   UNL     1      46.513   1.996   7.788  0.00  0.00    +0.000 C 
ATOM     15  N   UNL     1      45.369   1.496   8.545  0.00  0.00    +0.000 NA
ATOM     16  C   UNL     1      45.026   2.397   9.652  0.00  0.00    +0.000 C 
ATOM     17  H   UNL     1      45.592   0.576   8.927  0.00  0.00    +0.000 HD
ENDBRANCH  10  11
ENDBRANCH   8  10
ENDBRANCH   5   8
ENDBRANCH   1   2
BRANCH   1  20
ATOM     18  C   UNL     1      49.525   6.108  16.769  0.00  0.00    +0.000 C 
ATOM     19  O   UNL     1      48.631   6.538  17.492  0.00  0.00    +0.000 OA
ATOM     20  N   UNL     1      49.550   6.393  15.422  0.00  0.00    +0.000 N 
ATOM     21  H   UNL     1      50.271   5.990  14.839  0.00  0.00    +0.000 HD
BRANCH  18  29
ATOM     22  C   UNL     1      50.036   2.712  16.930  0.00  0.00    +0.000 A 
ATOM     23  N   UNL     1      50.507   1.456  17.043  0.00  0.00    +0.000 NA
ATOM     24  C   UNL     1      51.724   1.292  17.564  0.00  0.00    +0.000 A 
ATOM     25  N   UNL     1      52.539   2.239  18.014  0.00  0.00    +0.000 NA
ATOM     26  C   UNL     1      52.033   3.478  17.876  0.00  0.00    +0.000 A 
ATOM     27  S   UNL     1      52.927   4.819  18.406  0.00  0.00    +0.000 S 
ATOM     28  C   UNL     1      51.717   5.898  17.892  0.00  0.00    +0.000 A 
ATOM     29  C   UNL     1      50.622   5.278  17.300  0.00  0.00    +0.000 A 
ATOM     30  C   UNL     1      50.803   3.822  17.326  0.00  0.00    +0.000 A 
BRANCH  22  32
ATOM     31  C   UNL     1      47.737   2.857  17.322  0.00  0.00    +0.000 C 
ATOM     32  O   UNL     1      48.791   2.881  16.366  0.00  0.00    +0.000 OA
ENDBRANCH  22  32
ENDBRANCH  18  29
ENDBRANCH   1  20
TORSDOF 7
ENDMDL
MODEL 5
REMARK VINA RESULT:    -7.203      2.176      3.865
REMARK INTER + INTRA:         -11.386
REMARK INTER:                 -10.172
REMARK INTRA:                  -1.214
REMARK UNBOUND:                -1.235
REMARK  Name = 
REMARK  8 active torsions:
REMARK  status: ('A' for Active; 'I' for Inactive)
REMARK    1  A    between atoms: C_1  and  O_2
REMARK    2  A    between atoms: O_2  and  C_3
REMARK    3  A    between atoms: C_10  and  C_11
REMARK    4  A    between atoms: N_13  and  C_14
REMARK    5  A    between atoms: C_14  and  C_15
REMARK    6  A    between atoms: C_18  and  N_19
REMARK    7  A    between atoms: N_19  and  C_20
REMARK    8  A    between atoms: C_20  and  C_21
REMARK                            x       y       z     vdW  Elec       q    Type
REMARK                         _______ _______ _______ _____ _____    ______ ____
ROOT
ATOM      1  C   UNL     1      46.997   4.689  14.636  0.00  0.00    +0.000 C 
ENDROOT
BRANCH   1   2
ATOM      2  C   UNL     1      46.312   4.716  13.288  0.00  0.00    +0.000 A 
ATOM      3  C   UNL     1      46.435   5.837  12.460  0.00  0.00    +0.000 A 
ATOM      4  C   UNL     1      45.836   5.872  11.191  0.00  0.00    +0.000 A 
ATOM      5  C   UNL     1      45.089   4.788  10.715  0.00  0.00    +0.000 A 
ATOM      6  C   UNL     1      44.913   3.696  11.569  0.00  0.00    +0.000 A 
ATOM      7  C   UNL     1      45.543   3.639  12.824  0.00  0.00    +0.000 A 
BRANCH   5   8
ATOM      8  N   UNL     1      44.485   4.752   9.451  0.00  0.00    +0.000 N 
ATOM      9  H   UNL     1      44.792   5.527   8.861  0.00  0.00    +0.000 HD
BRANCH   8  10
ATOM     10  C   UNL     1      44.466   3.469   8.755  0.00  0.00    +0.000 C 
BRANCH  10  11
ATOM     11  C   UNL     1      45.888   3.022   8.377  0.00  0.00    +0.000 C 
ATOM     12  C   UNL     1      45.885   1.508   8.102  0.00  0.00    +0.000 C 
ATOM     13  C   UNL     1      47.219   1.033   7.536  0.00  0.00    +0.000 C 
ATOM     14  C   UNL     1      47.640   1.876   6.336  0.00  0.00    +0.000 C 
ATOM     15  N   UNL     1      47.711   3.289   6.698  0.00  0.00    +0.000 NA
ATOM     16  C   UNL     1      46.407   3.790   7.148  0.00  0.00    +0.000 C 
ATOM     17  H   UNL     1      48.010   3.832   5.887  0.00  0.00    +0.000 HD
ENDBRANCH  10  11
ENDBRANCH   8  10
ENDBRANCH   5   8
ENDBRANCH   1   2
BRANCH   1  20
ATOM     18  C   UNL     1      48.655   6.064  15.870  0.00  0.00    +0.000 C 
ATOM     19  O   UNL     1      49.101   5.082  16.458  0.00  0.00    +0.000 OA
ATOM     20  N   UNL     1      47.629   5.943  14.960  0.00  0.00    +0.000 N 
ATOM     21  H   UNL     1      47.310   6.759  14.455  0.00  0.00    +0.000 HD
BRANCH  18  29
ATOM     22  C   UNL     1      49.933   8.495  13.803  0.00  0.00    +0.000 A 
ATOM     23  N   UNL     1      50.388   9.617  13.216  0.00  0.00    +0.000 NA
ATOM     24  C   UNL     1      50.630  10.672  13.995  0.00  0.00    +0.000 A 
ATOM     25  N   UNL     1      50.494  10.745  15.315  0.00  0.00    +0.000 NA
ATOM     26  C   UNL     1      50.032   9.604  15.858  0.00  0.00    +0.000 A 
ATOM     27  S   UNL     1      49.804   9.501  17.537  0.00  0.00    +0.000 S 
ATOM     28  C   UNL     1      49.228   7.906  17.416  0.00  0.00    +0.000 A 
ATOM     29  C   UNL     1      49.181   7.419  16.113  0.00  0.00    +0.000 A 
ATOM     30  C   UNL     1      49.700   8.432  15.188  0.00  0.00    +0.000 A 
BRANCH  22  32
ATOM     31  C   UNL     1      49.453   7.778  11.631  0.00  0.00    +0.000 C 
ATOM     32  O   UNL     1      49.656   7.416  12.992  0.00  0.00    +0.000 OA
ENDBRANCH  22  32
ENDBRANCH  18  29
ENDBRANCH   1  20
TORSDOF 7
ENDMDL
MODEL 6
REMARK VINA RESULT:    -7.118      2.747      3.693
REMARK INTER + INTRA:         -11.266
REMARK INTER:                  -9.989
REMARK INTRA:                  -1.277
REMARK UNBOUND:                -1.235
REMARK  Name = 
REMARK  8 active torsions:
REMARK  status: ('A' for Active; 'I' for Inactive)
REMARK    1  A    between atoms: C_1  and  O_2
REMARK    2  A    between atoms: O_2  and  C_3
REMARK    3  A    between atoms: C_10  and  C_11
REMARK    4  A    between atoms: N_13  and  C_14
REMARK    5  A    between atoms: C_14  and  C_15
REMARK    6  A    between atoms: C_18  and  N_19
REMARK    7  A    between atoms: N_19  and  C_20
REMARK    8  A    between atoms: C_20  and  C_21
REMARK                            x       y       z     vdW  Elec       q    Type
REMARK                         _______ _______ _______ _____ _____    ______ ____
ROOT
ATOM      1  C   UNL     1      48.372   7.297  14.002  0.00  0.00    +0.000 C 
ENDROOT
BRANCH   1   2
ATOM      2  C   UNL     1      47.360   6.447  13.266  0.00  0.00    +0.000 A 
ATOM      3  C   UNL     1      46.888   6.848  12.010  0.00  0.00    +0.000 A 
ATOM      4  C   UNL     1      45.974   6.060  11.293  0.00  0.00    +0.000 A 
ATOM      5  C   UNL     1      45.498   4.851  11.815  0.00  0.00    +0.000 A 
ATOM      6  C   UNL     1      45.920   4.485  13.096  0.00  0.00    +0.000 A 
ATOM      7  C   UNL     1      46.866   5.250  13.802  0.00  0.00    +0.000 A 
BRANCH   5   8
ATOM      8  N   UNL     1      44.603   4.009  11.142  0.00  0.00    +0.000 N 
ATOM      9  H   UNL     1      43.830   3.719  11.743  0.00  0.00    +0.000 HD
BRANCH   8  10
ATOM     10  C   UNL     1      44.176   4.417   9.807  0.00  0.00    +0.000 C 
BRANCH  10  11
ATOM     11  C   UNL     1      44.645   3.409   8.744  0.00  0.00    +0.000 C 
ATOM     12  C   UNL     1      45.777   4.043   7.914  0.00  0.00    +0.000 C 
ATOM     13  C   UNL     1      46.419   3.032   6.969  0.00  0.00    +0.000 C 
ATOM     14  C   UNL     1      46.835   1.768   7.714  0.00  0.00    +0.000 C 
ATOM     15  N   UNL     1      45.691   1.174   8.400  0.00  0.00    +0.000 NA
ATOM     16  C   UNL     1      45.123   2.097   9.389  0.00  0.00    +0.000 C 
ATOM     17  H   UNL     1      45.988   0.322   8.877  0.00  0.00    +0.000 HD
ENDBRANCH  10  11
ENDBRANCH   8  10
ENDBRANCH   5   8
ENDBRANCH   1   2
BRANCH   1  20
ATOM     18  C   UNL     1      49.080   6.729  16.313  0.00  0.00    +0.000 C 
ATOM     19  O   UNL     1      50.128   6.227  15.918  0.00  0.00    +0.000 OA
ATOM     20  N   UNL     1      48.177   7.278  15.429  0.00  0.00    +0.000 N 
ATOM     21  H   UNL     1      47.343   7.727  15.782  0.00  0.00    +0.000 HD
BRANCH  18  29
ATOM     22  C   UNL     1      47.794   9.175  18.358  0.00  0.00    +0.000 A 
ATOM     23  N   UNL     1      47.234   9.915  19.333  0.00  0.00    +0.000 NA
ATOM     24  C   UNL     1      47.048   9.340  20.522  0.00  0.00    +0.000 A 
ATOM     25  N   UNL     1      47.375   8.101  20.875  0.00  0.00    +0.000 NA
ATOM     26  C   UNL     1      47.925   7.397  19.870  0.00  0.00    +0.000 A 
ATOM     27  S   UNL     1      48.421   5.795  20.134  0.00  0.00    +0.000 S 
ATOM     28  C   UNL     1      48.928   5.627  18.520  0.00  0.00    +0.000 A 
ATOM     29  C   UNL     1      48.725   6.763  17.743  0.00  0.00    +0.000 A 
ATOM     30  C   UNL     1      48.156   7.833  18.570  0.00  0.00    +0.000 A 
BRANCH  22  32
ATOM     31  C   UNL     1      49.155  10.524  17.022  0.00  0.00    +0.000 C 
ATOM     32  O   UNL     1      47.958   9.762  17.123  0.00  0.00    +0.000 OA
ENDBRANCH  22  32
ENDBRANCH  18  29
ENDBRANCH   1  20
TORSDOF 7
ENDMDL
MODEL 7
REMARK VINA RESULT:    -7.092      1.381      1.834
REMARK INTER + INTRA:         -11.229
REMARK INTER:                 -10.056
REMARK INTRA:                  -1.173
REMARK UNBOUND:                -1.235
REMARK  Name = 
REMARK  8 active torsions:
REMARK  status: ('A' for Active; 'I' for Inactive)
REMARK    1  A    between atoms: C_1  and  O_2
REMARK    2  A    between atoms: O_2  and  C_3
REMARK    3  A    between atoms: C_10  and  C_11
REMARK    4  A    between atoms: N_13  and  C_14
REMARK    5  A    between atoms: C_14  and  C_15
REMARK    6  A    between atoms: C_18  and  N_19
REMARK    7  A    between atoms: N_19  and  C_20
REMARK    8  A    between atoms: C_20  and  C_21
REMARK                            x       y       z     vdW  Elec       q    Type
REMARK                         _______ _______ _______ _____ _____    ______ ____
ROOT
ATOM      1  C   UNL     1      47.918   8.634  13.725  0.00  0.00    +0.000 C 
ENDROOT
BRANCH   1   2
ATOM      2  C   UNL     1      46.947   7.885  12.840  0.00  0.00    +0.000 A 
ATOM      3  C   UNL     1      45.634   8.344  12.692  0.00  0.00    +0.000 A 
ATOM      4  C   UNL     1      44.724   7.685  11.851  0.00  0.00    +0.000 A 
ATOM      5  C   UNL     1      45.099   6.540  11.138  0.00  0.00    +0.000 A 
ATOM      6  C   UNL     1      46.391   6.045  11.337  0.00  0.00    +0.000 A 
ATOM      7  C   UNL     1      47.318   6.724  12.147  0.00  0.00    +0.000 A 
BRANCH   5   8
ATOM      8  N   UNL     1      44.246   5.849  10.267  0.00  0.00    +0.000 N 
ATOM      9  H   UNL     1      44.471   6.036   9.289  0.00  0.00    +0.000 HD
BRANCH   8  10
ATOM     10  C   UNL     1      44.008   4.436  10.545  0.00  0.00    +0.000 C 
BRANCH  10  11
ATOM     11  C   UNL     1      44.354   3.566   9.325  0.00  0.00    +0.000 C 
ATOM     12  C   UNL     1      45.313   4.345   8.406  0.00  0.00    +0.000 C 
ATOM     13  C   UNL     1      45.848   3.470   7.276  0.00  0.00    +0.000 C 
ATOM     14  C   UNL     1      46.434   2.170   7.816  0.00  0.00    +0.000 C 
ATOM     15  N   UNL     1      45.439   1.442   8.599  0.00  0.00    +0.000 NA
ATOM     16  C   UNL     1      44.988   2.230   9.752  0.00  0.00    +0.000 C 
ATOM     17  H   UNL     1      45.846   0.569   8.936  0.00  0.00    +0.000 HD
ENDBRANCH  10  11
ENDBRANCH   8  10
ENDBRANCH   5   8
ENDBRANCH   1   2
BRANCH   1  20
ATOM     18  C   UNL     1      49.082   7.223  15.404  0.00  0.00    +0.000 C 
ATOM     19  O   UNL     1      49.986   6.954  14.618  0.00  0.00    +0.000 OA
ATOM     20  N   UNL     1      48.040   8.046  15.034  0.00  0.00    +0.000 N 
ATOM     21  H   UNL     1      47.332   8.290  15.713  0.00  0.00    +0.000 HD
BRANCH  18  29
ATOM     22  C   UNL     1      48.263   4.142  16.687  0.00  0.00    +0.000 A 
ATOM     23  N   UNL     1      48.078   3.029  17.421  0.00  0.00    +0.000 NA
ATOM     24  C   UNL     1      48.319   3.100  18.731  0.00  0.00    +0.000 A 
ATOM     25  N   UNL     1      48.709   4.168  19.419  0.00  0.00    +0.000 NA
ATOM     26  C   UNL     1      48.887   5.254  18.646  0.00  0.00    +0.000 A 
ATOM     27  S   UNL     1      49.374   6.720  19.350  0.00  0.00    +0.000 S 
ATOM     28  C   UNL     1      49.397   7.501  17.839  0.00  0.00    +0.000 A 
ATOM     29  C   UNL     1      49.053   6.677  16.772  0.00  0.00    +0.000 A 
ATOM     30  C   UNL     1      48.714   5.340  17.269  0.00  0.00    +0.000 A 
BRANCH  22  32
ATOM     31  C   UNL     1      46.714   4.411  14.959  0.00  0.00    +0.000 C 
ATOM     32  O   UNL     1      48.041   4.058  15.330  0.00  0.00    +0.000 OA
ENDBRANCH  22  32
ENDBRANCH  18  29
ENDBRANCH   1  20
TORSDOF 7
ENDMDL
MODEL 8
REMARK VINA RESULT:    -7.085      2.843      4.734
REMARK INTER + INTRA:         -11.220
REMARK INTER:                 -10.047
REMARK INTRA:                  -1.173
REMARK UNBOUND:                -1.235
REMARK  Name = 
REMARK  8 active torsions:
REMARK  status: ('A' for Active; 'I' for Inactive)
REMARK    1  A    between atoms: C_1  and  O_2
REMARK    2  A    between atoms: O_2  and  C_3
REMARK    3  A    between atoms: C_10  and  C_11
REMARK    4  A    between atoms: N_13  and  C_14
REMARK    5  A    between atoms: C_14  and  C_15
REMARK    6  A    between atoms: C_18  and  N_19
REMARK    7  A    between atoms: N_19  and  C_20
REMARK    8  A    between atoms: C_20  and  C_21
REMARK                            x       y       z     vdW  Elec       q    Type
REMARK                         _______ _______ _______ _____ _____    ______ ____
ROOT
ATOM      1  C   UNL     1      47.287   5.891  14.040  0.00  0.00    +0.000 C 
ENDROOT
BRANCH   1   2
ATOM      2  C   UNL     1      46.464   5.218  12.964  0.00  0.00    +0.000 A 
ATOM      3  C   UNL     1      46.068   3.884  13.114  0.00  0.00    +0.000 A 
ATOM      4  C   UNL     1      45.276   3.248  12.145  0.00  0.00    +0.000 A 
ATOM      5  C   UNL     1      44.864   3.926  10.992  0.00  0.00    +0.000 A 
ATOM      6  C   UNL     1      45.313   5.237  10.813  0.00  0.00    +0.000 A 
ATOM      7  C   UNL     1      46.073   5.892  11.798  0.00  0.00    +0.000 A 
BRANCH   5   8
ATOM      8  N   UNL     1      44.056   3.356   9.998  0.00  0.00    +0.000 N 
ATOM      9  H   UNL     1      43.664   4.064   9.376  0.00  0.00    +0.000 HD
BRANCH   8  10
ATOM     10  C   UNL     1      44.584   2.194   9.292  0.00  0.00    +0.000 C 
BRANCH  10  11
ATOM     11  C   UNL     1      45.856   2.555   8.504  0.00  0.00    +0.000 C 
ATOM     12  C   UNL     1      46.458   1.271   7.904  0.00  0.00    +0.000 C 
ATOM     13  C   UNL     1      47.610   1.579   6.953  0.00  0.00    +0.000 C 
ATOM     14  C   UNL     1      47.202   2.614   5.910  0.00  0.00    +0.000 C 
ATOM     15  N   UNL     1      46.729   3.837   6.553  0.00  0.00    +0.000 NA
ATOM     16  C   UNL     1      45.554   3.576   7.393  0.00  0.00    +0.000 C 
ATOM     17  H   UNL     1      46.478   4.520   5.838  0.00  0.00    +0.000 HD
ENDBRANCH  10  11
ENDBRANCH   8  10
ENDBRANCH   5   8
ENDBRANCH   1   2
BRANCH   1  20
ATOM     18  C   UNL     1      49.278   7.360  14.245  0.00  0.00    +0.000 C 
ATOM     19  O   UNL     1      49.416   7.084  15.433  0.00  0.00    +0.000 OA
ATOM     20  N   UNL     1      48.259   6.807  13.500  0.00  0.00    +0.000 N 
ATOM     21  H   UNL     1      48.194   7.014  12.513  0.00  0.00    +0.000 HD
BRANCH  18  29
ATOM     22  C   UNL     1      48.794   9.681  11.756  0.00  0.00    +0.000 A 
ATOM     23  N   UNL     1      48.856  10.690  10.868  0.00  0.00    +0.000 NA
ATOM     24  C   UNL     1      50.029  11.305  10.705  0.00  0.00    +0.000 A 
ATOM     25  N   UNL     1      51.176  11.022  11.314  0.00  0.00    +0.000 NA
ATOM     26  C   UNL     1      51.066  10.012  12.196  0.00  0.00    +0.000 A 
ATOM     27  S   UNL     1      52.431   9.498  13.064  0.00  0.00    +0.000 S 
ATOM     28  C   UNL     1      51.527   8.326  13.899  0.00  0.00    +0.000 A 
ATOM     29  C   UNL     1      50.179   8.301  13.556  0.00  0.00    +0.000 A 
ATOM     30  C   UNL     1      49.918   9.293  12.507  0.00  0.00    +0.000 A 
BRANCH  22  32
ATOM     31  C   UNL     1      46.507   9.989  12.124  0.00  0.00    +0.000 C 
ATOM     32  O   UNL     1      47.575   9.066  11.942  0.00  0.00    +0.000 OA
ENDBRANCH  22  32
ENDBRANCH  18  29
ENDBRANCH   1  20
TORSDOF 7
ENDMDL
MODEL 9
REMARK VINA RESULT:    -6.870      2.447      3.500
REMARK INTER + INTRA:         -10.916
REMARK INTER:                 -10.005
REMARK INTRA:                  -0.912
REMARK UNBOUND:                -1.235
REMARK  Name = 
REMARK  8 active torsions:
REMARK  status: ('A' for Active; 'I' for Inactive)
REMARK    1  A    between atoms: C_1  and  O_2
REMARK    2  A    between atoms: O_2  and  C_3
REMARK    3  A    between atoms: C_10  and  C_11
REMARK    4  A    between atoms: N_13  and  C_14
REMARK    5  A    between atoms: C_14  and  C_15
REMARK    6  A    between atoms: C_18  and  N_19
REMARK    7  A    between atoms: N_19  and  C_20
REMARK    8  A    between atoms: C_20  and  C_21
REMARK                            x       y       z     vdW  Elec       q    Type
REMARK                         _______ _______ _______ _____ _____    ______ ____
ROOT
ATOM      1  C   UNL     1      46.660   4.598  14.633  0.00  0.00    +0.000 C 
ENDROOT
BRANCH   1   2
ATOM      2  C   UNL     1      46.088   4.675  13.235  0.00  0.00    +0.000 A 
ATOM      3  C   UNL     1      46.390   5.765  12.412  0.00  0.00    +0.000 A 
ATOM      4  C   UNL     1      45.898   5.843  11.100  0.00  0.00    +0.000 A 
ATOM      5  C   UNL     1      45.080   4.835  10.575  0.00  0.00    +0.000 A 
ATOM      6  C   UNL     1      44.726   3.780  11.420  0.00  0.00    +0.000 A 
ATOM      7  C   UNL     1      45.248   3.676  12.721  0.00  0.00    +0.000 A 
BRANCH   5   8
ATOM      8  N   UNL     1      44.574   4.842   9.268  0.00  0.00    +0.000 N 
ATOM      9  H   UNL     1      44.957   5.612   8.717  0.00  0.00    +0.000 HD
BRANCH   8  10
ATOM     10  C   UNL     1      44.556   3.571   8.550  0.00  0.00    +0.000 C 
BRANCH  10  11
ATOM     11  C   UNL     1      45.982   3.110   8.205  0.00  0.00    +0.000 C 
ATOM     12  C   UNL     1      45.983   1.584   8.000  0.00  0.00    +0.000 C 
ATOM     13  C   UNL     1      47.323   1.086   7.468  0.00  0.00    +0.000 C 
ATOM     14  C   UNL     1      47.753   1.873   6.234  0.00  0.00    +0.000 C 
ATOM     15  N   UNL     1      47.819   3.301   6.531  0.00  0.00    +0.000 NA
ATOM     16  C   UNL     1      46.511   3.821   6.946  0.00  0.00    +0.000 C 
ATOM     17  H   UNL     1      48.124   3.806   5.698  0.00  0.00    +0.000 HD
ENDBRANCH  10  11
ENDBRANCH   8  10
ENDBRANCH   5   8
ENDBRANCH   1   2
BRANCH   1  20
ATOM     18  C   UNL     1      48.550   5.710  15.798  0.00  0.00    +0.000 C 
ATOM     19  O   UNL     1      48.930   4.650  16.290  0.00  0.00    +0.000 OA
ATOM     20  N   UNL     1      47.449   5.755  14.972  0.00  0.00    +0.000 N 
ATOM     21  H   UNL     1      47.183   6.631  14.542  0.00  0.00    +0.000 HD
BRANCH  18  29
ATOM     22  C   UNL     1      49.490   7.299  18.698  0.00  0.00    +0.000 A 
ATOM     23  N   UNL     1      50.023   8.075  19.660  0.00  0.00    +0.000 NA
ATOM     24  C   UNL     1      50.686   9.168  19.282  0.00  0.00    +0.000 A 
ATOM     25  N   UNL     1      50.870   9.607  18.041  0.00  0.00    +0.000 NA
ATOM     26  C   UNL     1      50.327   8.799  17.112  0.00  0.00    +0.000 A 
ATOM     27  S   UNL     1      50.450   9.201  15.468  0.00  0.00    +0.000 S 
ATOM     28  C   UNL     1      49.616   7.794  15.005  0.00  0.00    +0.000 A 
ATOM     29  C   UNL     1      49.239   6.984  16.071  0.00  0.00    +0.000 A 
ATOM     30  C   UNL     1      49.637   7.613  17.335  0.00  0.00    +0.000 A 
BRANCH  22  32
ATOM     31  C   UNL     1      47.449   6.370  19.355  0.00  0.00    +0.000 C 
ATOM     32  O   UNL     1      48.830   6.155  19.090  0.00  0.00    +0.000 OA
ENDBRANCH  22  32
ENDBRANCH  18  29
ENDBRANCH   1  20
TORSDOF 7
ENDMDL
