MODEL 1
REMARK VINA RESULT:    -8.498      0.000      0.000
REMARK INTER + INTRA:         -13.141
REMARK INTER:                 -11.975
REMARK INTRA:                  -1.166
REMARK UNBOUND:                -1.166
REMARK  Name = 
REMARK  8 active torsions:
REMARK  status: ('A' for Active; 'I' for Inactive)
REMARK    1  A    between atoms: C_1  and  C_2
REMARK    2  A    between atoms: C_2  and  N_3
REMARK    3  A    between atoms: C_2  and  C_25
REMARK    4  A    between atoms: N_3  and  C_4
REMARK    5  A    between atoms: C_4  and  C_5
REMARK    6  A    between atoms: C_8  and  C_9
REMARK    7  A    between atoms: C_9  and  N_10
REMARK    8  A    between atoms: C_11  and  C_13
REMARK                            x       y       z     vdW  Elec       q    Type
REMARK                         _______ _______ _______ _____ _____    ______ ____
ROOT
ATOM      1  C   UNL     1      44.516   5.709  10.997  0.00  0.00    +0.000 A 
ATOM      2  C   UNL     1      45.857   5.846  10.638  0.00  0.00    +0.000 A 
ATOM      3  C   UNL     1      46.705   6.646  11.405  0.00  0.00    +0.000 A 
ATOM      4  C   UNL     1      46.195   7.289  12.531  0.00  0.00    +0.000 A 
ATOM      5  N   UNL     1      44.892   7.187  12.891  0.00  0.00    +0.000 NA
ATOM      6  C   UNL     1      44.092   6.403  12.126  0.00  0.00    +0.000 A 
ENDROOT
BRANCH   1   7
ATOM      7  C   UNL     1      43.585   4.794  10.248  0.00  0.00    +0.000 C 
BRANCH   7   8
ATOM      8  N   UNL     1      44.212   4.208   9.063  0.00  0.00    +0.000 NA
ATOM      9  H   UNL     1      44.843   4.898   8.654  0.00  0.00    +0.000 HD
BRANCH   8  11
ATOM     10  C   UNL     1      44.149   1.774   9.718  0.00  0.00    +0.000 C 
ATOM     11  C   UNL     1      45.004   3.001   9.361  0.00  0.00    +0.000 C 
BRANCH  11  12
ATOM     12  C   UNL     1      45.912   2.663   8.181  0.00  0.00    +0.000 A 
ATOM     13  C   UNL     1      46.401   1.357   8.011  0.00  0.00    +0.000 A 
ATOM     14  C   UNL     1      47.164   1.019   6.889  0.00  0.00    +0.000 A 
ATOM     15  C   UNL     1      47.457   1.983   5.927  0.00  0.00    +0.000 A 
ATOM     16  C   UNL     1      47.008   3.290   6.095  0.00  0.00    +0.000 A 
ATOM     17  C   UNL     1      46.244   3.628   7.214  0.00  0.00    +0.000 A 
ENDBRANCH  11  12
ENDBRANCH   8  11
ENDBRANCH   7   8
ENDBRANCH   1   7
BRANCH   4  18
ATOM     18  C   UNL     1      47.086   8.177  13.374  0.00  0.00    +0.000 C 
BRANCH  18  19
ATOM     19  N   UNL     1      47.531   7.492  14.565  0.00  0.00    +0.000 N 
ATOM     20  C   UNL     1      48.776   6.937  14.681  0.00  0.00    +0.000 C 
ATOM     21  O   UNL     1      49.615   7.017  13.789  0.00  0.00    +0.000 OA
ATOM     22  H   UNL     1      46.786   7.182  15.184  0.00  0.00    +0.000 HD
BRANCH  20  23
ATOM     23  C   UNL     1      49.086   6.305  15.968  0.00  0.00    +0.000 A 
ATOM     24  C   UNL     1      50.092   6.827  16.769  0.00  0.00    +0.000 A 
ATOM     25  S   UNL     1      50.282   6.005  18.252  0.00  0.00    +0.000 S 
ATOM     26  C   UNL     1      49.059   4.892  17.854  0.00  0.00    +0.000 A 
ATOM     27  N   UNL     1      48.733   3.877  18.700  0.00  0.00    +0.000 NA
ATOM     28  C   UNL     1      47.804   3.097  18.261  0.00  0.00    +0.000 A 
ATOM     29  N   UNL     1      47.165   3.241  17.058  0.00  0.00    +0.000 N 
ATOM     30  C   UNL     1      47.438   4.264  16.187  0.00  0.00    +0.000 A 
ATOM     31  O   UNL     1      46.813   4.398  15.139  0.00  0.00    +0.000 OA
ATOM     32  C   UNL     1      48.492   5.163  16.621  0.00  0.00    +0.000 A 
ATOM     33  H   UNL     1      46.431   2.608  16.782  0.00  0.00    +0.000 HD
ENDBRANCH  20  23
ENDBRANCH  18  19
ENDBRANCH   4  18
TORSDOF 7
ENDMDL
MODEL 2
REMARK VINA RESULT:    -8.375      1.886      2.401
REMARK INTER + INTRA:         -12.969
REMARK INTER:                 -12.152
REMARK INTRA:                  -0.816
REMARK UNBOUND:                -1.166
REMARK  Name = 
REMARK  8 active torsions:
REMARK  status: ('A' for Active; 'I' for Inactive)
REMARK    1  A    between atoms: C_1  and  C_2
REMARK    2  A    between atoms: C_2  and  N_3
REMARK    3  A    between atoms: C_2  and  C_25
REMARK    4  A    between atoms: N_3  and  C_4
REMARK    5  A    between atoms: C_4  and  C_5
REMARK    6  A    between atoms: C_8  and  C_9
REMARK    7  A    between atoms: C_9  and  N_10
REMARK    8  A    between atoms: C_11  and  C_13
REMARK                            x       y       z     vdW  Elec       q    Type
REMARK                         _______ _______ _______ _____ _____    ______ ____
ROOT
ATOM      1  C   UNL     1      45.379   4.359  12.501  0.00  0.00    +0.000 A 
ATOM      2  C   UNL     1      45.314   5.722  12.211  0.00  0.00    +0.000 A 
ATOM      3  C   UNL     1      46.294   6.587  12.699  0.00  0.00    +0.000 A 
ATOM      4  C   UNL     1      47.337   6.066  13.463  0.00  0.00    +0.000 A 
ATOM      5  N   UNL     1      47.414   4.749  13.774  0.00  0.00    +0.000 NA
ATOM      6  C   UNL     1      46.446   3.934  13.287  0.00  0.00    +0.000 A 
ENDROOT
BRANCH   1   7
ATOM      7  C   UNL     1      44.390   3.379  11.930  0.00  0.00    +0.000 C 
BRANCH   7   8
ATOM      8  N   UNL     1      44.963   2.571  10.854  0.00  0.00    +0.000 NA
ATOM      9  H   UNL     1      44.742   1.590  11.029  0.00  0.00    +0.000 HD
BRANCH   8  11
ATOM     10  C   UNL     1      44.013   4.389   9.388  0.00  0.00    +0.000 C 
ATOM     11  C   UNL     1      44.432   2.916   9.522  0.00  0.00    +0.000 C 
BRANCH  11  12
ATOM     12  C   UNL     1      45.458   2.577   8.443  0.00  0.00    +0.000 A 
ATOM     13  C   UNL     1      45.909   3.568   7.556  0.00  0.00    +0.000 A 
ATOM     14  C   UNL     1      46.908   3.288   6.618  0.00  0.00    +0.000 A 
ATOM     15  C   UNL     1      47.464   2.011   6.549  0.00  0.00    +0.000 A 
ATOM     16  C   UNL     1      47.006   1.009   7.400  0.00  0.00    +0.000 A 
ATOM     17  C   UNL     1      46.009   1.289   8.337  0.00  0.00    +0.000 A 
ENDBRANCH  11  12
ENDBRANCH   8  11
ENDBRANCH   7   8
ENDBRANCH   1   7
BRANCH   4  18
ATOM     18  C   UNL     1      48.407   6.980  14.020  0.00  0.00    +0.000 C 
BRANCH  18  19
ATOM     19  N   UNL     1      48.358   7.024  15.463  0.00  0.00    +0.000 N 
ATOM     20  C   UNL     1      49.436   6.723  16.252  0.00  0.00    +0.000 C 
ATOM     21  O   UNL     1      50.531   6.431  15.782  0.00  0.00    +0.000 OA
ATOM     22  H   UNL     1      47.423   6.991  15.861  0.00  0.00    +0.000 HD
BRANCH  20  23
ATOM     23  C   UNL     1      49.232   6.847  17.699  0.00  0.00    +0.000 A 
ATOM     24  C   UNL     1      49.261   8.100  18.296  0.00  0.00    +0.000 A 
ATOM     25  S   UNL     1      48.952   8.066  19.973  0.00  0.00    +0.000 S 
ATOM     26  C   UNL     1      48.820   6.371  19.970  0.00  0.00    +0.000 A 
ATOM     27  N   UNL     1      48.588   5.684  21.122  0.00  0.00    +0.000 NA
ATOM     28  C   UNL     1      48.534   4.404  20.976  0.00  0.00    +0.000 A 
ATOM     29  N   UNL     1      48.681   3.746  19.784  0.00  0.00    +0.000 N 
ATOM     30  C   UNL     1      48.886   4.396  18.593  0.00  0.00    +0.000 A 
ATOM     31  O   UNL     1      48.963   3.783  17.533  0.00  0.00    +0.000 OA
ATOM     32  C   UNL     1      48.977   5.840  18.702  0.00  0.00    +0.000 A 
ATOM     33  H   UNL     1      48.605   2.742  19.732  0.00  0.00    +0.000 HD
ENDBRANCH  20  23
ENDBRANCH  18  19
ENDBRANCH   4  18
TORSDOF 7
ENDMDL
MODEL 3
REMARK VINA RESULT:    -8.031      1.953      2.376
REMARK INTER + INTRA:         -12.484
REMARK INTER:                 -11.406
REMARK INTRA:                  -1.078
REMARK UNBOUND:                -1.166
REMARK  Name = 
REMARK  8 active torsions:
REMARK  status: ('A' for Active; 'I' for Inactive)
REMARK    1  A    between atoms: C_1  and  C_2
REMARK    2  A    between atoms: C_2  and  N_3
REMARK    3  A    between atoms: C_2  and  C_25
REMARK    4  A    between atoms: N_3  and  C_4
REMARK    5  A    between atoms: C_4  and  C_5
REMARK    6  A    between atoms: C_8  and  C_9
REMARK    7  A    between atoms: C_9  and  N_10
REMARK    8  A    between atoms: C_11  and  C_13
REMARK                            x       y       z     vdW  Elec       q    Type
REMARK                         _______ _______ _______ _____ _____    ______ ____
ROOT
ATOM      1  C   UNL     1      44.808   5.235  11.224  0.00  0.00    +0.000 A 
ATOM      2  C   UNL     1      44.929   4.794  12.543  0.00  0.00    +0.000 A 
ATOM      3  C   UNL     1      45.951   5.291  13.352  0.00  0.00    +0.000 A 
ATOM      4  C   UNL     1      46.831   6.237  12.829  0.00  0.00    +0.000 A 
ATOM      5  N   UNL     1      46.745   6.668  11.546  0.00  0.00    +0.000 NA
ATOM      6  C   UNL     1      45.743   6.166  10.783  0.00  0.00    +0.000 A 
ENDROOT
BRANCH   1   7
ATOM      7  C   UNL     1      43.675   4.788  10.340  0.00  0.00    +0.000 C 
BRANCH   7   8
ATOM      8  N   UNL     1      44.144   4.172   9.100  0.00  0.00    +0.000 NA
ATOM      9  H   UNL     1      44.735   4.842   8.606  0.00  0.00    +0.000 HD
BRANCH   8  11
ATOM     10  C   UNL     1      44.096   1.696   9.577  0.00  0.00    +0.000 C 
ATOM     11  C   UNL     1      44.944   2.954   9.322  0.00  0.00    +0.000 C 
BRANCH  11  12
ATOM     12  C   UNL     1      45.873   2.710   8.134  0.00  0.00    +0.000 A 
ATOM     13  C   UNL     1      46.502   1.465   7.968  0.00  0.00    +0.000 A 
ATOM     14  C   UNL     1      47.288   1.206   6.841  0.00  0.00    +0.000 A 
ATOM     15  C   UNL     1      47.462   2.189   5.869  0.00  0.00    +0.000 A 
ATOM     16  C   UNL     1      46.871   3.439   6.033  0.00  0.00    +0.000 A 
ATOM     17  C   UNL     1      46.085   3.698   7.158  0.00  0.00    +0.000 A 
ENDBRANCH  11  12
ENDBRANCH   8  11
ENDBRANCH   7   8
ENDBRANCH   1   7
BRANCH   4  18
ATOM     18  C   UNL     1      47.959   6.783  13.677  0.00  0.00    +0.000 C 
BRANCH  18  19
ATOM     19  N   UNL     1      47.889   6.280  15.029  0.00  0.00    +0.000 N 
ATOM     20  C   UNL     1      48.982   6.201  15.849  0.00  0.00    +0.000 C 
ATOM     21  O   UNL     1      50.092   6.589  15.501  0.00  0.00    +0.000 OA
ATOM     22  H   UNL     1      47.069   5.715  15.233  0.00  0.00    +0.000 HD
BRANCH  20  23
ATOM     23  C   UNL     1      48.737   5.697  17.205  0.00  0.00    +0.000 A 
ATOM     24  C   UNL     1      48.919   4.350  17.484  0.00  0.00    +0.000 A 
ATOM     25  S   UNL     1      48.644   3.947  19.119  0.00  0.00    +0.000 S 
ATOM     26  C   UNL     1      48.223   5.550  19.500  0.00  0.00    +0.000 A 
ATOM     27  N   UNL     1      47.840   5.894  20.761  0.00  0.00    +0.000 NA
ATOM     28  C   UNL     1      47.528   7.137  20.901  0.00  0.00    +0.000 A 
ATOM     29  N   UNL     1      47.571   8.072  19.901  0.00  0.00    +0.000 N 
ATOM     30  C   UNL     1      47.978   7.780  18.624  0.00  0.00    +0.000 A 
ATOM     31  O   UNL     1      48.055   8.650  17.761  0.00  0.00    +0.000 OA
ATOM     32  C   UNL     1      48.322   6.387  18.403  0.00  0.00    +0.000 A 
ATOM     33  H   UNL     1      47.335   9.035  20.080  0.00  0.00    +0.000 HD
ENDBRANCH  20  23
ENDBRANCH  18  19
ENDBRANCH   4  18
TORSDOF 7
ENDMDL
MODEL 4
REMARK VINA RESULT:    -7.697      2.721      3.595
REMARK INTER + INTRA:         -12.012
REMARK INTER:                 -11.252
REMARK INTRA:                  -0.760
REMARK UNBOUND:                -1.166
REMARK  Name = 
REMARK  8 active torsions:
REMARK  status: ('A' for Active; 'I' for Inactive)
REMARK    1  A    between atoms: C_1  and  C_2
REMARK    2  A    between atoms: C_2  and  N_3
REMARK    3  A    between atoms: C_2  and  C_25
REMARK    4  A    between atoms: N_3  and  C_4
REMARK    5  A    between atoms: C_4  and  C_5
REMARK    6  A    between atoms: C_8  and  C_9
REMARK    7  A    between atoms: C_9  and  N_10
REMARK    8  A    between atoms: C_11  and  C_13
REMARK                            x       y       z     vdW  Elec       q    Type
REMARK                         _______ _______ _______ _____ _____    ______ ____
ROOT
ATOM      1  C   UNL     1      46.367   4.254  13.145  0.00  0.00    +0.000 A 
ATOM      2  C   UNL     1      46.743   5.525  12.709  0.00  0.00    +0.000 A 
ATOM      3  C   UNL     1      47.521   6.341  13.531  0.00  0.00    +0.000 A 
ATOM      4  C   UNL     1      47.922   5.863  14.776  0.00  0.00    +0.000 A 
ATOM      5  N   UNL     1      47.555   4.639  15.231  0.00  0.00    +0.000 NA
ATOM      6  C   UNL     1      46.798   3.869  14.410  0.00  0.00    +0.000 A 
ENDROOT
BRANCH   1   7
ATOM      7  C   UNL     1      45.598   3.309  12.261  0.00  0.00    +0.000 C 
BRANCH   7   8
ATOM      8  N   UNL     1      44.153   3.522  12.341  0.00  0.00    +0.000 NA
ATOM      9  H   UNL     1      43.967   4.234  13.047  0.00  0.00    +0.000 HD
BRANCH   8  11
ATOM     10  C   UNL     1      43.373   5.512  11.004  0.00  0.00    +0.000 C 
ATOM     11  C   UNL     1      43.563   3.988  11.073  0.00  0.00    +0.000 C 
BRANCH  11  12
ATOM     12  C   UNL     1      44.418   3.528   9.894  0.00  0.00    +0.000 A 
ATOM     13  C   UNL     1      45.072   4.468   9.081  0.00  0.00    +0.000 A 
ATOM     14  C   UNL     1      45.923   4.054   8.051  0.00  0.00    +0.000 A 
ATOM     15  C   UNL     1      46.125   2.695   7.814  0.00  0.00    +0.000 A 
ATOM     16  C   UNL     1      45.460   1.750   8.591  0.00  0.00    +0.000 A 
ATOM     17  C   UNL     1      44.612   2.163   9.621  0.00  0.00    +0.000 A 
ENDBRANCH  11  12
ENDBRANCH   8  11
ENDBRANCH   7   8
ENDBRANCH   1   7
BRANCH   4  18
ATOM     18  C   UNL     1      48.752   6.731  15.697  0.00  0.00    +0.000 C 
BRANCH  18  19
ATOM     19  N   UNL     1      49.852   5.987  16.266  0.00  0.00    +0.000 N 
ATOM     20  C   UNL     1      49.823   5.472  17.533  0.00  0.00    +0.000 C 
ATOM     21  O   UNL     1      48.841   5.575  18.261  0.00  0.00    +0.000 OA
ATOM     22  H   UNL     1      50.747   6.126  15.803  0.00  0.00    +0.000 HD
BRANCH  20  23
ATOM     23  C   UNL     1      51.008   4.713  17.950  0.00  0.00    +0.000 A 
ATOM     24  C   UNL     1      52.044   5.359  18.612  0.00  0.00    +0.000 A 
ATOM     25  S   UNL     1      53.316   4.319  19.071  0.00  0.00    +0.000 S 
ATOM     26  C   UNL     1      52.550   2.979  18.357  0.00  0.00    +0.000 A 
ATOM     27  N   UNL     1      53.137   1.750  18.366  0.00  0.00    +0.000 NA
ATOM     28  C   UNL     1      52.456   0.832  17.769  0.00  0.00    +0.000 A 
ATOM     29  N   UNL     1      51.238   1.025  17.172  0.00  0.00    +0.000 N 
ATOM     30  C   UNL     1      50.595   2.236  17.164  0.00  0.00    +0.000 A 
ATOM     31  O   UNL     1      49.480   2.367  16.666  0.00  0.00    +0.000 OA
ATOM     32  C   UNL     1      51.327   3.313  17.804  0.00  0.00    +0.000 A 
ATOM     33  H   UNL     1      50.745   0.259  16.740  0.00  0.00    +0.000 HD
ENDBRANCH  20  23
ENDBRANCH  18  19
ENDBRANCH   4  18
TORSDOF 7
ENDMDL
MODEL 5
REMARK VINA RESULT:    -7.429      2.929      8.479
REMARK INTER + INTRA:         -11.635
REMARK INTER:                 -10.127
REMARK INTRA:                  -1.508
REMARK UNBOUND:                -1.166
REMARK  Name = 
REMARK  8 active torsions:
REMARK  status: ('A' for Active; 'I' for Inactive)
REMARK    1  A    between atoms: C_1  and  C_2
REMARK    2  A    between atoms: C_2  and  N_3
REMARK    3  A    between atoms: C_2  and  C_25
REMARK    4  A    between atoms: N_3  and  C_4
REMARK    5  A    between atoms: C_4  and  C_5
REMARK    6  A    between atoms: C_8  and  C_9
REMARK    7  A    between atoms: C_9  and  N_10
REMARK    8  A    between atoms: C_11  and  C_13
REMARK                            x       y       z     vdW  Elec       q    Type
REMARK                         _______ _______ _______ _____ _____    ______ ____
ROOT
ATOM      1  C   UNL     1      48.884   7.806  16.219  0.00  0.00    +0.000 A 
ATOM      2  C   UNL     1      48.269   8.920  15.646  0.00  0.00    +0.000 A 
ATOM      3  C   UNL     1      47.843   8.875  14.318  0.00  0.00    +0.000 A 
ATOM      4  C   UNL     1      48.030   7.703  13.586  0.00  0.00    +0.000 A 
ATOM      5  N   UNL     1      48.640   6.614  14.114  0.00  0.00    +0.000 NA
ATOM      6  C   UNL     1      49.045   6.688  15.406  0.00  0.00    +0.000 A 
ENDROOT
BRANCH   1   7
ATOM      7  C   UNL     1      49.286   7.782  17.669  0.00  0.00    +0.000 C 
BRANCH   7   8
ATOM      8  N   UNL     1      48.254   7.197  18.525  0.00  0.00    +0.000 NA
ATOM      9  H   UNL     1      47.489   6.867  17.934  0.00  0.00    +0.000 HD
BRANCH   8  11
ATOM     10  C   UNL     1      47.953   5.827  20.619  0.00  0.00    +0.000 C 
ATOM     11  C   UNL     1      48.734   6.049  19.314  0.00  0.00    +0.000 C 
BRANCH  11  12
ATOM     12  C   UNL     1      48.690   4.776  18.471  0.00  0.00    +0.000 A 
ATOM     13  C   UNL     1      47.499   4.382  17.841  0.00  0.00    +0.000 A 
ATOM     14  C   UNL     1      47.470   3.264  17.000  0.00  0.00    +0.000 A 
ATOM     15  C   UNL     1      48.629   2.520  16.787  0.00  0.00    +0.000 A 
ATOM     16  C   UNL     1      49.811   2.879  17.428  0.00  0.00    +0.000 A 
ATOM     17  C   UNL     1      49.841   3.996  18.266  0.00  0.00    +0.000 A 
ENDBRANCH  11  12
ENDBRANCH   8  11
ENDBRANCH   7   8
ENDBRANCH   1   7
BRANCH   4  18
ATOM     18  C   UNL     1      47.593   7.628  12.139  0.00  0.00    +0.000 C 
BRANCH  18  19
ATOM     19  N   UNL     1      46.858   6.413  11.877  0.00  0.00    +0.000 N 
ATOM     20  C   UNL     1      45.492   6.374  11.794  0.00  0.00    +0.000 C 
ATOM     21  O   UNL     1      44.801   7.382  11.900  0.00  0.00    +0.000 OA
ATOM     22  H   UNL     1      47.372   5.554  12.058  0.00  0.00    +0.000 HD
BRANCH  20  23
ATOM     23  C   UNL     1      44.899   5.067  11.489  0.00  0.00    +0.000 A 
ATOM     24  C   UNL     1      44.156   4.404  12.456  0.00  0.00    +0.000 A 
ATOM     25  S   UNL     1      43.495   2.927  11.917  0.00  0.00    +0.000 S 
ATOM     26  C   UNL     1      44.222   3.097  10.388  0.00  0.00    +0.000 A 
ATOM     27  N   UNL     1      44.079   2.137   9.434  0.00  0.00    +0.000 NA
ATOM     28  C   UNL     1      44.702   2.387   8.332  0.00  0.00    +0.000 A 
ATOM     29  N   UNL     1      45.447   3.510   8.092  0.00  0.00    +0.000 N 
ATOM     30  C   UNL     1      45.595   4.518   9.011  0.00  0.00    +0.000 A 
ATOM     31  O   UNL     1      46.227   5.537   8.750  0.00  0.00    +0.000 OA
ATOM     32  C   UNL     1      44.932   4.280  10.280  0.00  0.00    +0.000 A 
ATOM     33  H   UNL     1      45.892   3.657   7.200  0.00  0.00    +0.000 HD
ENDBRANCH  20  23
ENDBRANCH  18  19
ENDBRANCH   4  18
TORSDOF 7
ENDMDL
MODEL 6
REMARK VINA RESULT:    -7.152      3.253      7.989
REMARK INTER + INTRA:         -11.244
REMARK INTER:                  -9.927
REMARK INTRA:                  -1.316
REMARK UNBOUND:                -1.166
REMARK  Name = 
REMARK  8 active torsions:
REMARK  status: ('A' for Active; 'I' for Inactive)
REMARK    1  A    between atoms: C_1  and  C_2
REMARK    2  A    between atoms: C_2  and  N_3
REMARK    3  A    between atoms: C_2  and  C_25
REMARK    4  A    between atoms: N_3  and  C_4
REMARK    5  A    between atoms: C_4  and  C_5
REMARK    6  A    between atoms: C_8  and  C_9
REMARK    7  A    between atoms: C_9  and  N_10
REMARK    8  A    between atoms: C_11  and  C_13
REMARK                            x       y       z     vdW  Elec       q    Type
REMARK                         _______ _______ _______ _____ _____    ______ ____
ROOT
ATOM      1  C   UNL     1      48.620   7.859  16.210  0.00  0.00    +0.000 A 
ATOM      2  C   UNL     1      48.327   9.069  15.579  0.00  0.00    +0.000 A 
ATOM      3  C   UNL     1      48.259   9.129  14.187  0.00  0.00    +0.000 A 
ATOM      4  C   UNL     1      48.473   7.968  13.447  0.00  0.00    +0.000 A 
ATOM      5  N   UNL     1      48.775   6.784  14.035  0.00  0.00    +0.000 NA
ATOM      6  C   UNL     1      48.837   6.757  15.390  0.00  0.00    +0.000 A 
ENDROOT
BRANCH   1   7
ATOM      7  C   UNL     1      48.624   7.729  17.710  0.00  0.00    +0.000 C 
BRANCH   7   8
ATOM      8  N   UNL     1      47.939   6.521  18.168  0.00  0.00    +0.000 NA
ATOM      9  H   UNL     1      47.586   6.018  17.353  0.00  0.00    +0.000 HD
BRANCH   8  11
ATOM     10  C   UNL     1      48.252   5.176  20.277  0.00  0.00    +0.000 C 
ATOM     11  C   UNL     1      48.818   5.600  18.912  0.00  0.00    +0.000 C 
BRANCH  11  12
ATOM     12  C   UNL     1      49.111   4.358  18.073  0.00  0.00    +0.000 A 
ATOM     13  C   UNL     1      50.393   3.786  18.075  0.00  0.00    +0.000 A 
ATOM     14  C   UNL     1      50.649   2.602  17.376  0.00  0.00    +0.000 A 
ATOM     15  C   UNL     1      49.629   1.979  16.658  0.00  0.00    +0.000 A 
ATOM     16  C   UNL     1      48.360   2.550  16.620  0.00  0.00    +0.000 A 
ATOM     17  C   UNL     1      48.103   3.732  17.320  0.00  0.00    +0.000 A 
ENDBRANCH  11  12
ENDBRANCH   8  11
ENDBRANCH   7   8
ENDBRANCH   1   7
BRANCH   4  18
ATOM     18  C   UNL     1      48.421   8.004  11.935  0.00  0.00    +0.000 C 
BRANCH  18  19
ATOM     19  N   UNL     1      47.654   6.898  11.411  0.00  0.00    +0.000 N 
ATOM     20  C   UNL     1      46.286   6.903  11.357  0.00  0.00    +0.000 C 
ATOM     21  O   UNL     1      45.619   7.867  11.717  0.00  0.00    +0.000 OA
ATOM     22  H   UNL     1      48.152   6.013  11.369  0.00  0.00    +0.000 HD
BRANCH  20  23
ATOM     23  C   UNL     1      45.658   5.716  10.766  0.00  0.00    +0.000 A 
ATOM     24  C   UNL     1      45.796   5.466   9.407  0.00  0.00    +0.000 A 
ATOM     25  S   UNL     1      45.050   4.018   8.899  0.00  0.00    +0.000 S 
ATOM     26  C   UNL     1      44.474   3.700  10.468  0.00  0.00    +0.000 A 
ATOM     27  N   UNL     1      43.713   2.602  10.725  0.00  0.00    +0.000 NA
ATOM     28  C   UNL     1      43.327   2.498  11.952  0.00  0.00    +0.000 A 
ATOM     29  N   UNL     1      43.638   3.386  12.947  0.00  0.00    +0.000 N 
ATOM     30  C   UNL     1      44.426   4.490  12.742  0.00  0.00    +0.000 A 
ATOM     31  O   UNL     1      44.731   5.241  13.665  0.00  0.00    +0.000 OA
ATOM     32  C   UNL     1      44.872   4.668  11.373  0.00  0.00    +0.000 A 
ATOM     33  H   UNL     1      43.323   3.237  13.893  0.00  0.00    +0.000 HD
ENDBRANCH  20  23
ENDBRANCH  18  19
ENDBRANCH   4  18
TORSDOF 7
ENDMDL
MODEL 7
REMARK VINA RESULT:    -7.016      3.356      5.860
REMARK INTER + INTRA:         -11.053
REMARK INTER:                  -9.836
REMARK INTRA:                  -1.217
REMARK UNBOUND:                -1.166
REMARK  Name = 
REMARK  8 active torsions:
REMARK  status: ('A' for Active; 'I' for Inactive)
REMARK    1  A    between atoms: C_1  and  C_2
REMARK    2  A    between atoms: C_2  and  N_3
REMARK    3  A    between atoms: C_2  and  C_25
REMARK    4  A    between atoms: N_3  and  C_4
REMARK    5  A    between atoms: C_4  and  C_5
REMARK    6  A    between atoms: C_8  and  C_9
REMARK    7  A    between atoms: C_9  and  N_10
REMARK    8  A    between atoms: C_11  and  C_13
REMARK                            x       y       z     vdW  Elec       q    Type
REMARK                         _______ _______ _______ _____ _____    ______ ____
ROOT
ATOM      1  C   UNL     1      47.580   5.800  14.637  0.00  0.00    +0.000 A 
ATOM      2  C   UNL     1      48.378   6.164  15.722  0.00  0.00    +0.000 A 
ATOM      3  C   UNL     1      48.591   5.260  16.764  0.00  0.00    +0.000 A 
ATOM      4  C   UNL     1      48.009   3.995  16.693  0.00  0.00    +0.000 A 
ATOM      5  N   UNL     1      47.216   3.624  15.658  0.00  0.00    +0.000 NA
ATOM      6  C   UNL     1      47.026   4.524  14.662  0.00  0.00    +0.000 A 
ENDROOT
BRANCH   1   7
ATOM      7  C   UNL     1      47.388   6.711  13.454  0.00  0.00    +0.000 C 
BRANCH   7   8
ATOM      8  N   UNL     1      45.981   7.040  13.226  0.00  0.00    +0.000 NA
ATOM      9  H   UNL     1      45.847   8.036  13.402  0.00  0.00    +0.000 HD
BRANCH   8  11
ATOM     10  C   UNL     1      46.690   6.687  10.832  0.00  0.00    +0.000 C 
ATOM     11  C   UNL     1      45.538   6.768  11.846  0.00  0.00    +0.000 C 
BRANCH  11  12
ATOM     12  C   UNL     1      44.726   5.475  11.800  0.00  0.00    +0.000 A 
ATOM     13  C   UNL     1      44.740   4.669  10.650  0.00  0.00    +0.000 A 
ATOM     14  C   UNL     1      44.067   3.443  10.628  0.00  0.00    +0.000 A 
ATOM     15  C   UNL     1      43.364   3.011  11.751  0.00  0.00    +0.000 A 
ATOM     16  C   UNL     1      43.315   3.812  12.888  0.00  0.00    +0.000 A 
ATOM     17  C   UNL     1      43.988   5.036  12.912  0.00  0.00    +0.000 A 
ENDBRANCH  11  12
ENDBRANCH   8  11
ENDBRANCH   7   8
ENDBRANCH   1   7
BRANCH   4  18
ATOM     18  C   UNL     1      48.209   2.998  17.814  0.00  0.00    +0.000 C 
BRANCH  18  19
ATOM     19  N   UNL     1      49.612   2.772  18.070  0.00  0.00    +0.000 N 
ATOM     20  C   UNL     1      50.420   2.073  17.215  0.00  0.00    +0.000 C 
ATOM     21  O   UNL     1      50.011   1.621  16.150  0.00  0.00    +0.000 OA
ATOM     22  H   UNL     1      49.895   2.890  19.040  0.00  0.00    +0.000 HD
BRANCH  20  23
ATOM     23  C   UNL     1      51.830   1.960  17.603  0.00  0.00    +0.000 A 
ATOM     24  C   UNL     1      52.391   0.707  17.808  0.00  0.00    +0.000 A 
ATOM     25  S   UNL     1      54.051   0.756  18.200  0.00  0.00    +0.000 S 
ATOM     26  C   UNL     1      54.065   2.457  18.160  0.00  0.00    +0.000 A 
ATOM     27  N   UNL     1      55.199   3.155  18.444  0.00  0.00    +0.000 NA
ATOM     28  C   UNL     1      55.059   4.436  18.398  0.00  0.00    +0.000 A 
ATOM     29  N   UNL     1      53.894   5.085  18.086  0.00  0.00    +0.000 N 
ATOM     30  C   UNL     1      52.735   4.425  17.764  0.00  0.00    +0.000 A 
ATOM     31  O   UNL     1      51.720   5.034  17.439  0.00  0.00    +0.000 OA
ATOM     32  C   UNL     1      52.829   2.978  17.821  0.00  0.00    +0.000 A 
ATOM     33  H   UNL     1      53.856   6.092  18.045  0.00  0.00    +0.000 HD
ENDBRANCH  20  23
ENDBRANCH  18  19
ENDBRANCH   4  18
TORSDOF 7
ENDMDL
MODEL 8
REMARK VINA RESULT:    -6.532      2.888      3.793
REMARK INTER + INTRA:         -10.371
REMARK INTER:                  -9.326
REMARK INTRA:                  -1.045
REMARK UNBOUND:                -1.166
REMARK  Name = 
REMARK  8 active torsions:
REMARK  status: ('A' for Active; 'I' for Inactive)
REMARK    1  A    between atoms: C_1  and  C_2
REMARK    2  A    between atoms: C_2  and  N_3
REMARK    3  A    between atoms: C_2  and  C_25
REMARK    4  A    between atoms: N_3  and  C_4
REMARK    5  A    between atoms: C_4  and  C_5
REMARK    6  A    between atoms: C_8  and  C_9
REMARK    7  A    between atoms: C_9  and  N_10
REMARK    8  A    between atoms: C_11  and  C_13
REMARK                            x       y       z     vdW  Elec       q    Type
REMARK                         _______ _______ _______ _____ _____    ______ ____
ROOT
ATOM      1  C   UNL     1      45.904   4.408  12.508  0.00  0.00    +0.000 A 
ATOM      2  C   UNL     1      46.480   3.260  13.053  0.00  0.00    +0.000 A 
ATOM      3  C   UNL     1      47.109   3.320  14.298  0.00  0.00    +0.000 A 
ATOM      4  C   UNL     1      47.138   4.532  14.985  0.00  0.00    +0.000 A 
ATOM      5  N   UNL     1      46.601   5.665  14.469  0.00  0.00    +0.000 NA
ATOM      6  C   UNL     1      45.999   5.576  13.257  0.00  0.00    +0.000 A 
ENDROOT
BRANCH   1   7
ATOM      7  C   UNL     1      45.146   4.373  11.208  0.00  0.00    +0.000 C 
BRANCH   7   8
ATOM      8  N   UNL     1      45.026   3.018  10.669  0.00  0.00    +0.000 NA
ATOM      9  H   UNL     1      44.363   2.496  11.244  0.00  0.00    +0.000 HD
BRANCH   8  11
ATOM     10  C   UNL     1      43.989   4.339   8.788  0.00  0.00    +0.000 C 
ATOM     11  C   UNL     1      44.531   2.987   9.281  0.00  0.00    +0.000 C 
BRANCH  11  12
ATOM     12  C   UNL     1      45.633   2.507   8.340  0.00  0.00    +0.000 A 
ATOM     13  C   UNL     1      46.357   3.427   7.564  0.00  0.00    +0.000 A 
ATOM     14  C   UNL     1      47.423   3.006   6.763  0.00  0.00    +0.000 A 
ATOM     15  C   UNL     1      47.773   1.657   6.718  0.00  0.00    +0.000 A 
ATOM     16  C   UNL     1      47.046   0.727   7.456  0.00  0.00    +0.000 A 
ATOM     17  C   UNL     1      45.983   1.148   8.258  0.00  0.00    +0.000 A 
ENDBRANCH  11  12
ENDBRANCH   8  11
ENDBRANCH   7   8
ENDBRANCH   1   7
BRANCH   4  18
ATOM     18  C   UNL     1      47.826   4.633  16.329  0.00  0.00    +0.000 C 
BRANCH  18  19
ATOM     19  N   UNL     1      47.930   6.007  16.761  0.00  0.00    +0.000 N 
ATOM     20  C   UNL     1      49.038   6.777  16.528  0.00  0.00    +0.000 C 
ATOM     21  O   UNL     1      50.005   6.360  15.900  0.00  0.00    +0.000 OA
ATOM     22  H   UNL     1      47.282   6.275  17.498  0.00  0.00    +0.000 HD
BRANCH  20  23
ATOM     23  C   UNL     1      48.973   8.164  17.003  0.00  0.00    +0.000 A 
ATOM     24  C   UNL     1      49.209   9.208  16.119  0.00  0.00    +0.000 A 
ATOM     25  S   UNL     1      49.040  10.752  16.824  0.00  0.00    +0.000 S 
ATOM     26  C   UNL     1      48.696  10.079  18.347  0.00  0.00    +0.000 A 
ATOM     27  N   UNL     1      48.477  10.873  19.431  0.00  0.00    +0.000 NA
ATOM     28  C   UNL     1      48.251  10.229  20.525  0.00  0.00    +0.000 A 
ATOM     29  N   UNL     1      48.214   8.864  20.636  0.00  0.00    +0.000 N 
ATOM     30  C   UNL     1      48.398   8.024  19.567  0.00  0.00    +0.000 A 
ATOM     31  O   UNL     1      48.309   6.805  19.687  0.00  0.00    +0.000 OA
ATOM     32  C   UNL     1      48.679   8.696  18.312  0.00  0.00    +0.000 A 
ATOM     33  H   UNL     1      48.009   8.420  21.517  0.00  0.00    +0.000 HD
ENDBRANCH  20  23
ENDBRANCH  18  19
ENDBRANCH   4  18
TORSDOF 7
ENDMDL
MODEL 9
REMARK VINA RESULT:    -6.449      3.289      8.888
REMARK INTER + INTRA:         -10.254
REMARK INTER:                  -9.377
REMARK INTRA:                  -0.877
REMARK UNBOUND:                -1.166
REMARK  Name = 
REMARK  8 active torsions:
REMARK  status: ('A' for Active; 'I' for Inactive)
REMARK    1  A    between atoms: C_1  and  C_2
REMARK    2  A    between atoms: C_2  and  N_3
REMARK    3  A    between atoms: C_2  and  C_25
REMARK    4  A    between atoms: N_3  and  C_4
REMARK    5  A    between atoms: C_4  and  C_5
REMARK    6  A    between atoms: C_8  and  C_9
REMARK    7  A    between atoms: C_9  and  N_10
REMARK    8  A    between atoms: C_11  and  C_13
REMARK                            x       y       z     vdW  Elec       q    Type
REMARK                         _______ _______ _______ _____ _____    ______ ____
ROOT
ATOM      1  C   UNL     1      49.232   6.110  17.387  0.00  0.00    +0.000 A 
ATOM      2  C   UNL     1      49.512   7.361  16.835  0.00  0.00    +0.000 A 
ATOM      3  C   UNL     1      49.069   7.669  15.548  0.00  0.00    +0.000 A 
ATOM      4  C   UNL     1      48.338   6.719  14.838  0.00  0.00    +0.000 A 
ATOM      5  N   UNL     1      48.068   5.491  15.345  0.00  0.00    +0.000 NA
ATOM      6  C   UNL     1      48.513   5.220  16.597  0.00  0.00    +0.000 A 
ENDROOT
BRANCH   1   7
ATOM      7  C   UNL     1      49.619   5.763  18.800  0.00  0.00    +0.000 C 
BRANCH   7   8
ATOM      8  N   UNL     1      51.042   5.450  18.927  0.00  0.00    +0.000 NA
ATOM      9  H   UNL     1      51.152   4.706  19.618  0.00  0.00    +0.000 HD
BRANCH   8  11
ATOM     10  C   UNL     1      52.917   5.752  17.269  0.00  0.00    +0.000 C 
ATOM     11  C   UNL     1      51.649   4.980  17.669  0.00  0.00    +0.000 C 
BRANCH  11  12
ATOM     12  C   UNL     1      51.969   3.490  17.763  0.00  0.00    +0.000 A 
ATOM     13  C   UNL     1      51.000   2.532  17.424  0.00  0.00    +0.000 A 
ATOM     14  C   UNL     1      51.309   1.168  17.427  0.00  0.00    +0.000 A 
ATOM     15  C   UNL     1      52.589   0.743  17.778  0.00  0.00    +0.000 A 
ATOM     16  C   UNL     1      53.553   1.677  18.147  0.00  0.00    +0.000 A 
ATOM     17  C   UNL     1      53.245   3.039  18.142  0.00  0.00    +0.000 A 
ENDBRANCH  11  12
ENDBRANCH   8  11
ENDBRANCH   7   8
ENDBRANCH   1   7
BRANCH   4  18
ATOM     18  C   UNL     1      47.857   7.017  13.434  0.00  0.00    +0.000 C 
BRANCH  18  19
ATOM     19  N   UNL     1      47.036   5.944  12.923  0.00  0.00    +0.000 N 
ATOM     20  C   UNL     1      45.749   6.132  12.497  0.00  0.00    +0.000 C 
ATOM     21  O   UNL     1      45.217   7.238  12.487  0.00  0.00    +0.000 OA
ATOM     22  H   UNL     1      47.347   5.009  13.175  0.00  0.00    +0.000 HD
BRANCH  20  23
ATOM     23  C   UNL     1      45.060   4.946  11.976  0.00  0.00    +0.000 A 
ATOM     24  C   UNL     1      44.312   4.150  12.832  0.00  0.00    +0.000 A 
ATOM     25  S   UNL     1      43.536   2.847  12.051  0.00  0.00    +0.000 S 
ATOM     26  C   UNL     1      44.214   3.272  10.550  0.00  0.00    +0.000 A 
ATOM     27  N   UNL     1      43.972   2.528   9.436  0.00  0.00    +0.000 NA
ATOM     28  C   UNL     1      44.568   2.953   8.373  0.00  0.00    +0.000 A 
ATOM     29  N   UNL     1      45.375   4.058   8.318  0.00  0.00    +0.000 N 
ATOM     30  C   UNL     1      45.624   4.855   9.407  0.00  0.00    +0.000 A 
ATOM     31  O   UNL     1      46.311   5.868   9.316  0.00  0.00    +0.000 OA
ATOM     32  C   UNL     1      44.995   4.411  10.637  0.00  0.00    +0.000 A 
ATOM     33  H   UNL     1      45.795   4.351   7.450  0.00  0.00    +0.000 HD
ENDBRANCH  20  23
ENDBRANCH  18  19
ENDBRANCH   4  18
TORSDOF 7
ENDMDL
