MODEL 1
REMARK VINA RESULT:    -7.655      0.000      0.000
REMARK INTER + INTRA:         -10.246
REMARK INTER:                  -9.669
REMARK INTRA:                  -0.577
REMARK UNBOUND:                -0.577
REMARK  Name = 
REMARK  5 active torsions:
REMARK  status: ('A' for Active; 'I' for Inactive)
REMARK    1  A    between atoms: N_1  and  C_2
REMARK    2  A    between atoms: C_2  and  C_3
REMARK    3  A    between atoms: C_3  and  C_4
REMARK    4  A    between atoms: C_7  and  C_8
REMARK    5  A    between atoms: C_8  and  N_9
REMARK                            x       y       z     vdW  Elec       q    Type
REMARK                         _______ _______ _______ _____ _____    ______ ____
ROOT
ATOM      1  C   UNL     1      45.886   2.525   8.252  0.00  0.00    +0.000 A 
ATOM      2  C   UNL     1      44.974   1.940   9.136  0.00  0.00    +0.000 A 
ATOM      3  C   UNL     1      44.192   2.740   9.979  0.00  0.00    +0.000 A 
ATOM      4  C   UNL     1      44.313   4.136   9.957  0.00  0.00    +0.000 A 
ATOM      5  C   UNL     1      45.211   4.721   9.061  0.00  0.00    +0.000 A 
ATOM      6  C   UNL     1      45.986   3.922   8.211  0.00  0.00    +0.000 A 
ENDROOT
BRANCH   1   7
ATOM      7  C   UNL     1      46.770   1.668   7.374  0.00  0.00    +0.000 C 
BRANCH   7   8
ATOM      8  C   UNL     1      47.992   2.409   6.823  0.00  0.00    +0.000 C 
BRANCH   8   9
ATOM      9  N   UNL     1      48.430   1.812   5.561  0.00  0.00    +0.000 NA
ATOM     10  H   UNL     1      48.966   0.966   5.751  0.00  0.00    +0.000 HD
ATOM     11  H   UNL     1      49.066   2.450   5.079  0.00  0.00    +0.000 HD
ENDBRANCH   8   9
ENDBRANCH   7   8
ENDBRANCH   1   7
BRANCH   4  12
ATOM     12  C   UNL     1      43.436   4.994  10.836  0.00  0.00    +0.000 C 
BRANCH  12  13
ATOM     13  N   UNL     1      44.138   5.971  11.659  0.00  0.00    +0.000 N 
ATOM     14  C   UNL     1      44.250   7.309  11.393  0.00  0.00    +0.000 A 
ATOM     15  N   UNL     1      45.316   7.834  11.959  0.00  0.00    +0.000 NA
ATOM     16  C   UNL     1      45.897   6.804  12.653  0.00  0.00    +0.000 A 
ATOM     17  C   UNL     1      47.109   6.773  13.361  0.00  0.00    +0.000 A 
ATOM     18  C   UNL     1      47.493   5.584  13.992  0.00  0.00    +0.000 A 
ATOM     19  C   UNL     1      46.666   4.461  13.960  0.00  0.00    +0.000 A 
ATOM     20  C   UNL     1      45.460   4.467  13.250  0.00  0.00    +0.000 A 
ATOM     21  C   UNL     1      45.124   5.647  12.572  0.00  0.00    +0.000 A 
ENDBRANCH  12  13
ENDBRANCH   4  12
TORSDOF 5
ENDMDL
MODEL 2
REMARK VINA RESULT:    -6.702      2.105      6.210
REMARK INTER + INTRA:          -9.042
REMARK INTER:                  -8.592
REMARK INTRA:                  -0.450
REMARK UNBOUND:                -0.577
REMARK  Name = 
REMARK  5 active torsions:
REMARK  status: ('A' for Active; 'I' for Inactive)
REMARK    1  A    between atoms: N_1  and  C_2
REMARK    2  A    between atoms: C_2  and  C_3
REMARK    3  A    between atoms: C_3  and  C_4
REMARK    4  A    between atoms: C_7  and  C_8
REMARK    5  A    between atoms: C_8  and  N_9
REMARK                            x       y       z     vdW  Elec       q    Type
REMARK                         _______ _______ _______ _____ _____    ______ ____
ROOT
ATOM      1  C   UNL     1      46.688   5.463  12.882  0.00  0.00    +0.000 A 
ATOM      2  C   UNL     1      45.934   4.284  12.912  0.00  0.00    +0.000 A 
ATOM      3  C   UNL     1      45.128   3.930  11.823  0.00  0.00    +0.000 A 
ATOM      4  C   UNL     1      45.056   4.751  10.689  0.00  0.00    +0.000 A 
ATOM      5  C   UNL     1      45.822   5.918  10.651  0.00  0.00    +0.000 A 
ATOM      6  C   UNL     1      46.636   6.267  11.736  0.00  0.00    +0.000 A 
ENDROOT
BRANCH   1   7
ATOM      7  C   UNL     1      47.521   5.877  14.072  0.00  0.00    +0.000 C 
BRANCH   7   8
ATOM      8  C   UNL     1      48.353   7.141  13.829  0.00  0.00    +0.000 C 
BRANCH   8   9
ATOM      9  N   UNL     1      49.722   6.956  14.312  0.00  0.00    +0.000 NA
ATOM     10  H   UNL     1      50.270   7.793  14.116  0.00  0.00    +0.000 HD
ATOM     11  H   UNL     1      50.170   6.196  13.798  0.00  0.00    +0.000 HD
ENDBRANCH   8   9
ENDBRANCH   7   8
ENDBRANCH   1   7
BRANCH   4  12
ATOM     12  C   UNL     1      44.220   4.342   9.501  0.00  0.00    +0.000 C 
BRANCH  12  13
ATOM     13  N   UNL     1      44.634   3.114   8.834  0.00  0.00    +0.000 N 
ATOM     14  C   UNL     1      44.359   1.842   9.257  0.00  0.00    +0.000 A 
ATOM     15  N   UNL     1      45.245   0.975   8.814  0.00  0.00    +0.000 NA
ATOM     16  C   UNL     1      46.107   1.708   8.040  0.00  0.00    +0.000 A 
ATOM     17  C   UNL     1      47.292   1.313   7.401  0.00  0.00    +0.000 A 
ATOM     18  C   UNL     1      48.009   2.260   6.659  0.00  0.00    +0.000 A 
ATOM     19  C   UNL     1      47.531   3.564   6.518  0.00  0.00    +0.000 A 
ATOM     20  C   UNL     1      46.358   3.981   7.157  0.00  0.00    +0.000 A 
ATOM     21  C   UNL     1      45.690   3.035   7.946  0.00  0.00    +0.000 A 
ENDBRANCH  12  13
ENDBRANCH   4  12
TORSDOF 5
ENDMDL
MODEL 3
REMARK VINA RESULT:    -6.456      1.619      2.608
REMARK INTER + INTRA:          -8.732
REMARK INTER:                  -8.212
REMARK INTRA:                  -0.520
REMARK UNBOUND:                -0.577
REMARK  Name = 
REMARK  5 active torsions:
REMARK  status: ('A' for Active; 'I' for Inactive)
REMARK    1  A    between atoms: N_1  and  C_2
REMARK    2  A    between atoms: C_2  and  C_3
REMARK    3  A    between atoms: C_3  and  C_4
REMARK    4  A    between atoms: C_7  and  C_8
REMARK    5  A    between atoms: C_8  and  N_9
REMARK                            x       y       z     vdW  Elec       q    Type
REMARK                         _______ _______ _______ _____ _____    ______ ____
ROOT
ATOM      1  C   UNL     1      45.771   3.155   7.730  0.00  0.00    +0.000 A 
ATOM      2  C   UNL     1      46.029   4.510   7.959  0.00  0.00    +0.000 A 
ATOM      3  C   UNL     1      45.770   5.079   9.213  0.00  0.00    +0.000 A 
ATOM      4  C   UNL     1      45.242   4.305  10.255  0.00  0.00    +0.000 A 
ATOM      5  C   UNL     1      45.001   2.947  10.032  0.00  0.00    +0.000 A 
ATOM      6  C   UNL     1      45.270   2.376   8.782  0.00  0.00    +0.000 A 
ENDROOT
BRANCH   1   7
ATOM      7  C   UNL     1      46.000   2.544   6.367  0.00  0.00    +0.000 C 
BRANCH   7   8
ATOM      8  C   UNL     1      47.478   2.472   5.967  0.00  0.00    +0.000 C 
BRANCH   8   9
ATOM      9  N   UNL     1      48.175   1.456   6.757  0.00  0.00    +0.000 NA
ATOM     10  H   UNL     1      47.768   0.540   6.570  0.00  0.00    +0.000 HD
ATOM     11  H   UNL     1      48.031   1.634   7.752  0.00  0.00    +0.000 HD
ENDBRANCH   8   9
ENDBRANCH   7   8
ENDBRANCH   1   7
BRANCH   4  12
ATOM     12  C   UNL     1      45.007   4.913  11.616  0.00  0.00    +0.000 C 
BRANCH  12  13
ATOM     13  N   UNL     1      46.167   4.949  12.497  0.00  0.00    +0.000 N 
ATOM     14  C   UNL     1      46.343   4.189  13.621  0.00  0.00    +0.000 A 
ATOM     15  N   UNL     1      47.162   4.760  14.478  0.00  0.00    +0.000 NA
ATOM     16  C   UNL     1      47.566   5.920  13.868  0.00  0.00    +0.000 A 
ATOM     17  C   UNL     1      48.364   6.962  14.365  0.00  0.00    +0.000 A 
ATOM     18  C   UNL     1      48.637   8.058  13.538  0.00  0.00    +0.000 A 
ATOM     19  C   UNL     1      48.163   8.097  12.227  0.00  0.00    +0.000 A 
ATOM     20  C   UNL     1      47.355   7.074  11.716  0.00  0.00    +0.000 A 
ATOM     21  C   UNL     1      47.042   6.016  12.580  0.00  0.00    +0.000 A 
ENDBRANCH  12  13
ENDBRANCH   4  12
TORSDOF 5
ENDMDL
MODEL 4
REMARK VINA RESULT:    -6.428      2.137      6.181
REMARK INTER + INTRA:          -8.696
REMARK INTER:                  -8.162
REMARK INTRA:                  -0.534
REMARK UNBOUND:                -0.577
REMARK  Name = 
REMARK  5 active torsions:
REMARK  status: ('A' for Active; 'I' for Inactive)
REMARK    1  A    between atoms: N_1  and  C_2
REMARK    2  A    between atoms: C_2  and  C_3
REMARK    3  A    between atoms: C_3  and  C_4
REMARK    4  A    between atoms: C_7  and  C_8
REMARK    5  A    between atoms: C_8  and  N_9
REMARK                            x       y       z     vdW  Elec       q    Type
REMARK                         _______ _______ _______ _____ _____    ______ ____
ROOT
ATOM      1  C   UNL     1      47.715   6.556  13.494  0.00  0.00    +0.000 A 
ATOM      2  C   UNL     1      47.360   7.412  12.446  0.00  0.00    +0.000 A 
ATOM      3  C   UNL     1      46.152   7.230  11.761  0.00  0.00    +0.000 A 
ATOM      4  C   UNL     1      45.283   6.187  12.107  0.00  0.00    +0.000 A 
ATOM      5  C   UNL     1      45.629   5.343  13.165  0.00  0.00    +0.000 A 
ATOM      6  C   UNL     1      46.832   5.531  13.857  0.00  0.00    +0.000 A 
ENDROOT
BRANCH   1   7
ATOM      7  C   UNL     1      49.040   6.715  14.205  0.00  0.00    +0.000 C 
BRANCH   7   8
ATOM      8  C   UNL     1      48.918   6.734  15.732  0.00  0.00    +0.000 C 
BRANCH   8   9
ATOM      9  N   UNL     1      49.466   5.505  16.307  0.00  0.00    +0.000 NA
ATOM     10  H   UNL     1      48.917   5.234  17.122  0.00  0.00    +0.000 HD
ATOM     11  H   UNL     1      50.414   5.676  16.648  0.00  0.00    +0.000 HD
ENDBRANCH   8   9
ENDBRANCH   7   8
ENDBRANCH   1   7
BRANCH   4  12
ATOM     12  C   UNL     1      43.962   6.023  11.395  0.00  0.00    +0.000 C 
BRANCH  12  13
ATOM     13  N   UNL     1      43.717   4.705  10.824  0.00  0.00    +0.000 N 
ATOM     14  C   UNL     1      43.080   3.667  11.449  0.00  0.00    +0.000 A 
ATOM     15  N   UNL     1      43.446   2.501  10.961  0.00  0.00    +0.000 NA
ATOM     16  C   UNL     1      44.324   2.795   9.951  0.00  0.00    +0.000 A 
ATOM     17  C   UNL     1      45.095   1.933   9.155  0.00  0.00    +0.000 A 
ATOM     18  C   UNL     1      45.932   2.483   8.177  0.00  0.00    +0.000 A 
ATOM     19  C   UNL     1      45.969   3.862   7.964  0.00  0.00    +0.000 A 
ATOM     20  C   UNL     1      45.218   4.739   8.755  0.00  0.00    +0.000 A 
ATOM     21  C   UNL     1      44.435   4.173   9.770  0.00  0.00    +0.000 A 
ENDBRANCH  12  13
ENDBRANCH   4  12
TORSDOF 5
ENDMDL
MODEL 5
REMARK VINA RESULT:    -6.339      1.066      1.718
REMARK INTER + INTRA:          -8.584
REMARK INTER:                  -8.299
REMARK INTRA:                  -0.285
REMARK UNBOUND:                -0.577
REMARK  Name = 
REMARK  5 active torsions:
REMARK  status: ('A' for Active; 'I' for Inactive)
REMARK    1  A    between atoms: N_1  and  C_2
REMARK    2  A    between atoms: C_2  and  C_3
REMARK    3  A    between atoms: C_3  and  C_4
REMARK    4  A    between atoms: C_7  and  C_8
REMARK    5  A    between atoms: C_8  and  N_9
REMARK                            x       y       z     vdW  Elec       q    Type
REMARK                         _______ _______ _______ _____ _____    ______ ____
ROOT
ATOM      1  C   UNL     1      45.735   3.475   7.983  0.00  0.00    +0.000 A 
ATOM      2  C   UNL     1      46.134   4.753   8.389  0.00  0.00    +0.000 A 
ATOM      3  C   UNL     1      45.603   5.324   9.552  0.00  0.00    +0.000 A 
ATOM      4  C   UNL     1      44.661   4.631  10.325  0.00  0.00    +0.000 A 
ATOM      5  C   UNL     1      44.276   3.348   9.929  0.00  0.00    +0.000 A 
ATOM      6  C   UNL     1      44.815   2.773   8.772  0.00  0.00    +0.000 A 
ENDROOT
BRANCH   1   7
ATOM      7  C   UNL     1      46.265   2.871   6.703  0.00  0.00    +0.000 C 
BRANCH   7   8
ATOM      8  C   UNL     1      47.542   2.047   6.895  0.00  0.00    +0.000 C 
BRANCH   8   9
ATOM      9  N   UNL     1      48.664   2.665   6.186  0.00  0.00    +0.000 NA
ATOM     10  H   UNL     1      48.465   3.652   6.027  0.00  0.00    +0.000 HD
ATOM     11  H   UNL     1      48.763   2.243   5.261  0.00  0.00    +0.000 HD
ENDBRANCH   8   9
ENDBRANCH   7   8
ENDBRANCH   1   7
BRANCH   4  12
ATOM     12  C   UNL     1      44.126   5.234  11.601  0.00  0.00    +0.000 C 
BRANCH  12  13
ATOM     13  N   UNL     1      44.749   6.485  12.014  0.00  0.00    +0.000 N 
ATOM     14  C   UNL     1      44.343   7.740  11.651  0.00  0.00    +0.000 A 
ATOM     15  N   UNL     1      45.328   8.611  11.707  0.00  0.00    +0.000 NA
ATOM     16  C   UNL     1      46.408   7.900  12.163  0.00  0.00    +0.000 A 
ATOM     17  C   UNL     1      47.744   8.304  12.320  0.00  0.00    +0.000 A 
ATOM     18  C   UNL     1      48.676   7.380  12.808  0.00  0.00    +0.000 A 
ATOM     19  C   UNL     1      48.279   6.094  13.175  0.00  0.00    +0.000 A 
ATOM     20  C   UNL     1      46.956   5.668  13.015  0.00  0.00    +0.000 A 
ATOM     21  C   UNL     1      46.051   6.587  12.466  0.00  0.00    +0.000 A 
ENDBRANCH  12  13
ENDBRANCH   4  12
TORSDOF 5
ENDMDL
MODEL 6
REMARK VINA RESULT:    -5.628      2.399      6.289
REMARK INTER + INTRA:          -7.686
REMARK INTER:                  -7.490
REMARK INTRA:                  -0.196
REMARK UNBOUND:                -0.577
REMARK  Name = 
REMARK  5 active torsions:
REMARK  status: ('A' for Active; 'I' for Inactive)
REMARK    1  A    between atoms: N_1  and  C_2
REMARK    2  A    between atoms: C_2  and  C_3
REMARK    3  A    between atoms: C_3  and  C_4
REMARK    4  A    between atoms: C_7  and  C_8
REMARK    5  A    between atoms: C_8  and  N_9
REMARK                            x       y       z     vdW  Elec       q    Type
REMARK                         _______ _______ _______ _____ _____    ______ ____
ROOT
ATOM      1  C   UNL     1      46.928   8.686  12.345  0.00  0.00    +0.000 A 
ATOM      2  C   UNL     1      47.829   7.622  12.464  0.00  0.00    +0.000 A 
ATOM      3  C   UNL     1      47.365   6.325  12.716  0.00  0.00    +0.000 A 
ATOM      4  C   UNL     1      45.994   6.071  12.860  0.00  0.00    +0.000 A 
ATOM      5  C   UNL     1      45.093   7.130  12.725  0.00  0.00    +0.000 A 
ATOM      6  C   UNL     1      45.557   8.425  12.462  0.00  0.00    +0.000 A 
ENDROOT
BRANCH   1   7
ATOM      7  C   UNL     1      47.424  10.096  12.123  0.00  0.00    +0.000 C 
BRANCH   7   8
ATOM      8  C   UNL     1      48.939  10.189  11.913  0.00  0.00    +0.000 C 
BRANCH   8   9
ATOM      9  N   UNL     1      49.594  10.699  13.118  0.00  0.00    +0.000 NA
ATOM     10  H   UNL     1      49.165  11.582  13.392  0.00  0.00    +0.000 HD
ATOM     11  H   UNL     1      50.573  10.909  12.916  0.00  0.00    +0.000 HD
ENDBRANCH   8   9
ENDBRANCH   7   8
ENDBRANCH   1   7
BRANCH   4  12
ATOM     12  C   UNL     1      45.496   4.664  13.088  0.00  0.00    +0.000 C 
BRANCH  12  13
ATOM     13  N   UNL     1      44.601   4.141  12.064  0.00  0.00    +0.000 N 
ATOM     14  C   UNL     1      43.640   3.185  12.252  0.00  0.00    +0.000 A 
ATOM     15  N   UNL     1      43.363   2.542  11.138  0.00  0.00    +0.000 NA
ATOM     16  C   UNL     1      44.146   3.131  10.180  0.00  0.00    +0.000 A 
ATOM     17  C   UNL     1      44.326   2.782   8.832  0.00  0.00    +0.000 A 
ATOM     18  C   UNL     1      45.195   3.548   8.046  0.00  0.00    +0.000 A 
ATOM     19  C   UNL     1      45.837   4.667   8.577  0.00  0.00    +0.000 A 
ATOM     20  C   UNL     1      45.681   5.025   9.921  0.00  0.00    +0.000 A 
ATOM     21  C   UNL     1      44.856   4.208  10.707  0.00  0.00    +0.000 A 
ENDBRANCH  12  13
ENDBRANCH   4  12
TORSDOF 5
ENDMDL
MODEL 7
REMARK VINA RESULT:    -5.490      2.689      4.218
REMARK INTER + INTRA:          -7.512
REMARK INTER:                  -7.003
REMARK INTRA:                  -0.509
REMARK UNBOUND:                -0.577
REMARK  Name = 
REMARK  5 active torsions:
REMARK  status: ('A' for Active; 'I' for Inactive)
REMARK    1  A    between atoms: N_1  and  C_2
REMARK    2  A    between atoms: C_2  and  C_3
REMARK    3  A    between atoms: C_3  and  C_4
REMARK    4  A    between atoms: C_7  and  C_8
REMARK    5  A    between atoms: C_8  and  N_9
REMARK                            x       y       z     vdW  Elec       q    Type
REMARK                         _______ _______ _______ _____ _____    ______ ____
ROOT
ATOM      1  C   UNL     1      44.923   3.663  10.593  0.00  0.00    +0.000 A 
ATOM      2  C   UNL     1      45.255   4.908  10.049  0.00  0.00    +0.000 A 
ATOM      3  C   UNL     1      45.713   5.943  10.875  0.00  0.00    +0.000 A 
ATOM      4  C   UNL     1      45.840   5.752  12.257  0.00  0.00    +0.000 A 
ATOM      5  C   UNL     1      45.526   4.504  12.799  0.00  0.00    +0.000 A 
ATOM      6  C   UNL     1      45.078   3.466  11.972  0.00  0.00    +0.000 A 
ENDROOT
BRANCH   1   7
ATOM      7  C   UNL     1      44.381   2.557   9.718  0.00  0.00    +0.000 C 
BRANCH   7   8
ATOM      8  C   UNL     1      45.138   2.393   8.395  0.00  0.00    +0.000 C 
BRANCH   8   9
ATOM      9  N   UNL     1      46.013   1.221   8.445  0.00  0.00    +0.000 NA
ATOM     10  H   UNL     1      45.658   0.503   7.815  0.00  0.00    +0.000 HD
ATOM     11  H   UNL     1      45.991   0.814   9.381  0.00  0.00    +0.000 HD
ENDBRANCH   8   9
ENDBRANCH   7   8
ENDBRANCH   1   7
BRANCH   4  12
ATOM     12  C   UNL     1      46.376   6.857  13.135  0.00  0.00    +0.000 C 
BRANCH  12  13
ATOM     13  N   UNL     1      47.770   6.720  13.537  0.00  0.00    +0.000 N 
ATOM     14  C   UNL     1      48.213   6.308  14.765  0.00  0.00    +0.000 A 
ATOM     15  N   UNL     1      49.420   6.761  15.029  0.00  0.00    +0.000 NA
ATOM     16  C   UNL     1      49.791   7.463  13.911  0.00  0.00    +0.000 A 
ATOM     17  C   UNL     1      50.940   8.237  13.681  0.00  0.00    +0.000 A 
ATOM     18  C   UNL     1      51.092   8.867  12.440  0.00  0.00    +0.000 A 
ATOM     19  C   UNL     1      50.143   8.695  11.432  0.00  0.00    +0.000 A 
ATOM     20  C   UNL     1      48.985   7.938  11.645  0.00  0.00    +0.000 A 
ATOM     21  C   UNL     1      48.821   7.367  12.915  0.00  0.00    +0.000 A 
ENDBRANCH  12  13
ENDBRANCH   4  12
TORSDOF 5
ENDMDL
MODEL 8
REMARK VINA RESULT:    -5.186      4.832      7.696
REMARK INTER + INTRA:          -7.127
REMARK INTER:                  -6.729
REMARK INTRA:                  -0.398
REMARK UNBOUND:                -0.577
REMARK  Name = 
REMARK  5 active torsions:
REMARK  status: ('A' for Active; 'I' for Inactive)
REMARK    1  A    between atoms: N_1  and  C_2
REMARK    2  A    between atoms: C_2  and  C_3
REMARK    3  A    between atoms: C_3  and  C_4
REMARK    4  A    between atoms: C_7  and  C_8
REMARK    5  A    between atoms: C_8  and  N_9
REMARK                            x       y       z     vdW  Elec       q    Type
REMARK                         _______ _______ _______ _____ _____    ______ ____
ROOT
ATOM      1  C   UNL     1      51.059   2.739  17.547  0.00  0.00    +0.000 A 
ATOM      2  C   UNL     1      50.106   1.904  16.952  0.00  0.00    +0.000 A 
ATOM      3  C   UNL     1      48.888   2.429  16.500  0.00  0.00    +0.000 A 
ATOM      4  C   UNL     1      48.600   3.793  16.642  0.00  0.00    +0.000 A 
ATOM      5  C   UNL     1      49.558   4.629  17.220  0.00  0.00    +0.000 A 
ATOM      6  C   UNL     1      50.780   4.107  17.661  0.00  0.00    +0.000 A 
ENDROOT
BRANCH   1   7
ATOM      7  C   UNL     1      52.354   2.173  18.082  0.00  0.00    +0.000 C 
BRANCH   7   8
ATOM      8  C   UNL     1      52.768   0.854  17.421  0.00  0.00    +0.000 C 
BRANCH   8   9
ATOM      9  N   UNL     1      52.689  -0.248  18.380  0.00  0.00    +0.000 NA
ATOM     10  H   UNL     1      52.051   0.002  19.135  0.00  0.00    +0.000 HD
ATOM     11  H   UNL     1      53.601  -0.394  18.815  0.00  0.00    +0.000 HD
ENDBRANCH   8   9
ENDBRANCH   7   8
ENDBRANCH   1   7
BRANCH   4  12
ATOM     12  C   UNL     1      47.304   4.360  16.114  0.00  0.00    +0.000 C 
BRANCH  12  13
ATOM     13  N   UNL     1      47.390   5.019  14.817  0.00  0.00    +0.000 N 
ATOM     14  C   UNL     1      47.780   6.313  14.601  0.00  0.00    +0.000 A 
ATOM     15  N   UNL     1      47.282   6.796  13.482  0.00  0.00    +0.000 NA
ATOM     16  C   UNL     1      46.573   5.760  12.930  0.00  0.00    +0.000 A 
ATOM     17  C   UNL     1      45.760   5.743  11.786  0.00  0.00    +0.000 A 
ATOM     18  C   UNL     1      45.129   4.546  11.424  0.00  0.00    +0.000 A 
ATOM     19  C   UNL     1      45.340   3.379  12.158  0.00  0.00    +0.000 A 
ATOM     20  C   UNL     1      46.137   3.378  13.309  0.00  0.00    +0.000 A 
ATOM     21  C   UNL     1      46.708   4.600  13.691  0.00  0.00    +0.000 A 
ENDBRANCH  12  13
ENDBRANCH   4  12
TORSDOF 5
ENDMDL
MODEL 9
REMARK VINA RESULT:    -5.052      4.079      6.211
REMARK INTER + INTRA:          -6.959
REMARK INTER:                  -6.558
REMARK INTRA:                  -0.401
REMARK UNBOUND:                -0.577
REMARK  Name = 
REMARK  5 active torsions:
REMARK  status: ('A' for Active; 'I' for Inactive)
REMARK    1  A    between atoms: N_1  and  C_2
REMARK    2  A    between atoms: C_2  and  C_3
REMARK    3  A    between atoms: C_3  and  C_4
REMARK    4  A    between atoms: C_7  and  C_8
REMARK    5  A    between atoms: C_8  and  N_9
REMARK                            x       y       z     vdW  Elec       q    Type
REMARK                         _______ _______ _______ _____ _____    ______ ____
ROOT
ATOM      1  C   UNL     1      45.095   6.515  12.191  0.00  0.00    +0.000 A 
ATOM      2  C   UNL     1      45.873   5.362  12.336  0.00  0.00    +0.000 A 
ATOM      3  C   UNL     1      47.082   5.407  13.042  0.00  0.00    +0.000 A 
ATOM      4  C   UNL     1      47.537   6.606  13.607  0.00  0.00    +0.000 A 
ATOM      5  C   UNL     1      46.752   7.754  13.477  0.00  0.00    +0.000 A 
ATOM      6  C   UNL     1      45.538   7.706  12.781  0.00  0.00    +0.000 A 
ENDROOT
BRANCH   1   7
ATOM      7  C   UNL     1      43.814   6.487  11.389  0.00  0.00    +0.000 C 
BRANCH   7   8
ATOM      8  C   UNL     1      42.834   5.398  11.836  0.00  0.00    +0.000 C 
BRANCH   8   9
ATOM      9  N   UNL     1      42.556   5.513  13.268  0.00  0.00    +0.000 NA
ATOM     10  H   UNL     1      41.583   5.266  13.448  0.00  0.00    +0.000 HD
ATOM     11  H   UNL     1      42.661   6.485  13.563  0.00  0.00    +0.000 HD
ENDBRANCH   8   9
ENDBRANCH   7   8
ENDBRANCH   1   7
BRANCH   4  12
ATOM     12  C   UNL     1      48.819   6.639  14.403  0.00  0.00    +0.000 C 
BRANCH  12  13
ATOM     13  N   UNL     1      48.661   6.568  15.850  0.00  0.00    +0.000 N 
ATOM     14  C   UNL     1      49.165   7.462  16.756  0.00  0.00    +0.000 A 
ATOM     15  N   UNL     1      49.338   6.916  17.941  0.00  0.00    +0.000 NA
ATOM     16  C   UNL     1      48.889   5.627  17.810  0.00  0.00    +0.000 A 
ATOM     17  C   UNL     1      48.927   4.569  18.731  0.00  0.00    +0.000 A 
ATOM     18  C   UNL     1      48.401   3.327  18.355  0.00  0.00    +0.000 A 
ATOM     19  C   UNL     1      47.808   3.153  17.105  0.00  0.00    +0.000 A 
ATOM     20  C   UNL     1      47.772   4.192  16.167  0.00  0.00    +0.000 A 
ATOM     21  C   UNL     1      48.360   5.408  16.539  0.00  0.00    +0.000 A 
ENDBRANCH  12  13
ENDBRANCH   4  12
TORSDOF 5
ENDMDL
