MODEL 1
REMARK VINA RESULT:    -8.052      0.000      0.000
REMARK INTER + INTRA:         -10.450
REMARK INTER:                 -10.170
REMARK INTRA:                  -0.280
REMARK UNBOUND:                -0.280
REMARK  Name = 
REMARK  5 active torsions:
REMARK  status: ('A' for Active; 'I' for Inactive)
REMARK    1  A    between atoms: N_1  and  C_2
REMARK    2  A    between atoms: C_2  and  C_3
REMARK    3  A    between atoms: C_6  and  C_7
REMARK    4  A    between atoms: C_7  and  N_8
REMARK    5  A    between atoms: C_13  and  C_14
REMARK                            x       y       z     vdW  Elec       q    Type
REMARK                         _______ _______ _______ _____ _____    ______ ____
ROOT
ATOM      1  N   UNL     1      43.901   4.196  10.338  0.00  0.00    +0.000 N 
ATOM      2  N   UNL     1      43.389   3.061  10.861  0.00  0.00    +0.000 NA
ATOM      3  N   UNL     1      43.968   2.034  10.245  0.00  0.00    +0.000 NA
ATOM      4  C   UNL     1      44.844   2.535   9.320  0.00  0.00    +0.000 A 
ATOM      5  C   UNL     1      45.681   1.909   8.385  0.00  0.00    +0.000 A 
ATOM      6  C   UNL     1      46.450   2.747   7.561  0.00  0.00    +0.000 A 
ATOM      7  C   UNL     1      46.358   4.133   7.739  0.00  0.00    +0.000 A 
ATOM      8  N   UNL     1      45.559   4.781   8.634  0.00  0.00    +0.000 NA
ATOM      9  C   UNL     1      44.828   3.919   9.370  0.00  0.00    +0.000 A 
ENDROOT
BRANCH   6  10
ATOM     10  C   UNL     1      47.334   2.250   6.483  0.00  0.00    +0.000 C 
ATOM     11  N   UNL     1      47.497   3.010   5.358  0.00  0.00    +0.000 N 
ATOM     12  O   UNL     1      47.928   1.181   6.593  0.00  0.00    +0.000 OA
ATOM     13  H   UNL     1      47.078   3.909   5.186  0.00  0.00    +0.000 HD
ATOM     14  H   UNL     1      48.140   2.653   4.659  0.00  0.00    +0.000 HD
ENDBRANCH   6  10
BRANCH   1  15
ATOM     15  C   UNL     1      43.413   5.490  10.758  0.00  0.00    +0.000 C 
BRANCH  15  19
ATOM     16  C   UNL     1      46.699   7.170  12.774  0.00  0.00    +0.000 C 
ATOM     17  N   UNL     1      45.635   8.117  12.435  0.00  0.00    +0.000 NA
ATOM     18  C   UNL     1      44.768   7.527  11.423  0.00  0.00    +0.000 C 
ATOM     19  C   UNL     1      44.221   6.169  11.873  0.00  0.00    +0.000 C 
ATOM     20  C   UNL     1      45.343   5.284  12.426  0.00  0.00    +0.000 C 
ATOM     21  O   UNL     1      46.136   6.005  13.372  0.00  0.00    +0.000 OA
ATOM     22  H   UNL     1      46.069   8.947  12.038  0.00  0.00    +0.000 HD
BRANCH  16  23
ATOM     23  C   UNL     1      47.703   7.828  13.760  0.00  0.00    +0.000 C 
BRANCH  23  24
ATOM     24  N   UNL     1      47.117   8.937  14.538  0.00  0.00    +0.000 NA
ATOM     25  H   UNL     1      46.845   8.575  15.452  0.00  0.00    +0.000 HD
ATOM     26  H   UNL     1      46.246   9.223  14.096  0.00  0.00    +0.000 HD
ENDBRANCH  23  24
ENDBRANCH  16  23
ENDBRANCH  15  19
ENDBRANCH   1  15
TORSDOF 5
ENDMDL
MODEL 2
REMARK VINA RESULT:    -7.559      1.912      6.323
REMARK INTER + INTRA:          -9.828
REMARK INTER:                  -9.587
REMARK INTRA:                  -0.240
REMARK UNBOUND:                -0.280
REMARK  Name = 
REMARK  5 active torsions:
REMARK  status: ('A' for Active; 'I' for Inactive)
REMARK    1  A    between atoms: N_1  and  C_2
REMARK    2  A    between atoms: C_2  and  C_3
REMARK    3  A    between atoms: C_6  and  C_7
REMARK    4  A    between atoms: C_7  and  N_8
REMARK    5  A    between atoms: C_13  and  C_14
REMARK                            x       y       z     vdW  Elec       q    Type
REMARK                         _______ _______ _______ _____ _____    ______ ____
ROOT
ATOM      1  N   UNL     1      44.580   4.376  11.367  0.00  0.00    +0.000 N 
ATOM      2  N   UNL     1      44.331   3.424  12.292  0.00  0.00    +0.000 NA
ATOM      3  N   UNL     1      45.196   3.593  13.288  0.00  0.00    +0.000 NA
ATOM      4  C   UNL     1      45.998   4.657  12.976  0.00  0.00    +0.000 A 
ATOM      5  C   UNL     1      47.082   5.243  13.646  0.00  0.00    +0.000 A 
ATOM      6  C   UNL     1      47.701   6.334  13.016  0.00  0.00    +0.000 A 
ATOM      7  C   UNL     1      47.190   6.784  11.793  0.00  0.00    +0.000 A 
ATOM      8  N   UNL     1      46.140   6.244  11.109  0.00  0.00    +0.000 NA
ATOM      9  C   UNL     1      45.613   5.184  11.755  0.00  0.00    +0.000 A 
ENDROOT
BRANCH   6  10
ATOM     10  C   UNL     1      48.895   7.024  13.556  0.00  0.00    +0.000 C 
ATOM     11  N   UNL     1      49.382   8.118  12.897  0.00  0.00    +0.000 N 
ATOM     12  O   UNL     1      49.437   6.637  14.587  0.00  0.00    +0.000 OA
ATOM     13  H   UNL     1      48.993   8.528  12.064  0.00  0.00    +0.000 HD
ATOM     14  H   UNL     1      50.178   8.585  13.319  0.00  0.00    +0.000 HD
ENDBRANCH   6  10
BRANCH   1  15
ATOM     15  C   UNL     1      43.843   4.409  10.123  0.00  0.00    +0.000 C 
BRANCH  15  19
ATOM     16  C   UNL     1      46.752   2.413   7.833  0.00  0.00    +0.000 C 
ATOM     17  N   UNL     1      45.706   1.552   8.387  0.00  0.00    +0.000 NA
ATOM     18  C   UNL     1      45.010   2.260   9.453  0.00  0.00    +0.000 C 
ATOM     19  C   UNL     1      44.463   3.606   8.969  0.00  0.00    +0.000 C 
ATOM     20  C   UNL     1      45.534   4.388   8.202  0.00  0.00    +0.000 C 
ATOM     21  O   UNL     1      46.161   3.557   7.222  0.00  0.00    +0.000 OA
ATOM     22  H   UNL     1      46.155   0.732   8.790  0.00  0.00    +0.000 HD
BRANCH  16  23
ATOM     23  C   UNL     1      47.584   1.631   6.781  0.00  0.00    +0.000 C 
BRANCH  23  24
ATOM     24  N   UNL     1      48.667   2.433   6.179  0.00  0.00    +0.000 NA
ATOM     25  H   UNL     1      48.682   2.245   5.176  0.00  0.00    +0.000 HD
ATOM     26  H   UNL     1      49.561   2.090   6.525  0.00  0.00    +0.000 HD
ENDBRANCH  23  24
ENDBRANCH  16  23
ENDBRANCH  15  19
ENDBRANCH   1  15
TORSDOF 5
ENDMDL
MODEL 3
REMARK VINA RESULT:    -7.356      2.443      6.863
REMARK INTER + INTRA:          -9.571
REMARK INTER:                  -9.318
REMARK INTRA:                  -0.253
REMARK UNBOUND:                -0.280
REMARK  Name = 
REMARK  5 active torsions:
REMARK  status: ('A' for Active; 'I' for Inactive)
REMARK    1  A    between atoms: N_1  and  C_2
REMARK    2  A    between atoms: C_2  and  C_3
REMARK    3  A    between atoms: C_6  and  C_7
REMARK    4  A    between atoms: C_7  and  N_8
REMARK    5  A    between atoms: C_13  and  C_14
REMARK                            x       y       z     vdW  Elec       q    Type
REMARK                         _______ _______ _______ _____ _____    ______ ____
ROOT
ATOM      1  N   UNL     1      45.055   5.247  10.990  0.00  0.00    +0.000 N 
ATOM      2  N   UNL     1      45.553   6.445  10.615  0.00  0.00    +0.000 NA
ATOM      3  N   UNL     1      46.435   6.822  11.536  0.00  0.00    +0.000 NA
ATOM      4  C   UNL     1      46.480   5.851  12.501  0.00  0.00    +0.000 A 
ATOM      5  C   UNL     1      47.204   5.752  13.698  0.00  0.00    +0.000 A 
ATOM      6  C   UNL     1      46.989   4.602  14.474  0.00  0.00    +0.000 A 
ATOM      7  C   UNL     1      46.104   3.626  14.000  0.00  0.00    +0.000 A 
ATOM      8  N   UNL     1      45.382   3.683  12.844  0.00  0.00    +0.000 NA
ATOM      9  C   UNL     1      45.613   4.825  12.165  0.00  0.00    +0.000 A 
ENDROOT
BRANCH   6  10
ATOM     10  C   UNL     1      47.623   4.372  15.792  0.00  0.00    +0.000 C 
ATOM     11  N   UNL     1      47.110   3.405  16.613  0.00  0.00    +0.000 N 
ATOM     12  O   UNL     1      48.602   5.022  16.146  0.00  0.00    +0.000 OA
ATOM     13  H   UNL     1      46.332   2.803  16.403  0.00  0.00    +0.000 HD
ATOM     14  H   UNL     1      47.595   3.253  17.491  0.00  0.00    +0.000 HD
ENDBRANCH   6  10
BRANCH   1  15
ATOM     15  C   UNL     1      44.012   4.606  10.220  0.00  0.00    +0.000 C 
BRANCH  15  19
ATOM     16  C   UNL     1      46.576   2.154   7.962  0.00  0.00    +0.000 C 
ATOM     17  N   UNL     1      45.421   1.468   8.542  0.00  0.00    +0.000 NA
ATOM     18  C   UNL     1      44.845   2.295   9.595  0.00  0.00    +0.000 C 
ATOM     19  C   UNL     1      44.497   3.695   9.082  0.00  0.00    +0.000 C 
ATOM     20  C   UNL     1      45.664   4.294   8.291  0.00  0.00    +0.000 C 
ATOM     21  O   UNL     1      46.154   3.358   7.327  0.00  0.00    +0.000 OA
ATOM     22  H   UNL     1      45.749   0.601   8.962  0.00  0.00    +0.000 HD
BRANCH  16  23
ATOM     23  C   UNL     1      47.275   1.235   6.923  0.00  0.00    +0.000 C 
BRANCH  23  24
ATOM     24  N   UNL     1      48.401   1.889   6.228  0.00  0.00    +0.000 NA
ATOM     25  H   UNL     1      48.018   2.577   5.579  0.00  0.00    +0.000 HD
ATOM     26  H   UNL     1      48.868   1.202   5.640  0.00  0.00    +0.000 HD
ENDBRANCH  23  24
ENDBRANCH  16  23
ENDBRANCH  15  19
ENDBRANCH   1  15
TORSDOF 5
ENDMDL
MODEL 4
REMARK VINA RESULT:    -7.258      1.664      6.769
REMARK INTER + INTRA:          -9.447
REMARK INTER:                  -9.304
REMARK INTRA:                  -0.142
REMARK UNBOUND:                -0.280
REMARK  Name = 
REMARK  5 active torsions:
REMARK  status: ('A' for Active; 'I' for Inactive)
REMARK    1  A    between atoms: N_1  and  C_2
REMARK    2  A    between atoms: C_2  and  C_3
REMARK    3  A    between atoms: C_6  and  C_7
REMARK    4  A    between atoms: C_7  and  N_8
REMARK    5  A    between atoms: C_13  and  C_14
REMARK                            x       y       z     vdW  Elec       q    Type
REMARK                         _______ _______ _______ _____ _____    ______ ____
ROOT
ATOM      1  N   UNL     1      44.236   4.734  10.835  0.00  0.00    +0.000 N 
ATOM      2  N   UNL     1      42.988   5.240  10.745  0.00  0.00    +0.000 NA
ATOM      3  N   UNL     1      43.014   6.471  11.249  0.00  0.00    +0.000 NA
ATOM      4  C   UNL     1      44.292   6.731  11.666  0.00  0.00    +0.000 A 
ATOM      5  C   UNL     1      44.866   7.847  12.291  0.00  0.00    +0.000 A 
ATOM      6  C   UNL     1      46.233   7.765  12.602  0.00  0.00    +0.000 A 
ATOM      7  C   UNL     1      46.936   6.607  12.248  0.00  0.00    +0.000 A 
ATOM      8  N   UNL     1      46.416   5.501  11.640  0.00  0.00    +0.000 NA
ATOM      9  C   UNL     1      45.096   5.636  11.398  0.00  0.00    +0.000 A 
ENDROOT
BRANCH   6  10
ATOM     10  C   UNL     1      46.976   8.826  13.319  0.00  0.00    +0.000 C 
ATOM     11  N   UNL     1      47.073   8.761  14.681  0.00  0.00    +0.000 N 
ATOM     12  O   UNL     1      47.512   9.746  12.708  0.00  0.00    +0.000 OA
ATOM     13  H   UNL     1      46.693   8.036  15.267  0.00  0.00    +0.000 HD
ATOM     14  H   UNL     1      47.622   9.486  15.132  0.00  0.00    +0.000 HD
ENDBRANCH   6  10
BRANCH   1  15
ATOM     15  C   UNL     1      44.513   3.373  10.431  0.00  0.00    +0.000 C 
BRANCH  15  19
ATOM     16  C   UNL     1      46.343   2.818   6.685  0.00  0.00    +0.000 C 
ATOM     17  N   UNL     1      46.572   4.129   7.295  0.00  0.00    +0.000 NA
ATOM     18  C   UNL     1      45.599   4.345   8.357  0.00  0.00    +0.000 C 
ATOM     19  C   UNL     1      45.625   3.210   9.384  0.00  0.00    +0.000 C 
ATOM     20  C   UNL     1      45.602   1.845   8.690  0.00  0.00    +0.000 C 
ATOM     21  O   UNL     1      46.576   1.791   7.646  0.00  0.00    +0.000 OA
ATOM     22  H   UNL     1      46.426   4.838   6.579  0.00  0.00    +0.000 HD
BRANCH  16  23
ATOM     23  C   UNL     1      47.292   2.621   5.471  0.00  0.00    +0.000 C 
BRANCH  23  24
ATOM     24  N   UNL     1      48.472   1.791   5.780  0.00  0.00    +0.000 NA
ATOM     25  H   UNL     1      49.260   2.412   5.961  0.00  0.00    +0.000 HD
ATOM     26  H   UNL     1      48.733   1.268   4.947  0.00  0.00    +0.000 HD
ENDBRANCH  23  24
ENDBRANCH  16  23
ENDBRANCH  15  19
ENDBRANCH   1  15
TORSDOF 5
ENDMDL
MODEL 5
REMARK VINA RESULT:    -6.771      5.125      6.967
REMARK INTER + INTRA:          -8.832
REMARK INTER:                  -8.677
REMARK INTRA:                  -0.155
REMARK UNBOUND:                -0.280
REMARK  Name = 
REMARK  5 active torsions:
REMARK  status: ('A' for Active; 'I' for Inactive)
REMARK    1  A    between atoms: N_1  and  C_2
REMARK    2  A    between atoms: C_2  and  C_3
REMARK    3  A    between atoms: C_6  and  C_7
REMARK    4  A    between atoms: C_7  and  N_8
REMARK    5  A    between atoms: C_13  and  C_14
REMARK                            x       y       z     vdW  Elec       q    Type
REMARK                         _______ _______ _______ _____ _____    ______ ____
ROOT
ATOM      1  N   UNL     1      47.359   4.969  15.585  0.00  0.00    +0.000 N 
ATOM      2  N   UNL     1      48.492   5.694  15.470  0.00  0.00    +0.000 NA
ATOM      3  N   UNL     1      48.535   6.183  14.234  0.00  0.00    +0.000 NA
ATOM      4  C   UNL     1      47.420   5.749  13.568  0.00  0.00    +0.000 A 
ATOM      5  C   UNL     1      46.983   5.937  12.249  0.00  0.00    +0.000 A 
ATOM      6  C   UNL     1      45.774   5.320  11.889  0.00  0.00    +0.000 A 
ATOM      7  C   UNL     1      45.075   4.591  12.859  0.00  0.00    +0.000 A 
ATOM      8  N   UNL     1      45.464   4.385  14.150  0.00  0.00    +0.000 NA
ATOM      9  C   UNL     1      46.645   4.980  14.419  0.00  0.00    +0.000 A 
ENDROOT
BRANCH   6  10
ATOM     10  C   UNL     1      45.206   5.364  10.523  0.00  0.00    +0.000 C 
ATOM     11  N   UNL     1      43.855   5.224  10.363  0.00  0.00    +0.000 N 
ATOM     12  O   UNL     1      45.925   5.539   9.543  0.00  0.00    +0.000 OA
ATOM     13  H   UNL     1      43.182   5.105  11.101  0.00  0.00    +0.000 HD
ATOM     14  H   UNL     1      43.501   5.298   9.414  0.00  0.00    +0.000 HD
ENDBRANCH   6  10
BRANCH   1  15
ATOM     15  C   UNL     1      47.064   4.246  16.803  0.00  0.00    +0.000 C 
BRANCH  15  19
ATOM     16  C   UNL     1      50.796   2.334  17.132  0.00  0.00    +0.000 C 
ATOM     17  N   UNL     1      50.276   2.892  18.383  0.00  0.00    +0.000 NA
ATOM     18  C   UNL     1      49.215   3.843  18.083  0.00  0.00    +0.000 C 
ATOM     19  C   UNL     1      48.117   3.210  17.225  0.00  0.00    +0.000 C 
ATOM     20  C   UNL     1      48.720   2.449  16.040  0.00  0.00    +0.000 C 
ATOM     21  O   UNL     1      49.775   1.589  16.475  0.00  0.00    +0.000 OA
ATOM     22  H   UNL     1      51.034   3.393  18.842  0.00  0.00    +0.000 HD
BRANCH  16  23
ATOM     23  C   UNL     1      52.010   1.411  17.425  0.00  0.00    +0.000 C 
BRANCH  23  24
ATOM     24  N   UNL     1      51.648   0.185  18.162  0.00  0.00    +0.000 NA
ATOM     25  H   UNL     1      52.276   0.098  18.962  0.00  0.00    +0.000 HD
ATOM     26  H   UNL     1      51.851  -0.622  17.578  0.00  0.00    +0.000 HD
ENDBRANCH  23  24
ENDBRANCH  16  23
ENDBRANCH  15  19
ENDBRANCH   1  15
TORSDOF 5
ENDMDL
MODEL 6
REMARK VINA RESULT:    -6.711      2.181      2.727
REMARK INTER + INTRA:          -8.756
REMARK INTER:                  -8.519
REMARK INTRA:                  -0.237
REMARK UNBOUND:                -0.280
REMARK  Name = 
REMARK  5 active torsions:
REMARK  status: ('A' for Active; 'I' for Inactive)
REMARK    1  A    between atoms: N_1  and  C_2
REMARK    2  A    between atoms: C_2  and  C_3
REMARK    3  A    between atoms: C_6  and  C_7
REMARK    4  A    between atoms: C_7  and  N_8
REMARK    5  A    between atoms: C_13  and  C_14
REMARK                            x       y       z     vdW  Elec       q    Type
REMARK                         _______ _______ _______ _____ _____    ______ ____
ROOT
ATOM      1  N   UNL     1      44.341   3.804  10.133  0.00  0.00    +0.000 N 
ATOM      2  N   UNL     1      44.318   5.142   9.946  0.00  0.00    +0.000 NA
ATOM      3  N   UNL     1      45.076   5.415   8.888  0.00  0.00    +0.000 NA
ATOM      4  C   UNL     1      45.585   4.235   8.416  0.00  0.00    +0.000 A 
ATOM      5  C   UNL     1      46.458   3.946   7.357  0.00  0.00    +0.000 A 
ATOM      6  C   UNL     1      46.794   2.597   7.162  0.00  0.00    +0.000 A 
ATOM      7  C   UNL     1      46.223   1.634   8.003  0.00  0.00    +0.000 A 
ATOM      8  N   UNL     1      45.372   1.871   9.042  0.00  0.00    +0.000 NA
ATOM      9  C   UNL     1      45.117   3.187   9.191  0.00  0.00    +0.000 A 
ENDROOT
BRANCH   6  10
ATOM     10  C   UNL     1      47.750   2.130   6.133  0.00  0.00    +0.000 C 
ATOM     11  N   UNL     1      48.017   2.939   5.063  0.00  0.00    +0.000 N 
ATOM     12  O   UNL     1      48.310   1.043   6.236  0.00  0.00    +0.000 OA
ATOM     13  H   UNL     1      47.632   3.855   4.904  0.00  0.00    +0.000 HD
ATOM     14  H   UNL     1      48.706   2.599   4.399  0.00  0.00    +0.000 HD
ENDBRANCH   6  10
BRANCH   1  15
ATOM     15  C   UNL     1      43.662   3.203  11.259  0.00  0.00    +0.000 C 
BRANCH  15  19
ATOM     16  C   UNL     1      46.467   4.470  14.126  0.00  0.00    +0.000 C 
ATOM     17  N   UNL     1      45.079   4.839  14.415  0.00  0.00    +0.000 NA
ATOM     18  C   UNL     1      44.281   4.707  13.204  0.00  0.00    +0.000 C 
ATOM     19  C   UNL     1      44.399   3.304  12.603  0.00  0.00    +0.000 C 
ATOM     20  C   UNL     1      45.865   2.867  12.518  0.00  0.00    +0.000 C 
ATOM     21  O   UNL     1      46.533   3.094  13.761  0.00  0.00    +0.000 OA
ATOM     22  H   UNL     1      45.068   5.817  14.700  0.00  0.00    +0.000 HD
BRANCH  16  23
ATOM     23  C   UNL     1      47.357   4.722  15.373  0.00  0.00    +0.000 C 
BRANCH  23  24
ATOM     24  N   UNL     1      47.228   3.674  16.404  0.00  0.00    +0.000 NA
ATOM     25  H   UNL     1      47.523   4.069  17.298  0.00  0.00    +0.000 HD
ATOM     26  H   UNL     1      47.900   2.935  16.208  0.00  0.00    +0.000 HD
ENDBRANCH  23  24
ENDBRANCH  16  23
ENDBRANCH  15  19
ENDBRANCH   1  15
TORSDOF 5
ENDMDL
MODEL 7
REMARK VINA RESULT:    -6.281      4.762      6.604
REMARK INTER + INTRA:          -8.213
REMARK INTER:                  -7.875
REMARK INTRA:                  -0.338
REMARK UNBOUND:                -0.280
REMARK  Name = 
REMARK  5 active torsions:
REMARK  status: ('A' for Active; 'I' for Inactive)
REMARK    1  A    between atoms: N_1  and  C_2
REMARK    2  A    between atoms: C_2  and  C_3
REMARK    3  A    between atoms: C_6  and  C_7
REMARK    4  A    between atoms: C_7  and  N_8
REMARK    5  A    between atoms: C_13  and  C_14
REMARK                            x       y       z     vdW  Elec       q    Type
REMARK                         _______ _______ _______ _____ _____    ______ ____
ROOT
ATOM      1  N   UNL     1      47.357   4.899  14.871  0.00  0.00    +0.000 N 
ATOM      2  N   UNL     1      48.238   5.901  14.663  0.00  0.00    +0.000 NA
ATOM      3  N   UNL     1      47.970   6.435  13.476  0.00  0.00    +0.000 NA
ATOM      4  C   UNL     1      46.915   5.752  12.932  0.00  0.00    +0.000 A 
ATOM      5  C   UNL     1      46.253   5.874  11.702  0.00  0.00    +0.000 A 
ATOM      6  C   UNL     1      45.201   4.976  11.458  0.00  0.00    +0.000 A 
ATOM      7  C   UNL     1      44.863   4.050  12.452  0.00  0.00    +0.000 A 
ATOM      8  N   UNL     1      45.480   3.899  13.659  0.00  0.00    +0.000 NA
ATOM      9  C   UNL     1      46.497   4.771  13.815  0.00  0.00    +0.000 A 
ENDROOT
BRANCH   6  10
ATOM     10  C   UNL     1      44.443   4.927  10.188  0.00  0.00    +0.000 C 
ATOM     11  N   UNL     1      45.131   4.831   9.010  0.00  0.00    +0.000 N 
ATOM     12  O   UNL     1      43.216   4.958  10.181  0.00  0.00    +0.000 OA
ATOM     13  H   UNL     1      46.131   4.771   8.912  0.00  0.00    +0.000 HD
ATOM     14  H   UNL     1      44.574   4.762   8.164  0.00  0.00    +0.000 HD
ENDBRANCH   6  10
BRANCH   1  15
ATOM     15  C   UNL     1      47.441   4.073  16.055  0.00  0.00    +0.000 C 
BRANCH  15  19
ATOM     16  C   UNL     1      49.112   4.603  19.878  0.00  0.00    +0.000 C 
ATOM     17  N   UNL     1      49.979   3.922  18.915  0.00  0.00    +0.000 NA
ATOM     18  C   UNL     1      49.180   3.452  17.792  0.00  0.00    +0.000 C 
ATOM     19  C   UNL     1      48.380   4.591  17.154  0.00  0.00    +0.000 C 
ATOM     20  C   UNL     1      47.656   5.416  18.223  0.00  0.00    +0.000 C 
ATOM     21  O   UNL     1      48.551   5.769  19.281  0.00  0.00    +0.000 OA
ATOM     22  H   UNL     1      50.387   3.112  19.378  0.00  0.00    +0.000 HD
BRANCH  16  23
ATOM     23  C   UNL     1      49.926   5.003  21.138  0.00  0.00    +0.000 C 
BRANCH  23  24
ATOM     24  N   UNL     1      51.302   4.472  21.138  0.00  0.00    +0.000 NA
ATOM     25  H   UNL     1      51.832   4.959  20.416  0.00  0.00    +0.000 HD
ATOM     26  H   UNL     1      51.279   3.499  20.839  0.00  0.00    +0.000 HD
ENDBRANCH  23  24
ENDBRANCH  16  23
ENDBRANCH  15  19
ENDBRANCH   1  15
TORSDOF 5
ENDMDL
MODEL 8
REMARK VINA RESULT:    -6.281      1.906      6.709
REMARK INTER + INTRA:          -8.213
REMARK INTER:                  -7.917
REMARK INTRA:                  -0.296
REMARK UNBOUND:                -0.280
REMARK  Name = 
REMARK  5 active torsions:
REMARK  status: ('A' for Active; 'I' for Inactive)
REMARK    1  A    between atoms: N_1  and  C_2
REMARK    2  A    between atoms: C_2  and  C_3
REMARK    3  A    between atoms: C_6  and  C_7
REMARK    4  A    between atoms: C_7  and  N_8
REMARK    5  A    between atoms: C_13  and  C_14
REMARK                            x       y       z     vdW  Elec       q    Type
REMARK                         _______ _______ _______ _____ _____    ______ ____
ROOT
ATOM      1  N   UNL     1      44.471   5.707  11.367  0.00  0.00    +0.000 N 
ATOM      2  N   UNL     1      44.132   6.976  11.055  0.00  0.00    +0.000 NA
ATOM      3  N   UNL     1      44.959   7.787  11.708  0.00  0.00    +0.000 NA
ATOM      4  C   UNL     1      45.818   7.014  12.443  0.00  0.00    +0.000 A 
ATOM      5  C   UNL     1      46.855   7.345  13.326  0.00  0.00    +0.000 A 
ATOM      6  C   UNL     1      47.533   6.277  13.935  0.00  0.00    +0.000 A 
ATOM      7  C   UNL     1      47.160   4.968  13.606  0.00  0.00    +0.000 A 
ATOM      8  N   UNL     1      46.160   4.604  12.753  0.00  0.00    +0.000 NA
ATOM      9  C   UNL     1      45.532   5.676  12.229  0.00  0.00    +0.000 A 
ENDROOT
BRANCH   6  10
ATOM     10  C   UNL     1      48.607   6.453  14.939  0.00  0.00    +0.000 C 
ATOM     11  N   UNL     1      49.324   7.617  14.944  0.00  0.00    +0.000 N 
ATOM     12  O   UNL     1      48.848   5.580  15.768  0.00  0.00    +0.000 OA
ATOM     13  H   UNL     1      49.185   8.400  14.326  0.00  0.00    +0.000 HD
ATOM     14  H   UNL     1      50.026   7.715  15.671  0.00  0.00    +0.000 HD
ENDBRANCH   6  10
BRANCH   1  15
ATOM     15  C   UNL     1      43.702   4.591  10.863  0.00  0.00    +0.000 C 
BRANCH  15  19
ATOM     16  C   UNL     1      46.337   2.774   8.134  0.00  0.00    +0.000 C 
ATOM     17  N   UNL     1      45.194   1.949   8.530  0.00  0.00    +0.000 NA
ATOM     18  C   UNL     1      44.593   2.502   9.737  0.00  0.00    +0.000 C 
ATOM     19  C   UNL     1      44.215   3.974   9.553  0.00  0.00    +0.000 C 
ATOM     20  C   UNL     1      45.373   4.762   8.932  0.00  0.00    +0.000 C 
ATOM     21  O   UNL     1      45.890   4.081   7.786  0.00  0.00    +0.000 OA
ATOM     22  H   UNL     1      45.540   1.016   8.745  0.00  0.00    +0.000 HD
BRANCH  16  23
ATOM     23  C   UNL     1      47.063   2.131   6.922  0.00  0.00    +0.000 C 
BRANCH  23  24
ATOM     24  N   UNL     1      47.184   3.038   5.764  0.00  0.00    +0.000 NA
ATOM     25  H   UNL     1      47.760   3.833   6.042  0.00  0.00    +0.000 HD
ATOM     26  H   UNL     1      46.269   3.433   5.560  0.00  0.00    +0.000 HD
ENDBRANCH  23  24
ENDBRANCH  16  23
ENDBRANCH  15  19
ENDBRANCH   1  15
TORSDOF 5
ENDMDL
MODEL 9
REMARK VINA RESULT:    -6.155      4.712      7.178
REMARK INTER + INTRA:          -8.054
REMARK INTER:                  -7.752
REMARK INTRA:                  -0.302
REMARK UNBOUND:                -0.280
REMARK  Name = 
REMARK  5 active torsions:
REMARK  status: ('A' for Active; 'I' for Inactive)
REMARK    1  A    between atoms: N_1  and  C_2
REMARK    2  A    between atoms: C_2  and  C_3
REMARK    3  A    between atoms: C_6  and  C_7
REMARK    4  A    between atoms: C_7  and  N_8
REMARK    5  A    between atoms: C_13  and  C_14
REMARK                            x       y       z     vdW  Elec       q    Type
REMARK                         _______ _______ _______ _____ _____    ______ ____
ROOT
ATOM      1  N   UNL     1      47.040   5.381  13.449  0.00  0.00    +0.000 N 
ATOM      2  N   UNL     1      46.433   4.255  13.017  0.00  0.00    +0.000 NA
ATOM      3  N   UNL     1      46.597   3.323  13.952  0.00  0.00    +0.000 NA
ATOM      4  C   UNL     1      47.325   3.872  14.974  0.00  0.00    +0.000 A 
ATOM      5  C   UNL     1      47.805   3.336  16.176  0.00  0.00    +0.000 A 
ATOM      6  C   UNL     1      48.549   4.195  17.001  0.00  0.00    +0.000 A 
ATOM      7  C   UNL     1      48.737   5.522  16.594  0.00  0.00    +0.000 A 
ATOM      8  N   UNL     1      48.287   6.082  15.435  0.00  0.00    +0.000 NA
ATOM      9  C   UNL     1      47.609   5.195  14.679  0.00  0.00    +0.000 A 
ENDROOT
BRANCH   6  10
ATOM     10  C   UNL     1      49.180   3.770  18.271  0.00  0.00    +0.000 C 
ATOM     11  N   UNL     1      48.390   3.263  19.265  0.00  0.00    +0.000 N 
ATOM     12  O   UNL     1      50.394   3.854  18.433  0.00  0.00    +0.000 OA
ATOM     13  H   UNL     1      47.394   3.129  19.219  0.00  0.00    +0.000 HD
ATOM     14  H   UNL     1      48.865   2.949  20.106  0.00  0.00    +0.000 HD
ENDBRANCH   6  10
BRANCH   1  15
ATOM     15  C   UNL     1      47.096   6.559  12.612  0.00  0.00    +0.000 C 
BRANCH  15  19
ATOM     16  C   UNL     1      44.159   9.156  11.089  0.00  0.00    +0.000 C 
ATOM     17  N   UNL     1      43.733   7.763  11.239  0.00  0.00    +0.000 NA
ATOM     18  C   UNL     1      44.905   6.912  11.386  0.00  0.00    +0.000 C 
ATOM     19  C   UNL     1      45.798   7.377  12.539  0.00  0.00    +0.000 C 
ATOM     20  C   UNL     1      46.043   8.887  12.466  0.00  0.00    +0.000 C 
ATOM     21  O   UNL     1      44.813   9.591  12.279  0.00  0.00    +0.000 OA
ATOM     22  H   UNL     1      43.245   7.491  10.388  0.00  0.00    +0.000 HD
BRANCH  16  23
ATOM     23  C   UNL     1      42.930  10.063  10.809  0.00  0.00    +0.000 C 
BRANCH  23  24
ATOM     24  N   UNL     1      41.640   9.389  11.050  0.00  0.00    +0.000 NA
ATOM     25  H   UNL     1      41.777   8.690  11.780  0.00  0.00    +0.000 HD
ATOM     26  H   UNL     1      41.386   8.858  10.220  0.00  0.00    +0.000 HD
ENDBRANCH  23  24
ENDBRANCH  16  23
ENDBRANCH  15  19
ENDBRANCH   1  15
TORSDOF 5
ENDMDL
