MODEL 1
REMARK VINA RESULT:    -9.168      0.000      0.000
REMARK INTER + INTRA:         -13.263
REMARK INTER:                 -12.652
REMARK INTRA:                  -0.611
REMARK UNBOUND:                -0.611
REMARK  Name = 
REMARK  8 active torsions:
REMARK  status: ('A' for Active; 'I' for Inactive)
REMARK    1  A    between atoms: C_1  and  C_2
REMARK    2  A    between atoms: C_4  and  C_5
REMARK    3  A    between atoms: C_10  and  N_11
REMARK    4  A    between atoms: N_11  and  C_12
REMARK    5  A    between atoms: C_12  and  C_13
REMARK    6  A    between atoms: C_17  and  C_18
REMARK    7  A    between atoms: C_21  and  C_22
REMARK    8  A    between atoms: C_22  and  O_23
REMARK                            x       y       z     vdW  Elec       q    Type
REMARK                         _______ _______ _______ _____ _____    ______ ____
ROOT
ATOM      1  C   UNL     1      44.118   5.093  11.482  0.00  0.00    +0.000 C 
ATOM      2  C   UNL     1      43.449   3.988  12.323  0.00  0.00    +0.000 C 
ATOM      3  C   UNL     1      42.957   5.382  12.418  0.00  0.00    +0.000 C 
ENDROOT
BRANCH   1   4
ATOM      4  C   UNL     1      45.496   5.561  11.979  0.00  0.00    +0.000 A 
ATOM      5  C   UNL     1      46.218   6.561  11.317  0.00  0.00    +0.000 A 
ATOM      6  C   UNL     1      47.414   7.050  11.841  0.00  0.00    +0.000 A 
ATOM      7  C   UNL     1      47.900   6.558  13.061  0.00  0.00    +0.000 A 
ATOM      8  C   UNL     1      47.209   5.572  13.778  0.00  0.00    +0.000 A 
ATOM      9  C   UNL     1      46.041   5.060  13.184  0.00  0.00    +0.000 A 
BRANCH   8  10
ATOM     10  C   UNL     1      47.621   5.161  15.142  0.00  0.00    +0.000 A 
ATOM     11  C   UNL     1      48.486   5.975  15.898  0.00  0.00    +0.000 A 
ATOM     12  C   UNL     1      48.847   5.645  17.207  0.00  0.00    +0.000 A 
ATOM     13  C   UNL     1      48.338   4.496  17.814  0.00  0.00    +0.000 A 
ATOM     14  C   UNL     1      47.459   3.687  17.085  0.00  0.00    +0.000 A 
ATOM     15  C   UNL     1      47.113   4.011  15.768  0.00  0.00    +0.000 A 
BRANCH  13  16
ATOM     16  C   UNL     1      48.743   4.123  19.214  0.00  0.00    +0.000 C 
BRANCH  16  17
ATOM     17  O   UNL     1      48.160   2.885  19.596  0.00  0.00    +0.000 OA
ATOM     18  H   UNL     1      48.671   2.185  19.156  0.00  0.00    +0.000 HD
ENDBRANCH  16  17
ENDBRANCH  13  16
ENDBRANCH   8  10
ENDBRANCH   1   4
BRANCH   1  19
ATOM     19  N   UNL     1      44.091   4.808  10.046  0.00  0.00    +0.000 N 
ATOM     20  H   UNL     1      43.219   5.014   9.565  0.00  0.00    +0.000 HD
BRANCH  19  27
ATOM     21  C   UNL     1      44.086   1.687   9.742  0.00  0.00    +0.000 C 
ATOM     22  C   UNL     1      44.934   2.681   9.021  0.00  0.00    +0.000 A 
ATOM     23  C   UNL     1      45.912   2.144   8.155  0.00  0.00    +0.000 A 
ATOM     24  C   UNL     1      46.751   2.958   7.404  0.00  0.00    +0.000 A 
ATOM     25  C   UNL     1      46.567   4.315   7.552  0.00  0.00    +0.000 A 
ATOM     26  N   UNL     1      45.664   4.867   8.410  0.00  0.00    +0.000 NA
ATOM     27  C   UNL     1      44.861   4.064   9.163  0.00  0.00    +0.000 A 
BRANCH  24  28
ATOM     28  C   UNL     1      47.758   2.318   6.524  0.00  0.00    +0.000 C 
ATOM     29  N   UNL     1      48.020   2.852   5.295  0.00  0.00    +0.000 N 
ATOM     30  O   UNL     1      48.367   1.317   6.887  0.00  0.00    +0.000 OA
ATOM     31  H   UNL     1      47.600   3.679   4.904  0.00  0.00    +0.000 HD
ATOM     32  H   UNL     1      48.728   2.376   4.746  0.00  0.00    +0.000 HD
ENDBRANCH  24  28
ENDBRANCH  19  27
ENDBRANCH   1  19
TORSDOF 7
ENDMDL
MODEL 2
REMARK VINA RESULT:    -8.938      3.190      4.565
REMARK INTER + INTRA:         -12.946
REMARK INTER:                 -11.906
REMARK INTRA:                  -1.040
REMARK UNBOUND:                -0.611
REMARK  Name = 
REMARK  8 active torsions:
REMARK  status: ('A' for Active; 'I' for Inactive)
REMARK    1  A    between atoms: C_1  and  C_2
REMARK    2  A    between atoms: C_4  and  C_5
REMARK    3  A    between atoms: C_10  and  N_11
REMARK    4  A    between atoms: N_11  and  C_12
REMARK    5  A    between atoms: C_12  and  C_13
REMARK    6  A    between atoms: C_17  and  C_18
REMARK    7  A    between atoms: C_21  and  C_22
REMARK    8  A    between atoms: C_22  and  O_23
REMARK                            x       y       z     vdW  Elec       q    Type
REMARK                         _______ _______ _______ _____ _____    ______ ____
ROOT
ATOM      1  C   UNL     1      43.799   5.427  11.102  0.00  0.00    +0.000 C 
ATOM      2  C   UNL     1      42.644   4.625  11.734  0.00  0.00    +0.000 C 
ATOM      3  C   UNL     1      42.591   6.106  11.726  0.00  0.00    +0.000 C 
ENDROOT
BRANCH   1   4
ATOM      4  C   UNL     1      45.092   5.492  11.931  0.00  0.00    +0.000 A 
ATOM      5  C   UNL     1      45.508   4.421  12.732  0.00  0.00    +0.000 A 
ATOM      6  C   UNL     1      46.737   4.453  13.392  0.00  0.00    +0.000 A 
ATOM      7  C   UNL     1      47.588   5.556  13.240  0.00  0.00    +0.000 A 
ATOM      8  C   UNL     1      47.233   6.647  12.434  0.00  0.00    +0.000 A 
ATOM      9  C   UNL     1      45.959   6.605  11.838  0.00  0.00    +0.000 A 
BRANCH   8  10
ATOM     10  C   UNL     1      48.186   7.743  12.134  0.00  0.00    +0.000 A 
ATOM     11  C   UNL     1      49.528   7.452  11.824  0.00  0.00    +0.000 A 
ATOM     12  C   UNL     1      50.437   8.456  11.479  0.00  0.00    +0.000 A 
ATOM     13  C   UNL     1      50.027   9.789  11.414  0.00  0.00    +0.000 A 
ATOM     14  C   UNL     1      48.692  10.095  11.698  0.00  0.00    +0.000 A 
ATOM     15  C   UNL     1      47.788   9.088  12.059  0.00  0.00    +0.000 A 
BRANCH  13  16
ATOM     16  C   UNL     1      51.007  10.877  11.069  0.00  0.00    +0.000 C 
BRANCH  16  17
ATOM     17  O   UNL     1      51.283  10.886   9.676  0.00  0.00    +0.000 OA
ATOM     18  H   UNL     1      52.052  10.307   9.537  0.00  0.00    +0.000 HD
ENDBRANCH  16  17
ENDBRANCH  13  16
ENDBRANCH   8  10
ENDBRANCH   1   4
BRANCH   1  19
ATOM     19  N   UNL     1      44.033   5.076   9.700  0.00  0.00    +0.000 N 
ATOM     20  H   UNL     1      43.344   5.416   9.032  0.00  0.00    +0.000 HD
BRANCH  19  27
ATOM     21  C   UNL     1      44.017   1.966  10.095  0.00  0.00    +0.000 C 
ATOM     22  C   UNL     1      44.885   2.774   9.190  0.00  0.00    +0.000 A 
ATOM     23  C   UNL     1      45.878   2.058   8.486  0.00  0.00    +0.000 A 
ATOM     24  C   UNL     1      46.736   2.684   7.590  0.00  0.00    +0.000 A 
ATOM     25  C   UNL     1      46.556   4.040   7.430  0.00  0.00    +0.000 A 
ATOM     26  N   UNL     1      45.639   4.770   8.125  0.00  0.00    +0.000 NA
ATOM     27  C   UNL     1      44.816   4.154   9.020  0.00  0.00    +0.000 A 
BRANCH  24  28
ATOM     28  C   UNL     1      47.758   1.864   6.897  0.00  0.00    +0.000 C 
ATOM     29  N   UNL     1      48.757   2.478   6.197  0.00  0.00    +0.000 N 
ATOM     30  O   UNL     1      47.723   0.639   6.947  0.00  0.00    +0.000 OA
ATOM     31  H   UNL     1      48.898   3.471   6.107  0.00  0.00    +0.000 HD
ATOM     32  H   UNL     1      49.432   1.863   5.756  0.00  0.00    +0.000 HD
ENDBRANCH  24  28
ENDBRANCH  19  27
ENDBRANCH   1  19
TORSDOF 7
ENDMDL
MODEL 3
REMARK VINA RESULT:    -8.548      2.660      8.224
REMARK INTER + INTRA:         -12.407
REMARK INTER:                 -11.374
REMARK INTRA:                  -1.034
REMARK UNBOUND:                -0.611
REMARK  Name = 
REMARK  8 active torsions:
REMARK  status: ('A' for Active; 'I' for Inactive)
REMARK    1  A    between atoms: C_1  and  C_2
REMARK    2  A    between atoms: C_4  and  C_5
REMARK    3  A    between atoms: C_10  and  N_11
REMARK    4  A    between atoms: N_11  and  C_12
REMARK    5  A    between atoms: C_12  and  C_13
REMARK    6  A    between atoms: C_17  and  C_18
REMARK    7  A    between atoms: C_21  and  C_22
REMARK    8  A    between atoms: C_22  and  O_23
REMARK                            x       y       z     vdW  Elec       q    Type
REMARK                         _______ _______ _______ _____ _____    ______ ____
ROOT
ATOM      1  C   UNL     1      46.177   7.438  12.641  0.00  0.00    +0.000 C 
ATOM      2  C   UNL     1      46.524   8.732  11.877  0.00  0.00    +0.000 C 
ATOM      3  C   UNL     1      45.587   8.786  13.023  0.00  0.00    +0.000 C 
ENDROOT
BRANCH   1   4
ATOM      4  C   UNL     1      45.216   6.480  11.918  0.00  0.00    +0.000 A 
ATOM      5  C   UNL     1      43.826   6.598  12.042  0.00  0.00    +0.000 A 
ATOM      6  C   UNL     1      42.968   5.792  11.296  0.00  0.00    +0.000 A 
ATOM      7  C   UNL     1      43.490   4.862  10.386  0.00  0.00    +0.000 A 
ATOM      8  C   UNL     1      44.873   4.715  10.204  0.00  0.00    +0.000 A 
ATOM      9  C   UNL     1      45.705   5.501  11.023  0.00  0.00    +0.000 A 
BRANCH   8  10
ATOM     10  C   UNL     1      45.436   3.858   9.135  0.00  0.00    +0.000 A 
ATOM     11  C   UNL     1      46.104   4.436   8.039  0.00  0.00    +0.000 A 
ATOM     12  C   UNL     1      46.697   3.653   7.044  0.00  0.00    +0.000 A 
ATOM     13  C   UNL     1      46.658   2.260   7.122  0.00  0.00    +0.000 A 
ATOM     14  C   UNL     1      46.018   1.668   8.216  0.00  0.00    +0.000 A 
ATOM     15  C   UNL     1      45.410   2.454   9.202  0.00  0.00    +0.000 A 
BRANCH  13  16
ATOM     16  C   UNL     1      47.272   1.413   6.041  0.00  0.00    +0.000 C 
BRANCH  16  17
ATOM     17  O   UNL     1      48.627   1.780   5.819  0.00  0.00    +0.000 OA
ATOM     18  H   UNL     1      49.176   1.076   6.205  0.00  0.00    +0.000 HD
ENDBRANCH  16  17
ENDBRANCH  13  16
ENDBRANCH   8  10
ENDBRANCH   1   4
BRANCH   1  19
ATOM     19  N   UNL     1      47.359   6.766  13.184  0.00  0.00    +0.000 N 
ATOM     20  H   UNL     1      48.142   6.650  12.546  0.00  0.00    +0.000 HD
BRANCH  19  27
ATOM     21  C   UNL     1      46.359   3.835  13.676  0.00  0.00    +0.000 C 
ATOM     22  C   UNL     1      47.179   4.692  14.581  0.00  0.00    +0.000 A 
ATOM     23  C   UNL     1      47.471   4.146  15.851  0.00  0.00    +0.000 A 
ATOM     24  C   UNL     1      48.246   4.827  16.781  0.00  0.00    +0.000 A 
ATOM     25  C   UNL     1      48.714   6.061  16.387  0.00  0.00    +0.000 A 
ATOM     26  N   UNL     1      48.416   6.637  15.189  0.00  0.00    +0.000 NA
ATOM     27  C   UNL     1      47.635   5.975  14.291  0.00  0.00    +0.000 A 
BRANCH  24  28
ATOM     28  C   UNL     1      48.500   4.190  18.095  0.00  0.00    +0.000 C 
ATOM     29  N   UNL     1      47.787   3.084  18.459  0.00  0.00    +0.000 N 
ATOM     30  O   UNL     1      49.349   4.638  18.859  0.00  0.00    +0.000 OA
ATOM     31  H   UNL     1      47.087   2.618  17.906  0.00  0.00    +0.000 HD
ATOM     32  H   UNL     1      48.016   2.686  19.363  0.00  0.00    +0.000 HD
ENDBRANCH  24  28
ENDBRANCH  19  27
ENDBRANCH   1  19
TORSDOF 7
ENDMDL
MODEL 4
REMARK VINA RESULT:    -7.591      4.701      8.736
REMARK INTER + INTRA:         -11.087
REMARK INTER:                  -9.948
REMARK INTRA:                  -1.139
REMARK UNBOUND:                -0.611
REMARK  Name = 
REMARK  8 active torsions:
REMARK  status: ('A' for Active; 'I' for Inactive)
REMARK    1  A    between atoms: C_1  and  C_2
REMARK    2  A    between atoms: C_4  and  C_5
REMARK    3  A    between atoms: C_10  and  N_11
REMARK    4  A    between atoms: N_11  and  C_12
REMARK    5  A    between atoms: C_12  and  C_13
REMARK    6  A    between atoms: C_17  and  C_18
REMARK    7  A    between atoms: C_21  and  C_22
REMARK    8  A    between atoms: C_22  and  O_23
REMARK                            x       y       z     vdW  Elec       q    Type
REMARK                         _______ _______ _______ _____ _____    ______ ____
ROOT
ATOM      1  C   UNL     1      48.884   5.481  17.651  0.00  0.00    +0.000 C 
ATOM      2  C   UNL     1      48.270   6.348  18.769  0.00  0.00    +0.000 C 
ATOM      3  C   UNL     1      47.534   5.162  18.271  0.00  0.00    +0.000 C 
ENDROOT
BRANCH   1   4
ATOM      4  C   UNL     1      48.833   6.088  16.239  0.00  0.00    +0.000 A 
ATOM      5  C   UNL     1      49.833   6.950  15.771  0.00  0.00    +0.000 A 
ATOM      6  C   UNL     1      49.829   7.404  14.452  0.00  0.00    +0.000 A 
ATOM      7  C   UNL     1      48.829   6.980  13.565  0.00  0.00    +0.000 A 
ATOM      8  C   UNL     1      47.816   6.101  13.973  0.00  0.00    +0.000 A 
ATOM      9  C   UNL     1      47.818   5.718  15.327  0.00  0.00    +0.000 A 
BRANCH   8  10
ATOM     10  C   UNL     1      46.851   5.518  13.011  0.00  0.00    +0.000 A 
ATOM     11  C   UNL     1      46.192   4.310  13.310  0.00  0.00    +0.000 A 
ATOM     12  C   UNL     1      45.234   3.763  12.452  0.00  0.00    +0.000 A 
ATOM     13  C   UNL     1      44.887   4.419  11.270  0.00  0.00    +0.000 A 
ATOM     14  C   UNL     1      45.515   5.632  10.967  0.00  0.00    +0.000 A 
ATOM     15  C   UNL     1      46.487   6.168  11.820  0.00  0.00    +0.000 A 
BRANCH  13  16
ATOM     16  C   UNL     1      43.875   3.822  10.329  0.00  0.00    +0.000 C 
BRANCH  16  17
ATOM     17  O   UNL     1      43.674   4.664   9.203  0.00  0.00    +0.000 OA
ATOM     18  H   UNL     1      44.377   4.452   8.564  0.00  0.00    +0.000 HD
ENDBRANCH  16  17
ENDBRANCH  13  16
ENDBRANCH   8  10
ENDBRANCH   1   4
BRANCH   1  19
ATOM     19  N   UNL     1      50.204   4.954  18.003  0.00  0.00    +0.000 N 
ATOM     20  H   UNL     1      50.902   5.640  18.280  0.00  0.00    +0.000 HD
BRANCH  19  27
ATOM     21  C   UNL     1      49.039   2.329  16.744  0.00  0.00    +0.000 C 
ATOM     22  C   UNL     1      50.404   2.555  17.303  0.00  0.00    +0.000 A 
ATOM     23  C   UNL     1      51.248   1.423  17.345  0.00  0.00    +0.000 A 
ATOM     24  C   UNL     1      52.552   1.500  17.817  0.00  0.00    +0.000 A 
ATOM     25  C   UNL     1      52.970   2.743  18.236  0.00  0.00    +0.000 A 
ATOM     26  N   UNL     1      52.170   3.846  18.250  0.00  0.00    +0.000 NA
ATOM     27  C   UNL     1      50.884   3.760  17.809  0.00  0.00    +0.000 A 
BRANCH  24  28
ATOM     28  C   UNL     1      53.372   0.265  17.838  0.00  0.00    +0.000 C 
ATOM     29  N   UNL     1      53.858  -0.244  16.667  0.00  0.00    +0.000 N 
ATOM     30  O   UNL     1      53.627  -0.305  18.893  0.00  0.00    +0.000 OA
ATOM     31  H   UNL     1      53.732   0.150  15.749  0.00  0.00    +0.000 HD
ATOM     32  H   UNL     1      54.422  -1.082  16.748  0.00  0.00    +0.000 HD
ENDBRANCH  24  28
ENDBRANCH  19  27
ENDBRANCH   1  19
TORSDOF 7
ENDMDL
MODEL 5
REMARK VINA RESULT:    -7.532      3.040      8.076
REMARK INTER + INTRA:         -11.005
REMARK INTER:                 -10.375
REMARK INTRA:                  -0.631
REMARK UNBOUND:                -0.611
REMARK  Name = 
REMARK  8 active torsions:
REMARK  status: ('A' for Active; 'I' for Inactive)
REMARK    1  A    between atoms: C_1  and  C_2
REMARK    2  A    between atoms: C_4  and  C_5
REMARK    3  A    between atoms: C_10  and  N_11
REMARK    4  A    between atoms: N_11  and  C_12
REMARK    5  A    between atoms: C_12  and  C_13
REMARK    6  A    between atoms: C_17  and  C_18
REMARK    7  A    between atoms: C_21  and  C_22
REMARK    8  A    between atoms: C_22  and  O_23
REMARK                            x       y       z     vdW  Elec       q    Type
REMARK                         _______ _______ _______ _____ _____    ______ ____
ROOT
ATOM      1  C   UNL     1      48.654   8.529  12.834  0.00  0.00    +0.000 C 
ATOM      2  C   UNL     1      49.618   8.941  11.704  0.00  0.00    +0.000 C 
ATOM      3  C   UNL     1      49.107   9.967  12.643  0.00  0.00    +0.000 C 
ENDROOT
BRANCH   1   4
ATOM      4  C   UNL     1      47.211   8.230  12.396  0.00  0.00    +0.000 A 
ATOM      5  C   UNL     1      46.232   9.230  12.352  0.00  0.00    +0.000 A 
ATOM      6  C   UNL     1      44.958   8.966  11.849  0.00  0.00    +0.000 A 
ATOM      7  C   UNL     1      44.647   7.691  11.356  0.00  0.00    +0.000 A 
ATOM      8  C   UNL     1      45.594   6.657  11.355  0.00  0.00    +0.000 A 
ATOM      9  C   UNL     1      46.845   6.945  11.929  0.00  0.00    +0.000 A 
BRANCH   8  10
ATOM     10  C   UNL     1      45.335   5.358  10.691  0.00  0.00    +0.000 A 
ATOM     11  C   UNL     1      45.653   5.179   9.331  0.00  0.00    +0.000 A 
ATOM     12  C   UNL     1      45.475   3.950   8.690  0.00  0.00    +0.000 A 
ATOM     13  C   UNL     1      44.990   2.848   9.395  0.00  0.00    +0.000 A 
ATOM     14  C   UNL     1      44.689   3.000  10.753  0.00  0.00    +0.000 A 
ATOM     15  C   UNL     1      44.852   4.238  11.388  0.00  0.00    +0.000 A 
BRANCH  13  16
ATOM     16  C   UNL     1      44.773   1.529   8.704  0.00  0.00    +0.000 C 
BRANCH  16  17
ATOM     17  O   UNL     1      46.013   0.932   8.353  0.00  0.00    +0.000 OA
ATOM     18  H   UNL     1      45.870   0.458   7.516  0.00  0.00    +0.000 HD
ENDBRANCH  16  17
ENDBRANCH  13  16
ENDBRANCH   8  10
ENDBRANCH   1   4
BRANCH   1  19
ATOM     19  N   UNL     1      49.214   7.499  13.711  0.00  0.00    +0.000 N 
ATOM     20  H   UNL     1      50.069   7.052  13.389  0.00  0.00    +0.000 HD
BRANCH  19  27
ATOM     21  C   UNL     1      49.634   8.116  16.757  0.00  0.00    +0.000 C 
ATOM     22  C   UNL     1      48.951   6.940  16.141  0.00  0.00    +0.000 A 
ATOM     23  C   UNL     1      48.514   5.941  17.039  0.00  0.00    +0.000 A 
ATOM     24  C   UNL     1      47.842   4.806  16.601  0.00  0.00    +0.000 A 
ATOM     25  C   UNL     1      47.626   4.720  15.243  0.00  0.00    +0.000 A 
ATOM     26  N   UNL     1      48.073   5.642  14.345  0.00  0.00    +0.000 NA
ATOM     27  C   UNL     1      48.753   6.740  14.778  0.00  0.00    +0.000 A 
BRANCH  24  28
ATOM     28  C   UNL     1      47.422   3.799  17.605  0.00  0.00    +0.000 C 
ATOM     29  N   UNL     1      48.070   3.730  18.804  0.00  0.00    +0.000 N 
ATOM     30  O   UNL     1      46.495   3.030  17.376  0.00  0.00    +0.000 OA
ATOM     31  H   UNL     1      48.826   4.323  19.108  0.00  0.00    +0.000 HD
ATOM     32  H   UNL     1      47.729   3.030  19.453  0.00  0.00    +0.000 HD
ENDBRANCH  24  28
ENDBRANCH  19  27
ENDBRANCH   1  19
TORSDOF 7
ENDMDL
MODEL 6
REMARK VINA RESULT:    -7.398      3.610      7.727
REMARK INTER + INTRA:         -10.821
REMARK INTER:                  -9.368
REMARK INTRA:                  -1.453
REMARK UNBOUND:                -0.611
REMARK  Name = 
REMARK  8 active torsions:
REMARK  status: ('A' for Active; 'I' for Inactive)
REMARK    1  A    between atoms: C_1  and  C_2
REMARK    2  A    between atoms: C_4  and  C_5
REMARK    3  A    between atoms: C_10  and  N_11
REMARK    4  A    between atoms: N_11  and  C_12
REMARK    5  A    between atoms: C_12  and  C_13
REMARK    6  A    between atoms: C_17  and  C_18
REMARK    7  A    between atoms: C_21  and  C_22
REMARK    8  A    between atoms: C_22  and  O_23
REMARK                            x       y       z     vdW  Elec       q    Type
REMARK                         _______ _______ _______ _____ _____    ______ ____
ROOT
ATOM      1  C   UNL     1      46.701   4.826  14.155  0.00  0.00    +0.000 C 
ATOM      2  C   UNL     1      46.419   4.146  15.510  0.00  0.00    +0.000 C 
ATOM      3  C   UNL     1      47.435   3.571  14.598  0.00  0.00    +0.000 C 
ENDROOT
BRANCH   1   4
ATOM      4  C   UNL     1      45.630   4.613  13.073  0.00  0.00    +0.000 A 
ATOM      5  C   UNL     1      44.321   5.084  13.229  0.00  0.00    +0.000 A 
ATOM      6  C   UNL     1      43.392   4.980  12.194  0.00  0.00    +0.000 A 
ATOM      7  C   UNL     1      43.767   4.420  10.965  0.00  0.00    +0.000 A 
ATOM      8  C   UNL     1      45.071   3.951  10.744  0.00  0.00    +0.000 A 
ATOM      9  C   UNL     1      45.958   4.015  11.834  0.00  0.00    +0.000 A 
BRANCH   8  10
ATOM     10  C   UNL     1      45.528   3.508   9.406  0.00  0.00    +0.000 A 
ATOM     11  C   UNL     1      45.921   4.455   8.441  0.00  0.00    +0.000 A 
ATOM     12  C   UNL     1      46.412   4.068   7.190  0.00  0.00    +0.000 A 
ATOM     13  C   UNL     1      46.545   2.716   6.869  0.00  0.00    +0.000 A 
ATOM     14  C   UNL     1      46.179   1.761   7.824  0.00  0.00    +0.000 A 
ATOM     15  C   UNL     1      45.672   2.152   9.069  0.00  0.00    +0.000 A 
BRANCH  13  16
ATOM     16  C   UNL     1      47.048   2.295   5.515  0.00  0.00    +0.000 C 
BRANCH  16  17
ATOM     17  O   UNL     1      48.402   1.871   5.589  0.00  0.00    +0.000 OA
ATOM     18  H   UNL     1      48.768   1.940   4.691  0.00  0.00    +0.000 HD
ENDBRANCH  16  17
ENDBRANCH  13  16
ENDBRANCH   8  10
ENDBRANCH   1   4
BRANCH   1  19
ATOM     19  N   UNL     1      47.107   6.225  14.295  0.00  0.00    +0.000 N 
ATOM     20  H   UNL     1      46.600   6.772  14.988  0.00  0.00    +0.000 HD
BRANCH  19  27
ATOM     21  C   UNL     1      45.971   8.244  12.182  0.00  0.00    +0.000 C 
ATOM     22  C   UNL     1      47.395   8.011  12.559  0.00  0.00    +0.000 A 
ATOM     23  C   UNL     1      48.356   8.729  11.814  0.00  0.00    +0.000 A 
ATOM     24  C   UNL     1      49.716   8.624  12.078  0.00  0.00    +0.000 A 
ATOM     25  C   UNL     1      50.067   7.784  13.111  0.00  0.00    +0.000 A 
ATOM     26  N   UNL     1      49.171   7.043  13.822  0.00  0.00    +0.000 NA
ATOM     27  C   UNL     1      47.841   7.130  13.542  0.00  0.00    +0.000 A 
BRANCH  24  28
ATOM     28  C   UNL     1      50.663   9.404  11.245  0.00  0.00    +0.000 C 
ATOM     29  N   UNL     1      51.893   8.888  10.957  0.00  0.00    +0.000 N 
ATOM     30  O   UNL     1      50.353  10.506  10.803  0.00  0.00    +0.000 OA
ATOM     31  H   UNL     1      52.244   7.989  11.244  0.00  0.00    +0.000 HD
ATOM     32  H   UNL     1      52.490   9.463  10.372  0.00  0.00    +0.000 HD
ENDBRANCH  24  28
ENDBRANCH  19  27
ENDBRANCH   1  19
TORSDOF 7
ENDMDL
MODEL 7
REMARK VINA RESULT:    -7.136      3.072      5.089
REMARK INTER + INTRA:         -10.460
REMARK INTER:                  -9.141
REMARK INTRA:                  -1.319
REMARK UNBOUND:                -0.611
REMARK  Name = 
REMARK  8 active torsions:
REMARK  status: ('A' for Active; 'I' for Inactive)
REMARK    1  A    between atoms: C_1  and  C_2
REMARK    2  A    between atoms: C_4  and  C_5
REMARK    3  A    between atoms: C_10  and  N_11
REMARK    4  A    between atoms: N_11  and  C_12
REMARK    5  A    between atoms: C_12  and  C_13
REMARK    6  A    between atoms: C_17  and  C_18
REMARK    7  A    between atoms: C_21  and  C_22
REMARK    8  A    between atoms: C_22  and  O_23
REMARK                            x       y       z     vdW  Elec       q    Type
REMARK                         _______ _______ _______ _____ _____    ______ ____
ROOT
ATOM      1  C   UNL     1      48.313   7.833  13.070  0.00  0.00    +0.000 C 
ATOM      2  C   UNL     1      48.733   9.008  12.165  0.00  0.00    +0.000 C 
ATOM      3  C   UNL     1      49.432   7.707  12.050  0.00  0.00    +0.000 C 
ENDROOT
BRANCH   1   4
ATOM      4  C   UNL     1      48.767   7.931  14.536  0.00  0.00    +0.000 A 
ATOM      5  C   UNL     1      48.212   8.867  15.418  0.00  0.00    +0.000 A 
ATOM      6  C   UNL     1      48.556   8.871  16.769  0.00  0.00    +0.000 A 
ATOM      7  C   UNL     1      49.449   7.914  17.271  0.00  0.00    +0.000 A 
ATOM      8  C   UNL     1      50.018   6.939  16.439  0.00  0.00    +0.000 A 
ATOM      9  C   UNL     1      49.697   7.010  15.071  0.00  0.00    +0.000 A 
BRANCH   8  10
ATOM     10  C   UNL     1      50.833   5.825  16.980  0.00  0.00    +0.000 A 
ATOM     11  C   UNL     1      50.224   4.605  17.329  0.00  0.00    +0.000 A 
ATOM     12  C   UNL     1      50.971   3.516  17.786  0.00  0.00    +0.000 A 
ATOM     13  C   UNL     1      52.360   3.605  17.893  0.00  0.00    +0.000 A 
ATOM     14  C   UNL     1      52.985   4.803  17.530  0.00  0.00    +0.000 A 
ATOM     15  C   UNL     1      52.232   5.898  17.088  0.00  0.00    +0.000 A 
BRANCH  13  16
ATOM     16  C   UNL     1      53.167   2.445  18.410  0.00  0.00    +0.000 C 
BRANCH  16  17
ATOM     17  O   UNL     1      52.386   1.258  18.434  0.00  0.00    +0.000 OA
ATOM     18  H   UNL     1      52.928   0.557  18.032  0.00  0.00    +0.000 HD
ENDBRANCH  16  17
ENDBRANCH  13  16
ENDBRANCH   8  10
ENDBRANCH   1   4
BRANCH   1  19
ATOM     19  N   UNL     1      46.898   7.485  12.928  0.00  0.00    +0.000 N 
ATOM     20  H   UNL     1      46.232   8.146  13.321  0.00  0.00    +0.000 HD
BRANCH  19  27
ATOM     21  C   UNL     1      46.911   4.801  14.551  0.00  0.00    +0.000 C 
ATOM     22  C   UNL     1      46.186   5.107  13.283  0.00  0.00    +0.000 A 
ATOM     23  C   UNL     1      45.485   4.030  12.697  0.00  0.00    +0.000 A 
ATOM     24  C   UNL     1      44.748   4.183  11.530  0.00  0.00    +0.000 A 
ATOM     25  C   UNL     1      44.739   5.448  10.984  0.00  0.00    +0.000 A 
ATOM     26  N   UNL     1      45.438   6.499  11.497  0.00  0.00    +0.000 NA
ATOM     27  C   UNL     1      46.180   6.336  12.628  0.00  0.00    +0.000 A 
BRANCH  24  28
ATOM     28  C   UNL     1      44.047   3.001  10.973  0.00  0.00    +0.000 C 
ATOM     29  N   UNL     1      44.637   2.270   9.982  0.00  0.00    +0.000 N 
ATOM     30  O   UNL     1      42.946   2.665  11.395  0.00  0.00    +0.000 OA
ATOM     31  H   UNL     1      45.544   2.438   9.578  0.00  0.00    +0.000 HD
ATOM     32  H   UNL     1      44.114   1.466   9.653  0.00  0.00    +0.000 HD
ENDBRANCH  24  28
ENDBRANCH  19  27
ENDBRANCH   1  19
TORSDOF 7
ENDMDL
MODEL 8
REMARK VINA RESULT:    -6.775      4.203      6.520
REMARK INTER + INTRA:          -9.962
REMARK INTER:                  -9.201
REMARK INTRA:                  -0.761
REMARK UNBOUND:                -0.611
REMARK  Name = 
REMARK  8 active torsions:
REMARK  status: ('A' for Active; 'I' for Inactive)
REMARK    1  A    between atoms: C_1  and  C_2
REMARK    2  A    between atoms: C_4  and  C_5
REMARK    3  A    between atoms: C_10  and  N_11
REMARK    4  A    between atoms: N_11  and  C_12
REMARK    5  A    between atoms: C_12  and  C_13
REMARK    6  A    between atoms: C_17  and  C_18
REMARK    7  A    between atoms: C_21  and  C_22
REMARK    8  A    between atoms: C_22  and  O_23
REMARK                            x       y       z     vdW  Elec       q    Type
REMARK                         _______ _______ _______ _____ _____    ______ ____
ROOT
ATOM      1  C   UNL     1      49.369   7.698  15.163  0.00  0.00    +0.000 C 
ATOM      2  C   UNL     1      48.812   9.131  15.269  0.00  0.00    +0.000 C 
ATOM      3  C   UNL     1      50.276   8.916  15.197  0.00  0.00    +0.000 C 
ENDROOT
BRANCH   1   4
ATOM      4  C   UNL     1      49.326   6.873  16.460  0.00  0.00    +0.000 A 
ATOM      5  C   UNL     1      48.320   7.056  17.416  0.00  0.00    +0.000 A 
ATOM      6  C   UNL     1      48.233   6.226  18.534  0.00  0.00    +0.000 A 
ATOM      7  C   UNL     1      49.145   5.175  18.703  0.00  0.00    +0.000 A 
ATOM      8  C   UNL     1      50.160   4.931  17.766  0.00  0.00    +0.000 A 
ATOM      9  C   UNL     1      50.253   5.829  16.687  0.00  0.00    +0.000 A 
BRANCH   8  10
ATOM     10  C   UNL     1      51.026   3.731  17.844  0.00  0.00    +0.000 A 
ATOM     11  C   UNL     1      50.567   2.491  17.359  0.00  0.00    +0.000 A 
ATOM     12  C   UNL     1      51.380   1.354  17.364  0.00  0.00    +0.000 A 
ATOM     13  C   UNL     1      52.691   1.424  17.838  0.00  0.00    +0.000 A 
ATOM     14  C   UNL     1      53.172   2.652  18.304  0.00  0.00    +0.000 A 
ATOM     15  C   UNL     1      52.349   3.785  18.313  0.00  0.00    +0.000 A 
BRANCH  13  16
ATOM     16  C   UNL     1      53.562   0.197  17.870  0.00  0.00    +0.000 C 
BRANCH  16  17
ATOM     17  O   UNL     1      52.915  -0.864  18.559  0.00  0.00    +0.000 OA
ATOM     18  H   UNL     1      53.361  -0.955  19.419  0.00  0.00    +0.000 HD
ENDBRANCH  16  17
ENDBRANCH  13  16
ENDBRANCH   8  10
ENDBRANCH   1   4
BRANCH   1  19
ATOM     19  N   UNL     1      48.849   6.972  14.002  0.00  0.00    +0.000 N 
ATOM     20  H   UNL     1      49.419   7.005  13.160  0.00  0.00    +0.000 HD
BRANCH  19  27
ATOM     21  C   UNL     1      46.567   8.473  12.463  0.00  0.00    +0.000 C 
ATOM     22  C   UNL     1      46.560   7.075  12.987  0.00  0.00    +0.000 A 
ATOM     23  C   UNL     1      45.345   6.370  12.844  0.00  0.00    +0.000 A 
ATOM     24  C   UNL     1      45.209   5.053  13.266  0.00  0.00    +0.000 A 
ATOM     25  C   UNL     1      46.329   4.480  13.824  0.00  0.00    +0.000 A 
ATOM     26  N   UNL     1      47.503   5.144  14.018  0.00  0.00    +0.000 NA
ATOM     27  C   UNL     1      47.623   6.443  13.625  0.00  0.00    +0.000 A 
BRANCH  24  28
ATOM     28  C   UNL     1      43.897   4.384  13.089  0.00  0.00    +0.000 C 
ATOM     29  N   UNL     1      43.851   3.044  12.832  0.00  0.00    +0.000 N 
ATOM     30  O   UNL     1      42.850   5.016  13.177  0.00  0.00    +0.000 OA
ATOM     31  H   UNL     1      44.641   2.423  12.763  0.00  0.00    +0.000 HD
ATOM     32  H   UNL     1      42.925   2.642  12.735  0.00  0.00    +0.000 HD
ENDBRANCH  24  28
ENDBRANCH  19  27
ENDBRANCH   1  19
TORSDOF 7
ENDMDL
MODEL 9
REMARK VINA RESULT:    -6.732      2.763      4.289
REMARK INTER + INTRA:          -9.901
REMARK INTER:                  -9.017
REMARK INTRA:                  -0.885
REMARK UNBOUND:                -0.611
REMARK  Name = 
REMARK  8 active torsions:
REMARK  status: ('A' for Active; 'I' for Inactive)
REMARK    1  A    between atoms: C_1  and  C_2
REMARK    2  A    between atoms: C_4  and  C_5
REMARK    3  A    between atoms: C_10  and  N_11
REMARK    4  A    between atoms: N_11  and  C_12
REMARK    5  A    between atoms: C_12  and  C_13
REMARK    6  A    between atoms: C_17  and  C_18
REMARK    7  A    between atoms: C_21  and  C_22
REMARK    8  A    between atoms: C_22  and  O_23
REMARK                            x       y       z     vdW  Elec       q    Type
REMARK                         _______ _______ _______ _____ _____    ______ ____
ROOT
ATOM      1  C   UNL     1      47.115   8.367  12.704  0.00  0.00    +0.000 C 
ATOM      2  C   UNL     1      45.660   8.763  13.026  0.00  0.00    +0.000 C 
ATOM      3  C   UNL     1      46.463   9.603  12.108  0.00  0.00    +0.000 C 
ENDROOT
BRANCH   1   4
ATOM      4  C   UNL     1      48.137   8.636  13.821  0.00  0.00    +0.000 A 
ATOM      5  C   UNL     1      48.887   9.817  13.864  0.00  0.00    +0.000 A 
ATOM      6  C   UNL     1      49.730  10.094  14.940  0.00  0.00    +0.000 A 
ATOM      7  C   UNL     1      49.817   9.197  16.014  0.00  0.00    +0.000 A 
ATOM      8  C   UNL     1      49.072   8.009  16.035  0.00  0.00    +0.000 A 
ATOM      9  C   UNL     1      48.285   7.736  14.902  0.00  0.00    +0.000 A 
BRANCH   8  10
ATOM     10  C   UNL     1      49.028   7.132  17.230  0.00  0.00    +0.000 A 
ATOM     11  C   UNL     1      48.282   7.512  18.361  0.00  0.00    +0.000 A 
ATOM     12  C   UNL     1      48.172   6.682  19.481  0.00  0.00    +0.000 A 
ATOM     13  C   UNL     1      48.792   5.432  19.499  0.00  0.00    +0.000 A 
ATOM     14  C   UNL     1      49.520   5.028  18.374  0.00  0.00    +0.000 A 
ATOM     15  C   UNL     1      49.642   5.869  17.261  0.00  0.00    +0.000 A 
BRANCH  13  16
ATOM     16  C   UNL     1      48.699   4.546  20.711  0.00  0.00    +0.000 C 
BRANCH  16  17
ATOM     17  O   UNL     1      48.313   3.228  20.346  0.00  0.00    +0.000 OA
ATOM     18  H   UNL     1      48.380   2.683  21.149  0.00  0.00    +0.000 HD
ENDBRANCH  16  17
ENDBRANCH  13  16
ENDBRANCH   8  10
ENDBRANCH   1   4
BRANCH   1  19
ATOM     19  N   UNL     1      47.224   7.022  12.136  0.00  0.00    +0.000 N 
ATOM     20  H   UNL     1      48.015   6.860  11.517  0.00  0.00    +0.000 HD
BRANCH  19  27
ATOM     21  C   UNL     1      46.688   4.775  14.257  0.00  0.00    +0.000 C 
ATOM     22  C   UNL     1      46.142   4.884  12.872  0.00  0.00    +0.000 A 
ATOM     23  C   UNL     1      45.352   3.798  12.434  0.00  0.00    +0.000 A 
ATOM     24  C   UNL     1      44.761   3.783  11.176  0.00  0.00    +0.000 A 
ATOM     25  C   UNL     1      44.990   4.890  10.390  0.00  0.00    +0.000 A 
ATOM     26  N   UNL     1      45.782   5.934  10.763  0.00  0.00    +0.000 NA
ATOM     27  C   UNL     1      46.378   5.932  11.987  0.00  0.00    +0.000 A 
BRANCH  24  28
ATOM     28  C   UNL     1      43.953   2.602  10.787  0.00  0.00    +0.000 C 
ATOM     29  N   UNL     1      44.304   1.876   9.685  0.00  0.00    +0.000 N 
ATOM     30  O   UNL     1      42.975   2.263  11.445  0.00  0.00    +0.000 OA
ATOM     31  H   UNL     1      45.096   2.047   9.087  0.00  0.00    +0.000 HD
ATOM     32  H   UNL     1      43.721   1.073   9.479  0.00  0.00    +0.000 HD
ENDBRANCH  24  28
ENDBRANCH  19  27
ENDBRANCH   1  19
TORSDOF 7
ENDMDL
