MODEL 1
REMARK VINA RESULT:    -8.491      0.000      0.000
REMARK INTER + INTRA:         -12.218
REMARK INTER:                 -11.469
REMARK INTRA:                  -0.749
REMARK UNBOUND:                -0.749
REMARK  Name = 
REMARK  7 active torsions:
REMARK  status: ('A' for Active; 'I' for Inactive)
REMARK    1  A    between atoms: C_1  and  C_2
REMARK    2  A    between atoms: C_4  and  C_5
REMARK    3  A    between atoms: C_5  and  N_6
REMARK    4  A    between atoms: C_7  and  C_9
REMARK    5  A    between atoms: C_16  and  C_17
REMARK    6  A    between atoms: C_17  and  N_18
REMARK    7  A    between atoms: C_19  and  C_21
REMARK                            x       y       z     vdW  Elec       q    Type
REMARK                         _______ _______ _______ _____ _____    ______ ____
ROOT
ATOM      1  C   UNL     1      45.019   9.176  11.746  0.00  0.00    +0.000 C 
ATOM      2  C   UNL     1      45.339   7.709  11.851  0.00  0.00    +0.000 A 
ATOM      3  C   UNL     1      44.546   6.814  11.097  0.00  0.00    +0.000 A 
ATOM      4  C   UNL     1      44.746   5.429  11.140  0.00  0.00    +0.000 A 
ATOM      5  C   UNL     1      45.792   4.940  11.928  0.00  0.00    +0.000 A 
ATOM      6  C   UNL     1      46.581   5.815  12.691  0.00  0.00    +0.000 A 
ATOM      7  C   UNL     1      46.355   7.205  12.690  0.00  0.00    +0.000 A 
ENDROOT
BRANCH   4   8
ATOM      8  C   UNL     1      43.852   4.508  10.344  0.00  0.00    +0.000 C 
BRANCH   8   9
ATOM      9  N   UNL     1      44.590   3.443   9.716  0.00  0.00    +0.000 N 
ATOM     10  C   UNL     1      45.388   3.653   8.610  0.00  0.00    +0.000 C 
ATOM     11  O   UNL     1      45.530   4.765   8.104  0.00  0.00    +0.000 OA
ATOM     12  H   UNL     1      44.581   2.522  10.140  0.00  0.00    +0.000 HD
BRANCH  10  13
ATOM     13  C   UNL     1      46.035   2.465   8.103  0.00  0.00    +0.000 A 
ATOM     14  C   UNL     1      46.961   2.260   7.104  0.00  0.00    +0.000 A 
ATOM     15  C   UNL     1      47.160   0.867   7.093  0.00  0.00    +0.000 A 
ATOM     16  N   UNL     1      46.421   0.249   8.019  0.00  0.00    +0.000 NA
ATOM     17  O   UNL     1      45.716   1.257   8.655  0.00  0.00    +0.000 OA
ENDBRANCH  10  13
ENDBRANCH   8   9
ENDBRANCH   4   8
BRANCH   7  18
ATOM     18  C   UNL     1      47.219   8.085  13.582  0.00  0.00    +0.000 C 
BRANCH  18  19
ATOM     19  N   UNL     1      47.634   7.394  14.780  0.00  0.00    +0.000 N 
ATOM     20  C   UNL     1      48.904   6.917  14.975  0.00  0.00    +0.000 C 
ATOM     21  O   UNL     1      49.793   7.079  14.146  0.00  0.00    +0.000 OA
ATOM     22  H   UNL     1      46.881   7.014  15.346  0.00  0.00    +0.000 HD
BRANCH  20  23
ATOM     23  C   UNL     1      49.169   6.276  16.276  0.00  0.00    +0.000 A 
ATOM     24  C   UNL     1      50.019   6.873  17.200  0.00  0.00    +0.000 A 
ATOM     25  S   UNL     1      50.086   6.048  18.695  0.00  0.00    +0.000 S 
ATOM     26  C   UNL     1      49.028   4.837  18.139  0.00  0.00    +0.000 A 
ATOM     27  N   UNL     1      48.642   3.812  18.949  0.00  0.00    +0.000 NA
ATOM     28  C   UNL     1      47.842   2.964  18.392  0.00  0.00    +0.000 A 
ATOM     29  N   UNL     1      47.409   3.037  17.093  0.00  0.00    +0.000 N 
ATOM     30  C   UNL     1      47.794   4.036  16.236  0.00  0.00    +0.000 A 
ATOM     31  O   UNL     1      47.422   4.047  15.067  0.00  0.00    +0.000 OA
ATOM     32  C   UNL     1      48.648   5.047  16.828  0.00  0.00    +0.000 A 
ATOM     33  H   UNL     1      46.797   2.332  16.709  0.00  0.00    +0.000 HD
ENDBRANCH  20  23
ENDBRANCH  18  19
ENDBRANCH   7  18
TORSDOF 6
ENDMDL
MODEL 2
REMARK VINA RESULT:    -8.153      1.234      1.484
REMARK INTER + INTRA:         -11.762
REMARK INTER:                 -10.613
REMARK INTRA:                  -1.149
REMARK UNBOUND:                -0.749
REMARK  Name = 
REMARK  7 active torsions:
REMARK  status: ('A' for Active; 'I' for Inactive)
REMARK    1  A    between atoms: C_1  and  C_2
REMARK    2  A    between atoms: C_4  and  C_5
REMARK    3  A    between atoms: C_5  and  N_6
REMARK    4  A    between atoms: C_7  and  C_9
REMARK    5  A    between atoms: C_16  and  C_17
REMARK    6  A    between atoms: C_17  and  N_18
REMARK    7  A    between atoms: C_19  and  C_21
REMARK                            x       y       z     vdW  Elec       q    Type
REMARK                         _______ _______ _______ _____ _____    ______ ____
ROOT
ATOM      1  C   UNL     1      48.457   7.120  11.228  0.00  0.00    +0.000 C 
ATOM      2  C   UNL     1      47.021   6.801  11.547  0.00  0.00    +0.000 A 
ATOM      3  C   UNL     1      46.341   5.919  10.678  0.00  0.00    +0.000 A 
ATOM      4  C   UNL     1      44.997   5.574  10.873  0.00  0.00    +0.000 A 
ATOM      5  C   UNL     1      44.340   6.099  11.989  0.00  0.00    +0.000 A 
ATOM      6  C   UNL     1      44.999   6.985  12.855  0.00  0.00    +0.000 A 
ATOM      7  C   UNL     1      46.335   7.374  12.639  0.00  0.00    +0.000 A 
ENDROOT
BRANCH   4   8
ATOM      8  C   UNL     1      44.301   4.655   9.897  0.00  0.00    +0.000 C 
BRANCH   8   9
ATOM      9  N   UNL     1      45.193   4.174   8.874  0.00  0.00    +0.000 N 
ATOM     10  C   UNL     1      45.337   2.829   8.595  0.00  0.00    +0.000 C 
ATOM     11  O   UNL     1      44.700   1.964   9.192  0.00  0.00    +0.000 OA
ATOM     12  H   UNL     1      45.679   4.845   8.289  0.00  0.00    +0.000 HD
BRANCH  10  13
ATOM     13  C   UNL     1      46.291   2.532   7.552  0.00  0.00    +0.000 A 
ATOM     14  C   UNL     1      46.599   3.157   6.364  0.00  0.00    +0.000 A 
ATOM     15  C   UNL     1      47.601   2.349   5.794  0.00  0.00    +0.000 A 
ATOM     16  N   UNL     1      47.901   1.303   6.570  0.00  0.00    +0.000 NA
ATOM     17  O   UNL     1      47.078   1.422   7.677  0.00  0.00    +0.000 OA
ENDBRANCH  10  13
ENDBRANCH   8   9
ENDBRANCH   4   8
BRANCH   7  18
ATOM     18  C   UNL     1      46.966   8.378  13.593  0.00  0.00    +0.000 C 
BRANCH  18  19
ATOM     19  N   UNL     1      47.556   7.731  14.741  0.00  0.00    +0.000 N 
ATOM     20  C   UNL     1      48.908   7.617  14.932  0.00  0.00    +0.000 C 
ATOM     21  O   UNL     1      49.718   8.096  14.144  0.00  0.00    +0.000 OA
ATOM     22  H   UNL     1      46.940   7.107  15.252  0.00  0.00    +0.000 HD
BRANCH  20  23
ATOM     23  C   UNL     1      49.340   6.968  16.182  0.00  0.00    +0.000 A 
ATOM     24  C   UNL     1      50.266   7.583  17.018  0.00  0.00    +0.000 A 
ATOM     25  S   UNL     1      50.529   6.738  18.479  0.00  0.00    +0.000 S 
ATOM     26  C   UNL     1      49.461   5.496  18.022  0.00  0.00    +0.000 A 
ATOM     27  N   UNL     1      49.204   4.445  18.850  0.00  0.00    +0.000 NA
ATOM     28  C   UNL     1      48.379   3.577  18.369  0.00  0.00    +0.000 A 
ATOM     29  N   UNL     1      47.801   3.652  17.128  0.00  0.00    +0.000 N 
ATOM     30  C   UNL     1      48.051   4.678  16.253  0.00  0.00    +0.000 A 
ATOM     31  O   UNL     1      47.551   4.693  15.133  0.00  0.00    +0.000 OA
ATOM     32  C   UNL     1      48.930   5.712  16.765  0.00  0.00    +0.000 A 
ATOM     33  H   UNL     1      47.175   2.930  16.801  0.00  0.00    +0.000 HD
ENDBRANCH  20  23
ENDBRANCH  18  19
ENDBRANCH   7  18
TORSDOF 6
ENDMDL
MODEL 3
REMARK VINA RESULT:    -7.593      1.610      2.215
REMARK INTER + INTRA:         -11.006
REMARK INTER:                 -10.753
REMARK INTRA:                  -0.253
REMARK UNBOUND:                -0.749
REMARK  Name = 
REMARK  7 active torsions:
REMARK  status: ('A' for Active; 'I' for Inactive)
REMARK    1  A    between atoms: C_1  and  C_2
REMARK    2  A    between atoms: C_4  and  C_5
REMARK    3  A    between atoms: C_5  and  N_6
REMARK    4  A    between atoms: C_7  and  C_9
REMARK    5  A    between atoms: C_16  and  C_17
REMARK    6  A    between atoms: C_17  and  N_18
REMARK    7  A    between atoms: C_19  and  C_21
REMARK                            x       y       z     vdW  Elec       q    Type
REMARK                         _______ _______ _______ _____ _____    ______ ____
ROOT
ATOM      1  C   UNL     1      47.159   4.681  14.687  0.00  0.00    +0.000 C 
ATOM      2  C   UNL     1      46.662   5.336  13.427  0.00  0.00    +0.000 A 
ATOM      3  C   UNL     1      45.760   4.603  12.623  0.00  0.00    +0.000 A 
ATOM      4  C   UNL     1      45.254   5.112  11.421  0.00  0.00    +0.000 A 
ATOM      5  C   UNL     1      45.636   6.402  11.042  0.00  0.00    +0.000 A 
ATOM      6  C   UNL     1      46.540   7.138  11.823  0.00  0.00    +0.000 A 
ATOM      7  C   UNL     1      47.089   6.614  13.009  0.00  0.00    +0.000 A 
ENDROOT
BRANCH   4   8
ATOM      8  C   UNL     1      44.320   4.278  10.578  0.00  0.00    +0.000 C 
BRANCH   8   9
ATOM      9  N   UNL     1      45.020   3.260   9.836  0.00  0.00    +0.000 N 
ATOM     10  C   UNL     1      45.610   3.514   8.614  0.00  0.00    +0.000 C 
ATOM     11  O   UNL     1      45.587   4.628   8.094  0.00  0.00    +0.000 OA
ATOM     12  H   UNL     1      45.146   2.346  10.255  0.00  0.00    +0.000 HD
BRANCH  10  13
ATOM     13  C   UNL     1      46.249   2.369   8.007  0.00  0.00    +0.000 A 
ATOM     14  C   UNL     1      46.041   1.013   8.126  0.00  0.00    +0.000 A 
ATOM     15  C   UNL     1      47.015   0.436   7.291  0.00  0.00    +0.000 A 
ATOM     16  N   UNL     1      47.770   1.361   6.690  0.00  0.00    +0.000 NA
ATOM     17  O   UNL     1      47.283   2.577   7.140  0.00  0.00    +0.000 OA
ENDBRANCH  10  13
ENDBRANCH   8   9
ENDBRANCH   4   8
BRANCH   7  18
ATOM     18  C   UNL     1      48.102   7.452  13.776  0.00  0.00    +0.000 C 
BRANCH  18  19
ATOM     19  N   UNL     1      47.984   7.265  15.203  0.00  0.00    +0.000 N 
ATOM     20  C   UNL     1      48.980   7.579  16.091  0.00  0.00    +0.000 C 
ATOM     21  O   UNL     1      50.040   8.080  15.728  0.00  0.00    +0.000 OA
ATOM     22  H   UNL     1      47.257   6.621  15.499  0.00  0.00    +0.000 HD
BRANCH  20  23
ATOM     23  C   UNL     1      48.676   7.367  17.517  0.00  0.00    +0.000 A 
ATOM     24  C   UNL     1      48.118   8.385  18.283  0.00  0.00    +0.000 A 
ATOM     25  S   UNL     1      47.713   7.899  19.869  0.00  0.00    +0.000 S 
ATOM     26  C   UNL     1      48.319   6.331  19.606  0.00  0.00    +0.000 A 
ATOM     27  N   UNL     1      48.259   5.379  20.579  0.00  0.00    +0.000 NA
ATOM     28  C   UNL     1      48.762   4.239  20.241  0.00  0.00    +0.000 A 
ATOM     29  N   UNL     1      49.337   3.969  19.026  0.00  0.00    +0.000 N 
ATOM     30  C   UNL     1      49.443   4.905  18.029  0.00  0.00    +0.000 A 
ATOM     31  O   UNL     1      50.002   4.643  16.969  0.00  0.00    +0.000 OA
ATOM     32  C   UNL     1      48.842   6.189  18.336  0.00  0.00    +0.000 A 
ATOM     33  H   UNL     1      49.730   3.061  18.827  0.00  0.00    +0.000 HD
ENDBRANCH  20  23
ENDBRANCH  18  19
ENDBRANCH   7  18
TORSDOF 6
ENDMDL
MODEL 4
REMARK VINA RESULT:    -7.515      2.742      3.383
REMARK INTER + INTRA:         -10.899
REMARK INTER:                  -9.831
REMARK INTRA:                  -1.069
REMARK UNBOUND:                -0.749
REMARK  Name = 
REMARK  7 active torsions:
REMARK  status: ('A' for Active; 'I' for Inactive)
REMARK    1  A    between atoms: C_1  and  C_2
REMARK    2  A    between atoms: C_4  and  C_5
REMARK    3  A    between atoms: C_5  and  N_6
REMARK    4  A    between atoms: C_7  and  C_9
REMARK    5  A    between atoms: C_16  and  C_17
REMARK    6  A    between atoms: C_17  and  N_18
REMARK    7  A    between atoms: C_19  and  C_21
REMARK                            x       y       z     vdW  Elec       q    Type
REMARK                         _______ _______ _______ _____ _____    ______ ____
ROOT
ATOM      1  C   UNL     1      48.409   7.468  12.976  0.00  0.00    +0.000 C 
ATOM      2  C   UNL     1      47.755   6.289  13.646  0.00  0.00    +0.000 A 
ATOM      3  C   UNL     1      46.816   5.550  12.893  0.00  0.00    +0.000 A 
ATOM      4  C   UNL     1      46.136   4.450  13.429  0.00  0.00    +0.000 A 
ATOM      5  C   UNL     1      46.438   4.064  14.737  0.00  0.00    +0.000 A 
ATOM      6  C   UNL     1      47.361   4.795  15.502  0.00  0.00    +0.000 A 
ATOM      7  C   UNL     1      48.013   5.931  14.986  0.00  0.00    +0.000 A 
ENDROOT
BRANCH   4   8
ATOM      8  C   UNL     1      45.114   3.711  12.597  0.00  0.00    +0.000 C 
BRANCH   8   9
ATOM      9  N   UNL     1      45.576   3.475  11.253  0.00  0.00    +0.000 N 
ATOM     10  C   UNL     1      44.859   3.880  10.145  0.00  0.00    +0.000 C 
ATOM     11  O   UNL     1      43.790   4.480  10.240  0.00  0.00    +0.000 OA
ATOM     12  H   UNL     1      46.492   3.062  11.113  0.00  0.00    +0.000 HD
BRANCH  10  13
ATOM     13  C   UNL     1      45.466   3.538   8.880  0.00  0.00    +0.000 A 
ATOM     14  C   UNL     1      45.810   2.336   8.304  0.00  0.00    +0.000 A 
ATOM     15  C   UNL     1      46.388   2.691   7.072  0.00  0.00    +0.000 A 
ATOM     16  N   UNL     1      46.400   4.015   6.888  0.00  0.00    +0.000 NA
ATOM     17  O   UNL     1      45.816   4.546   8.026  0.00  0.00    +0.000 OA
ENDBRANCH  10  13
ENDBRANCH   8   9
ENDBRANCH   4   8
BRANCH   7  18
ATOM     18  C   UNL     1      48.962   6.701  15.893  0.00  0.00    +0.000 C 
BRANCH  18  19
ATOM     19  N   UNL     1      50.067   5.884  16.334  0.00  0.00    +0.000 N 
ATOM     20  C   UNL     1      50.318   5.601  17.652  0.00  0.00    +0.000 C 
ATOM     21  O   UNL     1      49.589   6.002  18.553  0.00  0.00    +0.000 OA
ATOM     22  H   UNL     1      50.819   5.769  15.662  0.00  0.00    +0.000 HD
BRANCH  20  23
ATOM     23  C   UNL     1      51.461   4.712  17.923  0.00  0.00    +0.000 A 
ATOM     24  C   UNL     1      52.643   5.217  18.453  0.00  0.00    +0.000 A 
ATOM     25  S   UNL     1      53.794   4.010  18.824  0.00  0.00    +0.000 S 
ATOM     26  C   UNL     1      52.776   2.779  18.239  0.00  0.00    +0.000 A 
ATOM     27  N   UNL     1      53.154   1.471  18.285  0.00  0.00    +0.000 NA
ATOM     28  C   UNL     1      52.284   0.647  17.801  0.00  0.00    +0.000 A 
ATOM     29  N   UNL     1      51.080   1.014  17.257  0.00  0.00    +0.000 N 
ATOM     30  C   UNL     1      50.672   2.320  17.167  0.00  0.00    +0.000 A 
ATOM     31  O   UNL     1      49.607   2.617  16.636  0.00  0.00    +0.000 OA
ATOM     32  C   UNL     1      51.588   3.283  17.748  0.00  0.00    +0.000 A 
ATOM     33  H   UNL     1      50.449   0.324  16.878  0.00  0.00    +0.000 HD
ENDBRANCH  20  23
ENDBRANCH  18  19
ENDBRANCH   7  18
TORSDOF 6
ENDMDL
MODEL 5
REMARK VINA RESULT:    -7.471      3.436      5.090
REMARK INTER + INTRA:         -10.841
REMARK INTER:                  -9.727
REMARK INTRA:                  -1.113
REMARK UNBOUND:                -0.749
REMARK  Name = 
REMARK  7 active torsions:
REMARK  status: ('A' for Active; 'I' for Inactive)
REMARK    1  A    between atoms: C_1  and  C_2
REMARK    2  A    between atoms: C_4  and  C_5
REMARK    3  A    between atoms: C_5  and  N_6
REMARK    4  A    between atoms: C_7  and  C_9
REMARK    5  A    between atoms: C_16  and  C_17
REMARK    6  A    between atoms: C_17  and  N_18
REMARK    7  A    between atoms: C_19  and  C_21
REMARK                            x       y       z     vdW  Elec       q    Type
REMARK                         _______ _______ _______ _____ _____    ______ ____
ROOT
ATOM      1  C   UNL     1      47.095   5.284  14.385  0.00  0.00    +0.000 C 
ATOM      2  C   UNL     1      46.163   5.465  13.217  0.00  0.00    +0.000 A 
ATOM      3  C   UNL     1      45.690   4.300  12.573  0.00  0.00    +0.000 A 
ATOM      4  C   UNL     1      44.836   4.359  11.464  0.00  0.00    +0.000 A 
ATOM      5  C   UNL     1      44.422   5.618  11.021  0.00  0.00    +0.000 A 
ATOM      6  C   UNL     1      44.892   6.785  11.642  0.00  0.00    +0.000 A 
ATOM      7  C   UNL     1      45.788   6.734  12.728  0.00  0.00    +0.000 A 
ENDROOT
BRANCH   4   8
ATOM      8  C   UNL     1      44.384   3.087  10.788  0.00  0.00    +0.000 C 
BRANCH   8   9
ATOM      9  N   UNL     1      45.319   2.642   9.786  0.00  0.00    +0.000 N 
ATOM     10  C   UNL     1      45.236   3.049   8.469  0.00  0.00    +0.000 C 
ATOM     11  O   UNL     1      44.370   3.828   8.077  0.00  0.00    +0.000 OA
ATOM     12  H   UNL     1      46.106   2.069  10.068  0.00  0.00    +0.000 HD
BRANCH  10  13
ATOM     13  C   UNL     1      46.246   2.485   7.603  0.00  0.00    +0.000 A 
ATOM     14  C   UNL     1      46.886   2.963   6.482  0.00  0.00    +0.000 A 
ATOM     15  C   UNL     1      47.740   1.914   6.094  0.00  0.00    +0.000 A 
ATOM     16  N   UNL     1      47.645   0.863   6.912  0.00  0.00    +0.000 NA
ATOM     17  O   UNL     1      46.706   1.226   7.864  0.00  0.00    +0.000 OA
ENDBRANCH  10  13
ENDBRANCH   8   9
ENDBRANCH   4   8
BRANCH   7  18
ATOM     18  C   UNL     1      46.294   8.043  13.317  0.00  0.00    +0.000 C 
BRANCH  18  19
ATOM     19  N   UNL     1      47.399   8.583  12.560  0.00  0.00    +0.000 N 
ATOM     20  C   UNL     1      48.300   9.479  13.073  0.00  0.00    +0.000 C 
ATOM     21  O   UNL     1      48.246   9.861  14.238  0.00  0.00    +0.000 OA
ATOM     22  H   UNL     1      47.315   8.504  11.552  0.00  0.00    +0.000 HD
BRANCH  20  23
ATOM     23  C   UNL     1      49.395   9.891  12.177  0.00  0.00    +0.000 A 
ATOM     24  C   UNL     1      49.603  11.234  11.883  0.00  0.00    +0.000 A 
ATOM     25  S   UNL     1      51.001  11.516  10.943  0.00  0.00    +0.000 S 
ATOM     26  C   UNL     1      51.344   9.853  10.849  0.00  0.00    +0.000 A 
ATOM     27  N   UNL     1      52.444   9.395  10.189  0.00  0.00    +0.000 NA
ATOM     28  C   UNL     1      52.574   8.110  10.195  0.00  0.00    +0.000 A 
ATOM     29  N   UNL     1      51.693   7.239  10.783  0.00  0.00    +0.000 N 
ATOM     30  C   UNL     1      50.560   7.655  11.433  0.00  0.00    +0.000 A 
ATOM     31  O   UNL     1      49.770   6.847  11.911  0.00  0.00    +0.000 OA
ATOM     32  C   UNL     1      50.395   9.094  11.505  0.00  0.00    +0.000 A 
ATOM     33  H   UNL     1      51.840   6.242  10.738  0.00  0.00    +0.000 HD
ENDBRANCH  20  23
ENDBRANCH  18  19
ENDBRANCH   7  18
TORSDOF 6
ENDMDL
MODEL 6
REMARK VINA RESULT:    -7.261      2.912      4.069
REMARK INTER + INTRA:         -10.557
REMARK INTER:                  -9.705
REMARK INTRA:                  -0.853
REMARK UNBOUND:                -0.749
REMARK  Name = 
REMARK  7 active torsions:
REMARK  status: ('A' for Active; 'I' for Inactive)
REMARK    1  A    between atoms: C_1  and  C_2
REMARK    2  A    between atoms: C_4  and  C_5
REMARK    3  A    between atoms: C_5  and  N_6
REMARK    4  A    between atoms: C_7  and  C_9
REMARK    5  A    between atoms: C_16  and  C_17
REMARK    6  A    between atoms: C_17  and  N_18
REMARK    7  A    between atoms: C_19  and  C_21
REMARK                            x       y       z     vdW  Elec       q    Type
REMARK                         _______ _______ _______ _____ _____    ______ ____
ROOT
ATOM      1  C   UNL     1      46.762   4.767  14.394  0.00  0.00    +0.000 C 
ATOM      2  C   UNL     1      46.065   5.087  13.099  0.00  0.00    +0.000 A 
ATOM      3  C   UNL     1      45.593   4.002  12.327  0.00  0.00    +0.000 A 
ATOM      4  C   UNL     1      44.950   4.189  11.098  0.00  0.00    +0.000 A 
ATOM      5  C   UNL     1      44.744   5.500  10.657  0.00  0.00    +0.000 A 
ATOM      6  C   UNL     1      45.217   6.588  11.407  0.00  0.00    +0.000 A 
ATOM      7  C   UNL     1      45.907   6.405  12.621  0.00  0.00    +0.000 A 
ENDROOT
BRANCH   4   8
ATOM      8  C   UNL     1      44.493   2.997  10.291  0.00  0.00    +0.000 C 
BRANCH   8   9
ATOM      9  N   UNL     1      45.440   2.640   9.266  0.00  0.00    +0.000 N 
ATOM     10  C   UNL     1      45.405   3.199   8.004  0.00  0.00    +0.000 C 
ATOM     11  O   UNL     1      44.573   4.046   7.684  0.00  0.00    +0.000 OA
ATOM     12  H   UNL     1      46.202   2.012   9.497  0.00  0.00    +0.000 HD
BRANCH  10  13
ATOM     13  C   UNL     1      46.420   2.705   7.102  0.00  0.00    +0.000 A 
ATOM     14  C   UNL     1      46.739   3.014   5.798  0.00  0.00    +0.000 A 
ATOM     15  C   UNL     1      47.812   2.158   5.490  0.00  0.00    +0.000 A 
ATOM     16  N   UNL     1      48.143   1.377   6.523  0.00  0.00    +0.000 NA
ATOM     17  O   UNL     1      47.267   1.726   7.538  0.00  0.00    +0.000 OA
ENDBRANCH  10  13
ENDBRANCH   8   9
ENDBRANCH   4   8
BRANCH   7  18
ATOM     18  C   UNL     1      46.434   7.631  13.353  0.00  0.00    +0.000 C 
BRANCH  18  19
ATOM     19  N   UNL     1      47.860   7.785  13.187  0.00  0.00    +0.000 N 
ATOM     20  C   UNL     1      48.490   9.001  13.149  0.00  0.00    +0.000 C 
ATOM     21  O   UNL     1      47.876  10.055  13.290  0.00  0.00    +0.000 OA
ATOM     22  H   UNL     1      48.342   6.977  12.805  0.00  0.00    +0.000 HD
BRANCH  20  23
ATOM     23  C   UNL     1      49.957   8.975  13.020  0.00  0.00    +0.000 A 
ATOM     24  C   UNL     1      50.591   9.654  11.985  0.00  0.00    +0.000 A 
ATOM     25  S   UNL     1      52.296   9.616  12.091  0.00  0.00    +0.000 S 
ATOM     26  C   UNL     1      52.246   8.646  13.487  0.00  0.00    +0.000 A 
ATOM     27  N   UNL     1      53.389   8.260  14.119  0.00  0.00    +0.000 NA
ATOM     28  C   UNL     1      53.199   7.522  15.161  0.00  0.00    +0.000 A 
ATOM     29  N   UNL     1      51.971   7.118  15.619  0.00  0.00    +0.000 N 
ATOM     30  C   UNL     1      50.797   7.462  14.999  0.00  0.00    +0.000 A 
ATOM     31  O   UNL     1      49.718   7.048  15.410  0.00  0.00    +0.000 OA
ATOM     32  C   UNL     1      50.950   8.338  13.854  0.00  0.00    +0.000 A 
ATOM     33  H   UNL     1      51.889   6.525  16.432  0.00  0.00    +0.000 HD
ENDBRANCH  20  23
ENDBRANCH  18  19
ENDBRANCH   7  18
TORSDOF 6
ENDMDL
MODEL 7
REMARK VINA RESULT:    -7.150      3.670      8.247
REMARK INTER + INTRA:         -10.406
REMARK INTER:                  -9.336
REMARK INTRA:                  -1.071
REMARK UNBOUND:                -0.749
REMARK  Name = 
REMARK  7 active torsions:
REMARK  status: ('A' for Active; 'I' for Inactive)
REMARK    1  A    between atoms: C_1  and  C_2
REMARK    2  A    between atoms: C_4  and  C_5
REMARK    3  A    between atoms: C_5  and  N_6
REMARK    4  A    between atoms: C_7  and  C_9
REMARK    5  A    between atoms: C_16  and  C_17
REMARK    6  A    between atoms: C_17  and  N_18
REMARK    7  A    between atoms: C_19  and  C_21
REMARK                            x       y       z     vdW  Elec       q    Type
REMARK                         _______ _______ _______ _____ _____    ______ ____
ROOT
ATOM      1  C   UNL     1      50.658   7.957  16.117  0.00  0.00    +0.000 C 
ATOM      2  C   UNL     1      49.789   6.747  16.327  0.00  0.00    +0.000 A 
ATOM      3  C   UNL     1      50.147   5.859  17.367  0.00  0.00    +0.000 A 
ATOM      4  C   UNL     1      49.418   4.693  17.632  0.00  0.00    +0.000 A 
ATOM      5  C   UNL     1      48.282   4.438  16.858  0.00  0.00    +0.000 A 
ATOM      6  C   UNL     1      47.920   5.304  15.814  0.00  0.00    +0.000 A 
ATOM      7  C   UNL     1      48.675   6.453  15.511  0.00  0.00    +0.000 A 
ENDROOT
BRANCH   4   8
ATOM      8  C   UNL     1      49.859   3.757  18.731  0.00  0.00    +0.000 C 
BRANCH   8   9
ATOM      9  N   UNL     1      51.182   3.237  18.503  0.00  0.00    +0.000 N 
ATOM     10  C   UNL     1      51.418   2.164  17.666  0.00  0.00    +0.000 C 
ATOM     11  O   UNL     1      50.514   1.599  17.054  0.00  0.00    +0.000 OA
ATOM     12  H   UNL     1      51.977   3.716  18.912  0.00  0.00    +0.000 HD
BRANCH  10  13
ATOM     13  C   UNL     1      52.804   1.767  17.576  0.00  0.00    +0.000 A 
ATOM     14  C   UNL     1      53.984   2.465  17.701  0.00  0.00    +0.000 A 
ATOM     15  C   UNL     1      54.985   1.503  17.475  0.00  0.00    +0.000 A 
ATOM     16  N   UNL     1      54.471   0.294  17.232  0.00  0.00    +0.000 NA
ATOM     17  O   UNL     1      53.097   0.462  17.299  0.00  0.00    +0.000 OA
ENDBRANCH  10  13
ENDBRANCH   8   9
ENDBRANCH   4   8
BRANCH   7  18
ATOM     18  C   UNL     1      48.249   7.316  14.332  0.00  0.00    +0.000 C 
BRANCH  18  19
ATOM     19  N   UNL     1      46.983   6.890  13.784  0.00  0.00    +0.000 N 
ATOM     20  C   UNL     1      46.764   6.708  12.443  0.00  0.00    +0.000 C 
ATOM     21  O   UNL     1      47.653   6.866  11.612  0.00  0.00    +0.000 OA
ATOM     22  H   UNL     1      46.181   7.013  14.393  0.00  0.00    +0.000 HD
BRANCH  20  23
ATOM     23  C   UNL     1      45.426   6.225  12.059  0.00  0.00    +0.000 A 
ATOM     24  C   UNL     1      44.481   7.098  11.530  0.00  0.00    +0.000 A 
ATOM     25  S   UNL     1      43.048   6.321  11.020  0.00  0.00    +0.000 S 
ATOM     26  C   UNL     1      43.616   4.804  11.539  0.00  0.00    +0.000 A 
ATOM     27  N   UNL     1      42.870   3.676  11.373  0.00  0.00    +0.000 NA
ATOM     28  C   UNL     1      43.425   2.599  11.819  0.00  0.00    +0.000 A 
ATOM     29  N   UNL     1      44.650   2.549  12.434  0.00  0.00    +0.000 N 
ATOM     30  C   UNL     1      45.422   3.662  12.645  0.00  0.00    +0.000 A 
ATOM     31  O   UNL     1      46.494   3.588  13.237  0.00  0.00    +0.000 OA
ATOM     32  C   UNL     1      44.870   4.893  12.112  0.00  0.00    +0.000 A 
ATOM     33  H   UNL     1      45.023   1.676  12.778  0.00  0.00    +0.000 HD
ENDBRANCH  20  23
ENDBRANCH  18  19
ENDBRANCH   7  18
TORSDOF 6
ENDMDL
MODEL 8
REMARK VINA RESULT:    -7.138      4.880      7.412
REMARK INTER + INTRA:         -10.391
REMARK INTER:                  -9.409
REMARK INTRA:                  -0.981
REMARK UNBOUND:                -0.749
REMARK  Name = 
REMARK  7 active torsions:
REMARK  status: ('A' for Active; 'I' for Inactive)
REMARK    1  A    between atoms: C_1  and  C_2
REMARK    2  A    between atoms: C_4  and  C_5
REMARK    3  A    between atoms: C_5  and  N_6
REMARK    4  A    between atoms: C_7  and  C_9
REMARK    5  A    between atoms: C_16  and  C_17
REMARK    6  A    between atoms: C_17  and  N_18
REMARK    7  A    between atoms: C_19  and  C_21
REMARK                            x       y       z     vdW  Elec       q    Type
REMARK                         _______ _______ _______ _____ _____    ______ ____
ROOT
ATOM      1  C   UNL     1      48.013  11.005  11.374  0.00  0.00    +0.000 C 
ATOM      2  C   UNL     1      48.761   9.711  11.546  0.00  0.00    +0.000 A 
ATOM      3  C   UNL     1      50.142   9.711  11.246  0.00  0.00    +0.000 A 
ATOM      4  C   UNL     1      50.925   8.555  11.353  0.00  0.00    +0.000 A 
ATOM      5  C   UNL     1      50.311   7.385  11.809  0.00  0.00    +0.000 A 
ATOM      6  C   UNL     1      48.938   7.366  12.101  0.00  0.00    +0.000 A 
ATOM      7  C   UNL     1      48.135   8.512  11.950  0.00  0.00    +0.000 A 
ENDROOT
BRANCH   4   8
ATOM      8  C   UNL     1      52.390   8.595  10.988  0.00  0.00    +0.000 C 
BRANCH   8   9
ATOM      9  N   UNL     1      52.740   7.574  10.035  0.00  0.00    +0.000 N 
ATOM     10  C   UNL     1      52.976   7.857   8.704  0.00  0.00    +0.000 C 
ATOM     11  O   UNL     1      52.916   9.000   8.257  0.00  0.00    +0.000 OA
ATOM     12  H   UNL     1      52.889   6.626  10.362  0.00  0.00    +0.000 HD
BRANCH  10  13
ATOM     13  C   UNL     1      53.293   6.704   7.893  0.00  0.00    +0.000 A 
ATOM     14  C   UNL     1      54.476   6.057   7.615  0.00  0.00    +0.000 A 
ATOM     15  C   UNL     1      54.109   5.021   6.736  0.00  0.00    +0.000 A 
ATOM     16  N   UNL     1      52.796   5.018   6.488  0.00  0.00    +0.000 NA
ATOM     17  O   UNL     1      52.284   6.076   7.220  0.00  0.00    +0.000 OA
ENDBRANCH  10  13
ENDBRANCH   8   9
ENDBRANCH   4   8
BRANCH   7  18
ATOM     18  C   UNL     1      46.644   8.401  12.237  0.00  0.00    +0.000 C 
BRANCH  18  19
ATOM     19  N   UNL     1      46.159   7.055  12.045  0.00  0.00    +0.000 N 
ATOM     20  C   UNL     1      44.886   6.763  11.629  0.00  0.00    +0.000 C 
ATOM     21  O   UNL     1      44.074   7.642  11.355  0.00  0.00    +0.000 OA
ATOM     22  H   UNL     1      46.695   6.329  12.510  0.00  0.00    +0.000 HD
BRANCH  20  23
ATOM     23  C   UNL     1      44.571   5.336  11.440  0.00  0.00    +0.000 A 
ATOM     24  C   UNL     1      43.874   4.629  12.413  0.00  0.00    +0.000 A 
ATOM     25  S   UNL     1      43.486   3.032  11.947  0.00  0.00    +0.000 S 
ATOM     26  C   UNL     1      44.284   3.212  10.455  0.00  0.00    +0.000 A 
ATOM     27  N   UNL     1      44.313   2.200   9.543  0.00  0.00    +0.000 NA
ATOM     28  C   UNL     1      44.959   2.476   8.460  0.00  0.00    +0.000 A 
ATOM     29  N   UNL     1      45.596   3.665   8.212  0.00  0.00    +0.000 N 
ATOM     30  C   UNL     1      45.615   4.700   9.113  0.00  0.00    +0.000 A 
ATOM     31  O   UNL     1      46.231   5.734   8.878  0.00  0.00    +0.000 OA
ATOM     32  C   UNL     1      44.856   4.463  10.325  0.00  0.00    +0.000 A 
ATOM     33  H   UNL     1      46.101   3.815   7.351  0.00  0.00    +0.000 HD
ENDBRANCH  20  23
ENDBRANCH  18  19
ENDBRANCH   7  18
TORSDOF 6
ENDMDL
MODEL 9
REMARK VINA RESULT:    -6.530      3.312      4.552
REMARK INTER + INTRA:          -9.569
REMARK INTER:                  -8.595
REMARK INTRA:                  -0.974
REMARK UNBOUND:                -0.749
REMARK  Name = 
REMARK  7 active torsions:
REMARK  status: ('A' for Active; 'I' for Inactive)
REMARK    1  A    between atoms: C_1  and  C_2
REMARK    2  A    between atoms: C_4  and  C_5
REMARK    3  A    between atoms: C_5  and  N_6
REMARK    4  A    between atoms: C_7  and  C_9
REMARK    5  A    between atoms: C_16  and  C_17
REMARK    6  A    between atoms: C_17  and  N_18
REMARK    7  A    between atoms: C_19  and  C_21
REMARK                            x       y       z     vdW  Elec       q    Type
REMARK                         _______ _______ _______ _____ _____    ______ ____
ROOT
ATOM      1  C   UNL     1      48.947  10.297  15.711  0.00  0.00    +0.000 C 
ATOM      2  C   UNL     1      48.697   8.888  15.248  0.00  0.00    +0.000 A 
ATOM      3  C   UNL     1      48.166   8.712  13.950  0.00  0.00    +0.000 A 
ATOM      4  C   UNL     1      47.877   7.444  13.431  0.00  0.00    +0.000 A 
ATOM      5  C   UNL     1      48.166   6.329  14.223  0.00  0.00    +0.000 A 
ATOM      6  C   UNL     1      48.683   6.487  15.518  0.00  0.00    +0.000 A 
ATOM      7  C   UNL     1      48.932   7.761  16.064  0.00  0.00    +0.000 A 
ENDROOT
BRANCH   4   8
ATOM      8  C   UNL     1      47.277   7.308  12.052  0.00  0.00    +0.000 C 
BRANCH   8   9
ATOM      9  N   UNL     1      46.469   6.123  11.926  0.00  0.00    +0.000 N 
ATOM     10  C   UNL     1      45.124   6.111  12.239  0.00  0.00    +0.000 C 
ATOM     11  O   UNL     1      44.533   7.116  12.629  0.00  0.00    +0.000 OA
ATOM     12  H   UNL     1      46.881   5.286  11.527  0.00  0.00    +0.000 HD
BRANCH  10  13
ATOM     13  C   UNL     1      44.481   4.829  12.072  0.00  0.00    +0.000 A 
ATOM     14  C   UNL     1      43.873   4.223  10.994  0.00  0.00    +0.000 A 
ATOM     15  C   UNL     1      43.423   2.988  11.496  0.00  0.00    +0.000 A 
ATOM     16  N   UNL     1      43.731   2.831  12.786  0.00  0.00    +0.000 NA
ATOM     17  O   UNL     1      44.400   3.989  13.146  0.00  0.00    +0.000 OA
ENDBRANCH  10  13
ENDBRANCH   8   9
ENDBRANCH   4   8
BRANCH   7  18
ATOM     18  C   UNL     1      49.445   7.854  17.494  0.00  0.00    +0.000 C 
BRANCH  18  19
ATOM     19  N   UNL     1      50.432   6.839  17.778  0.00  0.00    +0.000 N 
ATOM     20  C   UNL     1      50.201   5.771  18.606  0.00  0.00    +0.000 C 
ATOM     21  O   UNL     1      49.112   5.587  19.141  0.00  0.00    +0.000 OA
ATOM     22  H   UNL     1      51.393   7.100  17.580  0.00  0.00    +0.000 HD
BRANCH  20  23
ATOM     23  C   UNL     1      51.304   4.804  18.749  0.00  0.00    +0.000 A 
ATOM     24  C   UNL     1      52.428   5.117  19.505  0.00  0.00    +0.000 A 
ATOM     25  S   UNL     1      53.526   3.817  19.662  0.00  0.00    +0.000 S 
ATOM     26  C   UNL     1      52.566   2.812  18.681  0.00  0.00    +0.000 A 
ATOM     27  N   UNL     1      52.927   1.524  18.423  0.00  0.00    +0.000 NA
ATOM     28  C   UNL     1      52.107   0.883  17.659  0.00  0.00    +0.000 A 
ATOM     29  N   UNL     1      50.968   1.417  17.114  0.00  0.00    +0.000 N 
ATOM     30  C   UNL     1      50.580   2.716  17.326  0.00  0.00    +0.000 A 
ATOM     31  O   UNL     1      49.579   3.175  16.787  0.00  0.00    +0.000 OA
ATOM     32  C   UNL     1      51.438   3.466  18.223  0.00  0.00    +0.000 A 
ATOM     33  H   UNL     1      50.375   0.869  16.509  0.00  0.00    +0.000 HD
ENDBRANCH  20  23
ENDBRANCH  18  19
ENDBRANCH   7  18
TORSDOF 6
ENDMDL
