MODEL 1
REMARK VINA RESULT:    -8.598      0.000      0.000
REMARK INTER + INTRA:         -13.582
REMARK INTER:                 -12.368
REMARK INTRA:                  -1.213
REMARK UNBOUND:                -1.213
REMARK  Name = 
REMARK  8 active torsions:
REMARK  status: ('A' for Active; 'I' for Inactive)
REMARK    1  A    between atoms: N_1  and  C_2
REMARK    2  A    between atoms: C_2  and  C_3
REMARK    3  A    between atoms: C_2  and  C_17
REMARK    4  A    between atoms: C_3  and  N_4
REMARK    5  A    between atoms: C_5  and  C_7
REMARK    6  A    between atoms: C_20  and  C_21
REMARK    7  A    between atoms: C_21  and  N_22
REMARK    8  A    between atoms: C_23  and  C_25
REMARK                            x       y       z     vdW  Elec       q    Type
REMARK                         _______ _______ _______ _____ _____    ______ ____
ROOT
ATOM      1  C   UNL     1      46.630   4.072  14.435  0.00  0.00    +0.000 C 
ENDROOT
BRANCH   1   2
ATOM      2  C   UNL     1      46.039   4.241  13.039  0.00  0.00    +0.000 A 
ATOM      3  C   UNL     1      45.264   3.216  12.467  0.00  0.00    +0.000 A 
ATOM      4  C   UNL     1      44.708   3.351  11.194  0.00  0.00    +0.000 A 
ATOM      5  C   UNL     1      44.896   4.524  10.459  0.00  0.00    +0.000 A 
ATOM      6  C   UNL     1      45.622   5.571  11.035  0.00  0.00    +0.000 A 
ATOM      7  C   UNL     1      46.182   5.433  12.308  0.00  0.00    +0.000 A 
BRANCH   5   8
ATOM      8  C   UNL     1      44.287   4.684   9.098  0.00  0.00    +0.000 C 
BRANCH   8   9
ATOM      9  N   UNL     1      44.683   3.605   8.224  0.00  0.00    +0.000 N 
ATOM     10  C   UNL     1      45.856   3.686   7.512  0.00  0.00    +0.000 C 
ATOM     11  O   UNL     1      46.626   4.636   7.630  0.00  0.00    +0.000 OA
ATOM     12  H   UNL     1      44.031   2.847   8.071  0.00  0.00    +0.000 HD
BRANCH  10  13
ATOM     13  C   UNL     1      46.136   2.486   6.614  0.00  0.00    +0.000 C 
ATOM     14  C   UNL     1      46.999   1.439   7.304  0.00  0.00    +0.000 C 
ATOM     15  C   UNL     1      48.404   1.850   6.912  0.00  0.00    +0.000 C 
ATOM     16  N   UNL     1      48.271   2.228   5.500  0.00  0.00    +0.000 NA
ATOM     17  C   UNL     1      46.954   2.878   5.384  0.00  0.00    +0.000 C 
ATOM     18  H   UNL     1      48.270   1.377   4.937  0.00  0.00    +0.000 HD
ENDBRANCH  10  13
ENDBRANCH   8   9
ENDBRANCH   5   8
ENDBRANCH   1   2
BRANCH   1  19
ATOM     19  N   UNL     1      47.532   2.901  14.500  0.00  0.00    +0.000 NA
ATOM     20  H   UNL     1      48.489   3.228  14.366  0.00  0.00    +0.000 HD
ATOM     21  H   UNL     1      47.356   2.323  13.675  0.00  0.00    +0.000 HD
ENDBRANCH   1  19
BRANCH   1  22
ATOM     22  C   UNL     1      47.357   5.339  14.969  0.00  0.00    +0.000 C 
BRANCH  22  23
ATOM     23  N   UNL     1      48.561   5.027  15.716  0.00  0.00    +0.000 N 
ATOM     24  C   UNL     1      48.590   4.858  17.073  0.00  0.00    +0.000 C 
ATOM     25  O   UNL     1      47.582   4.948  17.768  0.00  0.00    +0.000 OA
ATOM     26  H   UNL     1      49.435   5.124  15.209  0.00  0.00    +0.000 HD
BRANCH  24  27
ATOM     27  C   UNL     1      49.898   4.534  17.647  0.00  0.00    +0.000 A 
ATOM     28  C   UNL     1      50.587   5.492  18.375  0.00  0.00    +0.000 A 
ATOM     29  S   UNL     1      52.064   4.927  19.014  0.00  0.00    +0.000 S 
ATOM     30  C   UNL     1      51.857   3.400  18.291  0.00  0.00    +0.000 A 
ATOM     31  N   UNL     1      52.793   2.425  18.435  0.00  0.00    +0.000 NA
ATOM     32  C   UNL     1      52.532   1.334  17.794  0.00  0.00    +0.000 A 
ATOM     33  N   UNL     1      51.414   1.127  17.027  0.00  0.00    +0.000 N 
ATOM     34  C   UNL     1      50.413   2.059  16.906  0.00  0.00    +0.000 A 
ATOM     35  O   UNL     1      49.377   1.806  16.298  0.00  0.00    +0.000 OA
ATOM     36  C   UNL     1      50.672   3.316  17.583  0.00  0.00    +0.000 A 
ATOM     37  H   UNL     1      51.260   0.243  16.566  0.00  0.00    +0.000 HD
ENDBRANCH  24  27
ENDBRANCH  22  23
ENDBRANCH   1  22
TORSDOF 8
ENDMDL
MODEL 2
REMARK VINA RESULT:    -8.118      2.368      3.663
REMARK INTER + INTRA:         -12.891
REMARK INTER:                 -11.764
REMARK INTRA:                  -1.127
REMARK UNBOUND:                -1.213
REMARK  Name = 
REMARK  8 active torsions:
REMARK  status: ('A' for Active; 'I' for Inactive)
REMARK    1  A    between atoms: N_1  and  C_2
REMARK    2  A    between atoms: C_2  and  C_3
REMARK    3  A    between atoms: C_2  and  C_17
REMARK    4  A    between atoms: C_3  and  N_4
REMARK    5  A    between atoms: C_5  and  C_7
REMARK    6  A    between atoms: C_20  and  C_21
REMARK    7  A    between atoms: C_21  and  N_22
REMARK    8  A    between atoms: C_23  and  C_25
REMARK                            x       y       z     vdW  Elec       q    Type
REMARK                         _______ _______ _______ _____ _____    ______ ____
ROOT
ATOM      1  C   UNL     1      46.821   4.324  14.311  0.00  0.00    +0.000 C 
ENDROOT
BRANCH   1   2
ATOM      2  C   UNL     1      46.158   4.389  12.938  0.00  0.00    +0.000 A 
ATOM      3  C   UNL     1      45.435   3.289  12.446  0.00  0.00    +0.000 A 
ATOM      4  C   UNL     1      44.815   3.328  11.196  0.00  0.00    +0.000 A 
ATOM      5  C   UNL     1      44.886   4.479  10.406  0.00  0.00    +0.000 A 
ATOM      6  C   UNL     1      45.560   5.598  10.904  0.00  0.00    +0.000 A 
ATOM      7  C   UNL     1      46.184   5.555  12.153  0.00  0.00    +0.000 A 
BRANCH   5   8
ATOM      8  C   UNL     1      44.209   4.535   9.069  0.00  0.00    +0.000 C 
BRANCH   8   9
ATOM      9  N   UNL     1      44.657   3.461   8.215  0.00  0.00    +0.000 N 
ATOM     10  C   UNL     1      45.795   3.608   7.457  0.00  0.00    +0.000 C 
ATOM     11  O   UNL     1      46.491   4.619   7.516  0.00  0.00    +0.000 OA
ATOM     12  H   UNL     1      44.062   2.650   8.111  0.00  0.00    +0.000 HD
BRANCH  10  13
ATOM     13  C   UNL     1      46.137   2.404   6.588  0.00  0.00    +0.000 C 
ATOM     14  C   UNL     1      47.068   1.429   7.294  0.00  0.00    +0.000 C 
ATOM     15  C   UNL     1      48.442   1.913   6.874  0.00  0.00    +0.000 C 
ATOM     16  N   UNL     1      48.271   2.245   5.455  0.00  0.00    +0.000 NA
ATOM     17  C   UNL     1      46.916   2.812   5.337  0.00  0.00    +0.000 C 
ATOM     18  H   UNL     1      48.316   1.381   4.914  0.00  0.00    +0.000 HD
ENDBRANCH  10  13
ENDBRANCH   8   9
ENDBRANCH   5   8
ENDBRANCH   1   2
BRANCH   1  19
ATOM     19  N   UNL     1      47.553   3.052  14.496  0.00  0.00    +0.000 NA
ATOM     20  H   UNL     1      47.440   2.757  15.465  0.00  0.00    +0.000 HD
ATOM     21  H   UNL     1      48.553   3.251  14.419  0.00  0.00    +0.000 HD
ENDBRANCH   1  19
BRANCH   1  22
ATOM     22  C   UNL     1      47.754   5.530  14.619  0.00  0.00    +0.000 C 
BRANCH  22  23
ATOM     23  N   UNL     1      47.785   5.875  16.028  0.00  0.00    +0.000 N 
ATOM     24  C   UNL     1      48.642   5.305  16.929  0.00  0.00    +0.000 C 
ATOM     25  O   UNL     1      49.467   4.457  16.607  0.00  0.00    +0.000 OA
ATOM     26  H   UNL     1      47.006   6.430  16.366  0.00  0.00    +0.000 HD
BRANCH  24  27
ATOM     27  C   UNL     1      48.532   5.793  18.306  0.00  0.00    +0.000 A 
ATOM     28  C   UNL     1      48.553   4.892  19.360  0.00  0.00    +0.000 A 
ATOM     29  S   UNL     1      48.471   5.636  20.892  0.00  0.00    +0.000 S 
ATOM     30  C   UNL     1      48.349   7.184  20.196  0.00  0.00    +0.000 A 
ATOM     31  N   UNL     1      48.231   8.294  20.972  0.00  0.00    +0.000 NA
ATOM     32  C   UNL     1      48.099   9.397  20.312  0.00  0.00    +0.000 A 
ATOM     33  N   UNL     1      48.081   9.491  18.945  0.00  0.00    +0.000 N 
ATOM     34  C   UNL     1      48.261   8.406  18.122  0.00  0.00    +0.000 A 
ATOM     35  O   UNL     1      48.345   8.537  16.904  0.00  0.00    +0.000 OA
ATOM     36  C   UNL     1      48.384   7.137  18.814  0.00  0.00    +0.000 A 
ATOM     37  H   UNL     1      47.993  10.387  18.490  0.00  0.00    +0.000 HD
ENDBRANCH  24  27
ENDBRANCH  22  23
ENDBRANCH   1  22
TORSDOF 8
ENDMDL
MODEL 3
REMARK VINA RESULT:    -7.497      3.315      4.694
REMARK INTER + INTRA:         -11.997
REMARK INTER:                 -10.645
REMARK INTRA:                  -1.352
REMARK UNBOUND:                -1.213
REMARK  Name = 
REMARK  8 active torsions:
REMARK  status: ('A' for Active; 'I' for Inactive)
REMARK    1  A    between atoms: N_1  and  C_2
REMARK    2  A    between atoms: C_2  and  C_3
REMARK    3  A    between atoms: C_2  and  C_17
REMARK    4  A    between atoms: C_3  and  N_4
REMARK    5  A    between atoms: C_5  and  C_7
REMARK    6  A    between atoms: C_20  and  C_21
REMARK    7  A    between atoms: C_21  and  N_22
REMARK    8  A    between atoms: C_23  and  C_25
REMARK                            x       y       z     vdW  Elec       q    Type
REMARK                         _______ _______ _______ _____ _____    ______ ____
ROOT
ATOM      1  C   UNL     1      47.907   4.670  17.717  0.00  0.00    +0.000 C 
ENDROOT
BRANCH   1   2
ATOM      2  C   UNL     1      47.724   5.066  16.255  0.00  0.00    +0.000 A 
ATOM      3  C   UNL     1      48.353   6.216  15.747  0.00  0.00    +0.000 A 
ATOM      4  C   UNL     1      48.205   6.593  14.411  0.00  0.00    +0.000 A 
ATOM      5  C   UNL     1      47.434   5.821  13.538  0.00  0.00    +0.000 A 
ATOM      6  C   UNL     1      46.844   4.649  14.017  0.00  0.00    +0.000 A 
ATOM      7  C   UNL     1      46.989   4.275  15.356  0.00  0.00    +0.000 A 
BRANCH   5   8
ATOM      8  C   UNL     1      47.284   6.211  12.097  0.00  0.00    +0.000 C 
BRANCH   8   9
ATOM      9  N   UNL     1      46.046   5.707  11.551  0.00  0.00    +0.000 N 
ATOM     10  C   UNL     1      44.882   6.422  11.699  0.00  0.00    +0.000 C 
ATOM     11  O   UNL     1      44.858   7.523  12.245  0.00  0.00    +0.000 OA
ATOM     12  H   UNL     1      46.040   4.777  11.154  0.00  0.00    +0.000 HD
BRANCH  10  13
ATOM     13  C   UNL     1      43.650   5.761  11.092  0.00  0.00    +0.000 C 
ATOM     14  C   UNL     1      42.739   5.156  12.151  0.00  0.00    +0.000 C 
ATOM     15  C   UNL     1      43.246   3.733  12.257  0.00  0.00    +0.000 C 
ATOM     16  N   UNL     1      43.507   3.354  10.863  0.00  0.00    +0.000 NA
ATOM     17  C   UNL     1      44.024   4.570  10.210  0.00  0.00    +0.000 C 
ATOM     18  H   UNL     1      42.621   3.097  10.428  0.00  0.00    +0.000 HD
ENDBRANCH  10  13
ENDBRANCH   8   9
ENDBRANCH   5   8
ENDBRANCH   1   2
BRANCH   1  19
ATOM     19  N   UNL     1      46.760   5.108  18.542  0.00  0.00    +0.000 NA
ATOM     20  H   UNL     1      47.118   5.671  19.313  0.00  0.00    +0.000 HD
ATOM     21  H   UNL     1      46.372   4.283  19.005  0.00  0.00    +0.000 HD
ENDBRANCH   1  19
BRANCH   1  22
ATOM     22  C   UNL     1      48.173   3.153  17.931  0.00  0.00    +0.000 C 
BRANCH  22  23
ATOM     23  N   UNL     1      49.580   2.845  18.107  0.00  0.00    +0.000 N 
ATOM     24  C   UNL     1      50.330   2.168  17.185  0.00  0.00    +0.000 C 
ATOM     25  O   UNL     1      49.864   1.775  16.120  0.00  0.00    +0.000 OA
ATOM     26  H   UNL     1      49.952   2.989  19.040  0.00  0.00    +0.000 HD
BRANCH  24  27
ATOM     27  C   UNL     1      51.737   1.963  17.536  0.00  0.00    +0.000 A 
ATOM     28  C   UNL     1      52.231   0.675  17.677  0.00  0.00    +0.000 A 
ATOM     29  S   UNL     1      53.899   0.623  18.032  0.00  0.00    +0.000 S 
ATOM     30  C   UNL     1      54.003   2.321  18.063  0.00  0.00    +0.000 A 
ATOM     31  N   UNL     1      55.180   2.946  18.332  0.00  0.00    +0.000 NA
ATOM     32  C   UNL     1      55.104   4.235  18.371  0.00  0.00    +0.000 A 
ATOM     33  N   UNL     1      53.958   4.957  18.158  0.00  0.00    +0.000 N 
ATOM     34  C   UNL     1      52.762   4.372  17.820  0.00  0.00    +0.000 A 
ATOM     35  O   UNL     1      51.780   5.050  17.534  0.00  0.00    +0.000 OA
ATOM     36  C   UNL     1      52.787   2.921  17.793  0.00  0.00    +0.000 A 
ATOM     37  H   UNL     1      53.971   5.966  18.184  0.00  0.00    +0.000 HD
ENDBRANCH  24  27
ENDBRANCH  22  23
ENDBRANCH   1  22
TORSDOF 8
ENDMDL
MODEL 4
REMARK VINA RESULT:    -7.313      2.302      3.145
REMARK INTER + INTRA:         -11.733
REMARK INTER:                 -10.694
REMARK INTRA:                  -1.039
REMARK UNBOUND:                -1.213
REMARK  Name = 
REMARK  8 active torsions:
REMARK  status: ('A' for Active; 'I' for Inactive)
REMARK    1  A    between atoms: N_1  and  C_2
REMARK    2  A    between atoms: C_2  and  C_3
REMARK    3  A    between atoms: C_2  and  C_17
REMARK    4  A    between atoms: C_3  and  N_4
REMARK    5  A    between atoms: C_5  and  C_7
REMARK    6  A    between atoms: C_20  and  C_21
REMARK    7  A    between atoms: C_21  and  N_22
REMARK    8  A    between atoms: C_23  and  C_25
REMARK                            x       y       z     vdW  Elec       q    Type
REMARK                         _______ _______ _______ _____ _____    ______ ____
ROOT
ATOM      1  C   UNL     1      47.523   8.487  13.106  0.00  0.00    +0.000 C 
ENDROOT
BRANCH   1   2
ATOM      2  C   UNL     1      46.589   7.518  12.386  0.00  0.00    +0.000 A 
ATOM      3  C   UNL     1      47.047   6.781  11.280  0.00  0.00    +0.000 A 
ATOM      4  C   UNL     1      46.213   5.884  10.611  0.00  0.00    +0.000 A 
ATOM      5  C   UNL     1      44.898   5.685  11.038  0.00  0.00    +0.000 A 
ATOM      6  C   UNL     1      44.445   6.374  12.167  0.00  0.00    +0.000 A 
ATOM      7  C   UNL     1      45.279   7.275  12.833  0.00  0.00    +0.000 A 
BRANCH   5   8
ATOM      8  C   UNL     1      44.000   4.711  10.334  0.00  0.00    +0.000 C 
BRANCH   8   9
ATOM      9  N   UNL     1      44.480   4.435   9.000  0.00  0.00    +0.000 N 
ATOM     10  C   UNL     1      45.149   3.265   8.733  0.00  0.00    +0.000 C 
ATOM     11  O   UNL     1      45.315   2.400   9.589  0.00  0.00    +0.000 OA
ATOM     12  H   UNL     1      44.404   5.164   8.303  0.00  0.00    +0.000 HD
BRANCH  10  13
ATOM     13  C   UNL     1      45.616   3.117   7.290  0.00  0.00    +0.000 C 
ATOM     14  C   UNL     1      46.125   1.715   6.989  0.00  0.00    +0.000 C 
ATOM     15  C   UNL     1      47.608   1.826   7.282  0.00  0.00    +0.000 C 
ATOM     16  N   UNL     1      47.972   3.136   6.728  0.00  0.00    +0.000 NA
ATOM     17  C   UNL     1      46.817   4.014   6.989  0.00  0.00    +0.000 C 
ATOM     18  H   UNL     1      48.091   3.037   5.720  0.00  0.00    +0.000 HD
ENDBRANCH  10  13
ENDBRANCH   8   9
ENDBRANCH   5   8
ENDBRANCH   1   2
BRANCH   1  19
ATOM     19  N   UNL     1      46.977   8.883  14.422  0.00  0.00    +0.000 NA
ATOM     20  H   UNL     1      46.823   9.892  14.413  0.00  0.00    +0.000 HD
ATOM     21  H   UNL     1      47.714   8.758  15.120  0.00  0.00    +0.000 HD
ENDBRANCH   1  19
BRANCH   1  22
ATOM     22  C   UNL     1      48.977   7.958  13.266  0.00  0.00    +0.000 C 
BRANCH  22  23
ATOM     23  N   UNL     1      49.119   7.017  14.362  0.00  0.00    +0.000 N 
ATOM     24  C   UNL     1      49.451   7.383  15.637  0.00  0.00    +0.000 C 
ATOM     25  O   UNL     1      49.644   8.551  15.957  0.00  0.00    +0.000 OA
ATOM     26  H   UNL     1      49.147   6.036  14.103  0.00  0.00    +0.000 HD
BRANCH  24  27
ATOM     27  C   UNL     1      49.534   6.290  16.610  0.00  0.00    +0.000 A 
ATOM     28  C   UNL     1      50.529   6.303  17.576  0.00  0.00    +0.000 A 
ATOM     29  S   UNL     1      50.443   4.987  18.657  0.00  0.00    +0.000 S 
ATOM     30  C   UNL     1      49.106   4.327  17.835  0.00  0.00    +0.000 A 
ATOM     31  N   UNL     1      48.536   3.163  18.246  0.00  0.00    +0.000 NA
ATOM     32  C   UNL     1      47.563   2.753  17.503  0.00  0.00    +0.000 A 
ATOM     33  N   UNL     1      47.101   3.406  16.389  0.00  0.00    +0.000 N 
ATOM     34  C   UNL     1      47.603   4.616  15.975  0.00  0.00    +0.000 A 
ATOM     35  O   UNL     1      47.100   5.226  15.036  0.00  0.00    +0.000 OA
ATOM     36  C   UNL     1      48.721   5.106  16.759  0.00  0.00    +0.000 A 
ATOM     37  H   UNL     1      46.322   3.041  15.862  0.00  0.00    +0.000 HD
ENDBRANCH  24  27
ENDBRANCH  22  23
ENDBRANCH   1  22
TORSDOF 8
ENDMDL
MODEL 5
REMARK VINA RESULT:    -7.303      3.682      4.513
REMARK INTER + INTRA:         -11.719
REMARK INTER:                 -10.646
REMARK INTRA:                  -1.073
REMARK UNBOUND:                -1.213
REMARK  Name = 
REMARK  8 active torsions:
REMARK  status: ('A' for Active; 'I' for Inactive)
REMARK    1  A    between atoms: N_1  and  C_2
REMARK    2  A    between atoms: C_2  and  C_3
REMARK    3  A    between atoms: C_2  and  C_17
REMARK    4  A    between atoms: C_3  and  N_4
REMARK    5  A    between atoms: C_5  and  C_7
REMARK    6  A    between atoms: C_20  and  C_21
REMARK    7  A    between atoms: C_21  and  N_22
REMARK    8  A    between atoms: C_23  and  C_25
REMARK                            x       y       z     vdW  Elec       q    Type
REMARK                         _______ _______ _______ _____ _____    ______ ____
ROOT
ATOM      1  C   UNL     1      47.983   6.867  13.707  0.00  0.00    +0.000 C 
ENDROOT
BRANCH   1   2
ATOM      2  C   UNL     1      47.009   6.177  12.757  0.00  0.00    +0.000 A 
ATOM      3  C   UNL     1      46.225   5.098  13.204  0.00  0.00    +0.000 A 
ATOM      4  C   UNL     1      45.323   4.456  12.355  0.00  0.00    +0.000 A 
ATOM      5  C   UNL     1      45.165   4.884  11.034  0.00  0.00    +0.000 A 
ATOM      6  C   UNL     1      45.901   5.986  10.590  0.00  0.00    +0.000 A 
ATOM      7  C   UNL     1      46.807   6.626  11.440  0.00  0.00    +0.000 A 
BRANCH   5   8
ATOM      8  C   UNL     1      44.186   4.209  10.120  0.00  0.00    +0.000 C 
BRANCH   8   9
ATOM      9  N   UNL     1      44.729   4.071   8.789  0.00  0.00    +0.000 N 
ATOM     10  C   UNL     1      45.381   2.917   8.424  0.00  0.00    +0.000 C 
ATOM     11  O   UNL     1      45.478   1.956   9.183  0.00  0.00    +0.000 OA
ATOM     12  H   UNL     1      44.710   4.876   8.177  0.00  0.00    +0.000 HD
BRANCH  10  13
ATOM     13  C   UNL     1      45.921   2.918   6.999  0.00  0.00    +0.000 C 
ATOM     14  C   UNL     1      46.517   1.573   6.607  0.00  0.00    +0.000 C 
ATOM     15  C   UNL     1      47.976   1.730   6.982  0.00  0.00    +0.000 C 
ATOM     16  N   UNL     1      48.296   3.099   6.561  0.00  0.00    +0.000 NA
ATOM     17  C   UNL     1      47.086   3.894   6.836  0.00  0.00    +0.000 C 
ATOM     18  H   UNL     1      48.467   3.095   5.555  0.00  0.00    +0.000 HD
ENDBRANCH  10  13
ENDBRANCH   8   9
ENDBRANCH   5   8
ENDBRANCH   1   2
BRANCH   1  19
ATOM     19  N   UNL     1      49.383   6.695  13.262  0.00  0.00    +0.000 NA
ATOM     20  H   UNL     1      49.854   6.080  13.925  0.00  0.00    +0.000 HD
ATOM     21  H   UNL     1      49.863   7.590  13.379  0.00  0.00    +0.000 HD
ENDBRANCH   1  19
BRANCH   1  22
ATOM     22  C   UNL     1      47.675   8.375  13.937  0.00  0.00    +0.000 C 
BRANCH  22  23
ATOM     23  N   UNL     1      47.498   8.707  15.339  0.00  0.00    +0.000 N 
ATOM     24  C   UNL     1      48.423   9.390  16.079  0.00  0.00    +0.000 C 
ATOM     25  O   UNL     1      49.481   9.789  15.603  0.00  0.00    +0.000 OA
ATOM     26  H   UNL     1      46.729   8.241  15.811  0.00  0.00    +0.000 HD
BRANCH  24  27
ATOM     27  C   UNL     1      48.059   9.643  17.476  0.00  0.00    +0.000 A 
ATOM     28  C   UNL     1      47.818  10.940  17.901  0.00  0.00    +0.000 A 
ATOM     29  S   UNL     1      47.353  11.042  19.539  0.00  0.00    +0.000 S 
ATOM     30  C   UNL     1      47.513   9.361  19.748  0.00  0.00    +0.000 A 
ATOM     31  N   UNL     1      47.272   8.779  20.953  0.00  0.00    +0.000 NA
ATOM     32  C   UNL     1      47.479   7.504  20.981  0.00  0.00    +0.000 A 
ATOM     33  N   UNL     1      47.899   6.756  19.912  0.00  0.00    +0.000 N 
ATOM     34  C   UNL     1      48.092   7.290  18.661  0.00  0.00    +0.000 A 
ATOM     35  O   UNL     1      48.367   6.579  17.699  0.00  0.00    +0.000 OA
ATOM     36  C   UNL     1      47.902   8.727  18.582  0.00  0.00    +0.000 A 
ATOM     37  H   UNL     1      48.024   5.759  19.995  0.00  0.00    +0.000 HD
ENDBRANCH  24  27
ENDBRANCH  22  23
ENDBRANCH   1  22
TORSDOF 8
ENDMDL
MODEL 6
REMARK VINA RESULT:    -7.277      2.084      2.582
REMARK INTER + INTRA:         -11.681
REMARK INTER:                 -10.611
REMARK INTRA:                  -1.069
REMARK UNBOUND:                -1.213
REMARK  Name = 
REMARK  8 active torsions:
REMARK  status: ('A' for Active; 'I' for Inactive)
REMARK    1  A    between atoms: N_1  and  C_2
REMARK    2  A    between atoms: C_2  and  C_3
REMARK    3  A    between atoms: C_2  and  C_17
REMARK    4  A    between atoms: C_3  and  N_4
REMARK    5  A    between atoms: C_5  and  C_7
REMARK    6  A    between atoms: C_20  and  C_21
REMARK    7  A    between atoms: C_21  and  N_22
REMARK    8  A    between atoms: C_23  and  C_25
REMARK                            x       y       z     vdW  Elec       q    Type
REMARK                         _______ _______ _______ _____ _____    ______ ____
ROOT
ATOM      1  C   UNL     1      46.666   4.479  14.180  0.00  0.00    +0.000 C 
ENDROOT
BRANCH   1   2
ATOM      2  C   UNL     1      45.978   4.455  12.818  0.00  0.00    +0.000 A 
ATOM      3  C   UNL     1      46.002   5.592  11.991  0.00  0.00    +0.000 A 
ATOM      4  C   UNL     1      45.386   5.590  10.738  0.00  0.00    +0.000 A 
ATOM      5  C   UNL     1      44.740   4.444  10.267  0.00  0.00    +0.000 A 
ATOM      6  C   UNL     1      44.752   3.291  11.057  0.00  0.00    +0.000 A 
ATOM      7  C   UNL     1      45.365   3.295  12.313  0.00  0.00    +0.000 A 
BRANCH   5   8
ATOM      8  C   UNL     1      44.090   4.429   8.915  0.00  0.00    +0.000 C 
BRANCH   8   9
ATOM      9  N   UNL     1      44.606   3.352   8.104  0.00  0.00    +0.000 N 
ATOM     10  C   UNL     1      45.771   3.517   7.393  0.00  0.00    +0.000 C 
ATOM     11  O   UNL     1      46.434   4.549   7.461  0.00  0.00    +0.000 OA
ATOM     12  H   UNL     1      44.039   2.522   7.992  0.00  0.00    +0.000 HD
BRANCH  10  13
ATOM     13  C   UNL     1      46.184   2.307   6.565  0.00  0.00    +0.000 C 
ATOM     14  C   UNL     1      47.168   1.410   7.305  0.00  0.00    +0.000 C 
ATOM     15  C   UNL     1      48.512   1.958   6.872  0.00  0.00    +0.000 C 
ATOM     16  N   UNL     1      48.329   2.233   5.442  0.00  0.00    +0.000 NA
ATOM     17  C   UNL     1      46.944   2.717   5.303  0.00  0.00    +0.000 C 
ATOM     18  H   UNL     1      48.425   1.355   4.930  0.00  0.00    +0.000 HD
ENDBRANCH  10  13
ENDBRANCH   8   9
ENDBRANCH   5   8
ENDBRANCH   1   2
BRANCH   1  19
ATOM     19  N   UNL     1      47.394   3.217  14.438  0.00  0.00    +0.000 NA
ATOM     20  H   UNL     1      46.832   2.446  14.077  0.00  0.00    +0.000 HD
ATOM     21  H   UNL     1      47.401   3.060  15.448  0.00  0.00    +0.000 HD
ENDBRANCH   1  19
BRANCH   1  22
ATOM     22  C   UNL     1      47.612   5.696  14.386  0.00  0.00    +0.000 C 
BRANCH  22  23
ATOM     23  N   UNL     1      47.956   5.914  15.779  0.00  0.00    +0.000 N 
ATOM     24  C   UNL     1      49.062   6.608  16.188  0.00  0.00    +0.000 C 
ATOM     25  O   UNL     1      49.849   7.114  15.396  0.00  0.00    +0.000 OA
ATOM     26  H   UNL     1      47.437   5.363  16.455  0.00  0.00    +0.000 HD
BRANCH  24  27
ATOM     27  C   UNL     1      49.234   6.733  17.637  0.00  0.00    +0.000 A 
ATOM     28  C   UNL     1      49.681   7.930  18.177  0.00  0.00    +0.000 A 
ATOM     29  S   UNL     1      49.770   7.915  19.880  0.00  0.00    +0.000 S 
ATOM     30  C   UNL     1      49.266   6.291  19.949  0.00  0.00    +0.000 A 
ATOM     31  N   UNL     1      49.145   5.645  21.139  0.00  0.00    +0.000 NA
ATOM     32  C   UNL     1      48.802   4.404  21.041  0.00  0.00    +0.000 A 
ATOM     33  N   UNL     1      48.561   3.750  19.860  0.00  0.00    +0.000 N 
ATOM     34  C   UNL     1      48.609   4.379  18.639  0.00  0.00    +0.000 A 
ATOM     35  O   UNL     1      48.287   3.795  17.609  0.00  0.00    +0.000 OA
ATOM     36  C   UNL     1      49.020   5.770  18.692  0.00  0.00    +0.000 A 
ATOM     37  H   UNL     1      48.278   2.782  19.853  0.00  0.00    +0.000 HD
ENDBRANCH  24  27
ENDBRANCH  22  23
ENDBRANCH   1  22
TORSDOF 8
ENDMDL
MODEL 7
REMARK VINA RESULT:    -7.084      4.571      8.277
REMARK INTER + INTRA:         -11.404
REMARK INTER:                 -10.286
REMARK INTRA:                  -1.118
REMARK UNBOUND:                -1.213
REMARK  Name = 
REMARK  8 active torsions:
REMARK  status: ('A' for Active; 'I' for Inactive)
REMARK    1  A    between atoms: N_1  and  C_2
REMARK    2  A    between atoms: C_2  and  C_3
REMARK    3  A    between atoms: C_2  and  C_17
REMARK    4  A    between atoms: C_3  and  N_4
REMARK    5  A    between atoms: C_5  and  C_7
REMARK    6  A    between atoms: C_20  and  C_21
REMARK    7  A    between atoms: C_21  and  N_22
REMARK    8  A    between atoms: C_23  and  C_25
REMARK                            x       y       z     vdW  Elec       q    Type
REMARK                         _______ _______ _______ _____ _____    ______ ____
ROOT
ATOM      1  C   UNL     1      47.965   4.324  17.800  0.00  0.00    +0.000 C 
ENDROOT
BRANCH   1   2
ATOM      2  C   UNL     1      49.127   5.152  17.260  0.00  0.00    +0.000 A 
ATOM      3  C   UNL     1      50.454   4.764  17.516  0.00  0.00    +0.000 A 
ATOM      4  C   UNL     1      51.533   5.502  17.026  0.00  0.00    +0.000 A 
ATOM      5  C   UNL     1      51.317   6.644  16.250  0.00  0.00    +0.000 A 
ATOM      6  C   UNL     1      50.003   7.013  15.946  0.00  0.00    +0.000 A 
ATOM      7  C   UNL     1      48.924   6.276  16.441  0.00  0.00    +0.000 A 
BRANCH   5   8
ATOM      8  C   UNL     1      52.471   7.432  15.706  0.00  0.00    +0.000 C 
BRANCH   8   9
ATOM      9  N   UNL     1      52.260   7.767  14.317  0.00  0.00    +0.000 N 
ATOM     10  C   UNL     1      51.877   9.039  13.963  0.00  0.00    +0.000 C 
ATOM     11  O   UNL     1      51.755   9.937  14.791  0.00  0.00    +0.000 OA
ATOM     12  H   UNL     1      52.299   7.023  13.633  0.00  0.00    +0.000 HD
BRANCH  10  13
ATOM     13  C   UNL     1      51.671   9.244  12.467  0.00  0.00    +0.000 C 
ATOM     14  C   UNL     1      50.205   9.150  12.068  0.00  0.00    +0.000 C 
ATOM     15  C   UNL     1      50.045   7.684  11.721  0.00  0.00    +0.000 C 
ATOM     16  N   UNL     1      51.277   7.366  10.989  0.00  0.00    +0.000 NA
ATOM     17  C   UNL     1      52.343   8.143  11.646  0.00  0.00    +0.000 C 
ATOM     18  H   UNL     1      51.174   7.694  10.028  0.00  0.00    +0.000 HD
ENDBRANCH  10  13
ENDBRANCH   8   9
ENDBRANCH   5   8
ENDBRANCH   1   2
BRANCH   1  19
ATOM     19  N   UNL     1      47.063   5.145  18.638  0.00  0.00    +0.000 NA
ATOM     20  H   UNL     1      46.960   4.684  19.542  0.00  0.00    +0.000 HD
ATOM     21  H   UNL     1      46.125   5.094  18.233  0.00  0.00    +0.000 HD
ENDBRANCH   1  19
BRANCH   1  22
ATOM     22  C   UNL     1      47.151   3.586  16.699  0.00  0.00    +0.000 C 
BRANCH  22  23
ATOM     23  N   UNL     1      46.632   4.484  15.684  0.00  0.00    +0.000 N 
ATOM     24  C   UNL     1      46.720   4.243  14.341  0.00  0.00    +0.000 C 
ATOM     25  O   UNL     1      47.243   3.230  13.888  0.00  0.00    +0.000 OA
ATOM     26  H   UNL     1      46.360   5.407  16.006  0.00  0.00    +0.000 HD
BRANCH  24  27
ATOM     27  C   UNL     1      46.125   5.261  13.471  0.00  0.00    +0.000 A 
ATOM     28  C   UNL     1      46.839   6.411  13.169  0.00  0.00    +0.000 A 
ATOM     29  S   UNL     1      46.019   7.458  12.102  0.00  0.00    +0.000 S 
ATOM     30  C   UNL     1      44.660   6.435  12.052  0.00  0.00    +0.000 A 
ATOM     31  N   UNL     1      43.564   6.759  11.315  0.00  0.00    +0.000 NA
ATOM     32  C   UNL     1      42.589   5.918  11.408  0.00  0.00    +0.000 A 
ATOM     33  N   UNL     1      42.611   4.776  12.166  0.00  0.00    +0.000 N 
ATOM     34  C   UNL     1      43.718   4.375  12.874  0.00  0.00    +0.000 A 
ATOM     35  O   UNL     1      43.744   3.296  13.459  0.00  0.00    +0.000 OA
ATOM     36  C   UNL     1      44.833   5.303  12.828  0.00  0.00    +0.000 A 
ATOM     37  H   UNL     1      41.821   4.149  12.180  0.00  0.00    +0.000 HD
ENDBRANCH  24  27
ENDBRANCH  22  23
ENDBRANCH   1  22
TORSDOF 8
ENDMDL
MODEL 8
REMARK VINA RESULT:    -7.023      3.634      5.360
REMARK INTER + INTRA:         -11.315
REMARK INTER:                  -9.937
REMARK INTRA:                  -1.378
REMARK UNBOUND:                -1.213
REMARK  Name = 
REMARK  8 active torsions:
REMARK  status: ('A' for Active; 'I' for Inactive)
REMARK    1  A    between atoms: N_1  and  C_2
REMARK    2  A    between atoms: C_2  and  C_3
REMARK    3  A    between atoms: C_2  and  C_17
REMARK    4  A    between atoms: C_3  and  N_4
REMARK    5  A    between atoms: C_5  and  C_7
REMARK    6  A    between atoms: C_20  and  C_21
REMARK    7  A    between atoms: C_21  and  N_22
REMARK    8  A    between atoms: C_23  and  C_25
REMARK                            x       y       z     vdW  Elec       q    Type
REMARK                         _______ _______ _______ _____ _____    ______ ____
ROOT
ATOM      1  C   UNL     1      48.600   4.924  19.878  0.00  0.00    +0.000 C 
ENDROOT
BRANCH   1   2
ATOM      2  C   UNL     1      48.205   4.621  18.435  0.00  0.00    +0.000 A 
ATOM      3  C   UNL     1      48.235   5.636  17.463  0.00  0.00    +0.000 A 
ATOM      4  C   UNL     1      47.885   5.381  16.137  0.00  0.00    +0.000 A 
ATOM      5  C   UNL     1      47.509   4.095  15.737  0.00  0.00    +0.000 A 
ATOM      6  C   UNL     1      47.524   3.065  16.682  0.00  0.00    +0.000 A 
ATOM      7  C   UNL     1      47.870   3.323  18.011  0.00  0.00    +0.000 A 
BRANCH   5   8
ATOM      8  C   UNL     1      47.148   3.808  14.310  0.00  0.00    +0.000 C 
BRANCH   8   9
ATOM      9  N   UNL     1      45.837   4.324  13.994  0.00  0.00    +0.000 N 
ATOM     10  C   UNL     1      45.695   5.342  13.081  0.00  0.00    +0.000 C 
ATOM     11  O   UNL     1      46.653   5.806  12.469  0.00  0.00    +0.000 OA
ATOM     12  H   UNL     1      45.048   3.993  14.534  0.00  0.00    +0.000 HD
BRANCH  10  13
ATOM     13  C   UNL     1      44.258   5.800  12.862  0.00  0.00    +0.000 C 
ATOM     14  C   UNL     1      43.274   4.639  12.872  0.00  0.00    +0.000 C 
ATOM     15  C   UNL     1      43.197   4.251  11.409  0.00  0.00    +0.000 C 
ATOM     16  N   UNL     1      43.176   5.542  10.711  0.00  0.00    +0.000 NA
ATOM     17  C   UNL     1      44.068   6.427  11.481  0.00  0.00    +0.000 C 
ATOM     18  H   UNL     1      42.227   5.914  10.750  0.00  0.00    +0.000 HD
ENDBRANCH  10  13
ENDBRANCH   8   9
ENDBRANCH   5   8
ENDBRANCH   1   2
BRANCH   1  19
ATOM     19  N   UNL     1      48.568   3.703  20.713  0.00  0.00    +0.000 NA
ATOM     20  H   UNL     1      47.622   3.323  20.684  0.00  0.00    +0.000 HD
ATOM     21  H   UNL     1      48.685   3.986  21.688  0.00  0.00    +0.000 HD
ENDBRANCH   1  19
BRANCH   1  22
ATOM     22  C   UNL     1      49.977   5.633  20.018  0.00  0.00    +0.000 C 
BRANCH  22  23
ATOM     23  N   UNL     1      51.096   4.712  19.954  0.00  0.00    +0.000 N 
ATOM     24  C   UNL     1      51.909   4.581  18.861  0.00  0.00    +0.000 C 
ATOM     25  O   UNL     1      51.756   5.251  17.845  0.00  0.00    +0.000 OA
ATOM     26  H   UNL     1      51.143   4.019  20.694  0.00  0.00    +0.000 HD
BRANCH  24  27
ATOM     27  C   UNL     1      52.995   3.607  18.990  0.00  0.00    +0.000 A 
ATOM     28  C   UNL     1      54.132   3.935  19.712  0.00  0.00    +0.000 A 
ATOM     29  S   UNL     1      55.267   2.665  19.805  0.00  0.00    +0.000 S 
ATOM     30  C   UNL     1      54.300   1.654  18.836  0.00  0.00    +0.000 A 
ATOM     31  N   UNL     1      54.706   0.398  18.510  0.00  0.00    +0.000 NA
ATOM     32  C   UNL     1      53.898  -0.239  17.730  0.00  0.00    +0.000 A 
ATOM     33  N   UNL     1      52.716   0.262  17.250  0.00  0.00    +0.000 N 
ATOM     34  C   UNL     1      52.235   1.500  17.605  0.00  0.00    +0.000 A 
ATOM     35  O   UNL     1      51.125   1.879  17.243  0.00  0.00    +0.000 OA
ATOM     36  C   UNL     1      53.122   2.270  18.457  0.00  0.00    +0.000 A 
ATOM     37  H   UNL     1      52.120  -0.296  16.658  0.00  0.00    +0.000 HD
ENDBRANCH  24  27
ENDBRANCH  22  23
ENDBRANCH   1  22
TORSDOF 8
ENDMDL
MODEL 9
REMARK VINA RESULT:    -6.931      4.795      8.253
REMARK INTER + INTRA:         -11.183
REMARK INTER:                  -8.808
REMARK INTRA:                  -2.375
REMARK UNBOUND:                -1.213
REMARK  Name = 
REMARK  8 active torsions:
REMARK  status: ('A' for Active; 'I' for Inactive)
REMARK    1  A    between atoms: N_1  and  C_2
REMARK    2  A    between atoms: C_2  and  C_3
REMARK    3  A    between atoms: C_2  and  C_17
REMARK    4  A    between atoms: C_3  and  N_4
REMARK    5  A    between atoms: C_5  and  C_7
REMARK    6  A    between atoms: C_20  and  C_21
REMARK    7  A    between atoms: C_21  and  N_22
REMARK    8  A    between atoms: C_23  and  C_25
REMARK                            x       y       z     vdW  Elec       q    Type
REMARK                         _______ _______ _______ _____ _____    ______ ____
ROOT
ATOM      1  C   UNL     1      47.897   4.781  17.724  0.00  0.00    +0.000 C 
ENDROOT
BRANCH   1   2
ATOM      2  C   UNL     1      48.699   6.014  17.319  0.00  0.00    +0.000 A 
ATOM      3  C   UNL     1      48.251   7.300  17.670  0.00  0.00    +0.000 A 
ATOM      4  C   UNL     1      48.971   8.441  17.316  0.00  0.00    +0.000 A 
ATOM      5  C   UNL     1      50.174   8.331  16.614  0.00  0.00    +0.000 A 
ATOM      6  C   UNL     1      50.658   7.057  16.303  0.00  0.00    +0.000 A 
ATOM      7  C   UNL     1      49.933   5.915  16.653  0.00  0.00    +0.000 A 
BRANCH   5   8
ATOM      8  C   UNL     1      50.964   9.552  16.245  0.00  0.00    +0.000 C 
BRANCH   8   9
ATOM      9  N   UNL     1      51.371   9.506  14.860  0.00  0.00    +0.000 N 
ATOM     10  C   UNL     1      50.487   9.853  13.867  0.00  0.00    +0.000 C 
ATOM     11  O   UNL     1      49.355  10.259  14.114  0.00  0.00    +0.000 OA
ATOM     12  H   UNL     1      52.279   9.117  14.640  0.00  0.00    +0.000 HD
BRANCH  10  13
ATOM     13  C   UNL     1      51.046   9.737  12.454  0.00  0.00    +0.000 C 
ATOM     14  C   UNL     1      50.004   9.242  11.460  0.00  0.00    +0.000 C 
ATOM     15  C   UNL     1      50.206   7.740  11.483  0.00  0.00    +0.000 C 
ATOM     16  N   UNL     1      51.665   7.588  11.524  0.00  0.00    +0.000 NA
ATOM     17  C   UNL     1      52.158   8.691  12.368  0.00  0.00    +0.000 C 
ATOM     18  H   UNL     1      52.028   7.708  10.578  0.00  0.00    +0.000 HD
ENDBRANCH  10  13
ENDBRANCH   8   9
ENDBRANCH   5   8
ENDBRANCH   1   2
BRANCH   1  19
ATOM     19  N   UNL     1      46.697   5.152  18.506  0.00  0.00    +0.000 NA
ATOM     20  H   UNL     1      46.966   5.224  19.487  0.00  0.00    +0.000 HD
ATOM     21  H   UNL     1      46.053   4.359  18.488  0.00  0.00    +0.000 HD
ENDBRANCH   1  19
BRANCH   1  22
ATOM     22  C   UNL     1      47.498   3.869  16.529  0.00  0.00    +0.000 C 
BRANCH  22  23
ATOM     23  N   UNL     1      46.743   4.573  15.509  0.00  0.00    +0.000 N 
ATOM     24  C   UNL     1      46.767   4.240  14.182  0.00  0.00    +0.000 C 
ATOM     25  O   UNL     1      47.429   3.301  13.753  0.00  0.00    +0.000 OA
ATOM     26  H   UNL     1      46.334   5.458  15.792  0.00  0.00    +0.000 HD
BRANCH  24  27
ATOM     27  C   UNL     1      45.929   5.061  13.305  0.00  0.00    +0.000 A 
ATOM     28  C   UNL     1      44.847   4.488  12.653  0.00  0.00    +0.000 A 
ATOM     29  S   UNL     1      43.951   5.599  11.720  0.00  0.00    +0.000 S 
ATOM     30  C   UNL     1      45.011   6.871  12.113  0.00  0.00    +0.000 A 
ATOM     31  N   UNL     1      44.820   8.122  11.617  0.00  0.00    +0.000 NA
ATOM     32  C   UNL     1      45.726   8.977  11.957  0.00  0.00    +0.000 A 
ATOM     33  N   UNL     1      46.805   8.696  12.755  0.00  0.00    +0.000 N 
ATOM     34  C   UNL     1      47.003   7.465  13.331  0.00  0.00    +0.000 A 
ATOM     35  O   UNL     1      47.920   7.273  14.124  0.00  0.00    +0.000 OA
ATOM     36  C   UNL     1      46.028   6.459  12.955  0.00  0.00    +0.000 A 
ATOM     37  H   UNL     1      47.468   9.416  12.999  0.00  0.00    +0.000 HD
ENDBRANCH  24  27
ENDBRANCH  22  23
ENDBRANCH   1  22
TORSDOF 8
ENDMDL
