MODEL 1
REMARK VINA RESULT:    -8.166      0.000      0.000
REMARK INTER + INTRA:         -12.229
REMARK INTER:                 -11.269
REMARK INTRA:                  -0.960
REMARK UNBOUND:                -0.960
REMARK  Name = 
REMARK  7 active torsions:
REMARK  status: ('A' for Active; 'I' for Inactive)
REMARK    1  A    between atoms: N_1  and  C_2
REMARK    2  A    between atoms: C_2  and  C_3
REMARK    3  A    between atoms: C_3  and  N_4
REMARK    4  A    between atoms: C_3  and  C_17
REMARK    5  A    between atoms: C_5  and  C_7
REMARK    6  A    between atoms: C_20  and  C_21
REMARK    7  A    between atoms: C_21  and  C_22
REMARK                            x       y       z     vdW  Elec       q    Type
REMARK                         _______ _______ _______ _____ _____    ______ ____
ROOT
ATOM      1  C   UNL     1      46.049   7.928  12.379  0.00  0.00    +0.000 C 
ENDROOT
BRANCH   1   2
ATOM      2  C   UNL     1      45.617   6.702  11.577  0.00  0.00    +0.000 A 
ATOM      3  C   UNL     1      46.251   6.393  10.365  0.00  0.00    +0.000 A 
ATOM      4  C   UNL     1      45.875   5.264   9.629  0.00  0.00    +0.000 A 
ATOM      5  C   UNL     1      44.871   4.404  10.096  0.00  0.00    +0.000 A 
ATOM      6  C   UNL     1      44.235   4.711  11.305  0.00  0.00    +0.000 A 
ATOM      7  C   UNL     1      44.600   5.848  12.033  0.00  0.00    +0.000 A 
BRANCH   5   8
ATOM      8  C   UNL     1      44.477   3.174   9.308  0.00  0.00    +0.000 C 
BRANCH   8   9
ATOM      9  C   UNL     1      45.514   2.636   8.343  0.00  0.00    +0.000 A 
ATOM     10  C   UNL     1      45.872   3.348   7.199  0.00  0.00    +0.000 A 
ATOM     11  C   UNL     1      46.715   2.754   6.263  0.00  0.00    +0.000 A 
ATOM     12  C   UNL     1      47.184   1.467   6.489  0.00  0.00    +0.000 A 
ATOM     13  C   UNL     1      46.802   0.831   7.657  0.00  0.00    +0.000 A 
ATOM     14  N   UNL     1      45.981   1.382   8.581  0.00  0.00    +0.000 NA
ENDBRANCH   8   9
ENDBRANCH   5   8
ENDBRANCH   1   2
BRANCH   1  15
ATOM     15  N   UNL     1      46.679   7.477  13.615  0.00  0.00    +0.000 N 
ATOM     16  C   UNL     1      47.996   7.095  13.678  0.00  0.00    +0.000 C 
ATOM     17  O   UNL     1      48.770   7.219  12.734  0.00  0.00    +0.000 OA
ATOM     18  H   UNL     1      46.047   7.120  14.325  0.00  0.00    +0.000 HD
BRANCH  16  19
ATOM     19  C   UNL     1      48.457   6.571  14.965  0.00  0.00    +0.000 A 
ATOM     20  C   UNL     1      49.450   7.238  15.669  0.00  0.00    +0.000 A 
ATOM     21  S   UNL     1      49.877   6.471  17.131  0.00  0.00    +0.000 S 
ATOM     22  C   UNL     1      48.787   5.195  16.844  0.00  0.00    +0.000 A 
ATOM     23  N   UNL     1      48.696   4.145  17.702  0.00  0.00    +0.000 NA
ATOM     24  C   UNL     1      47.859   3.231  17.336  0.00  0.00    +0.000 A 
ATOM     25  N   UNL     1      47.092   3.282  16.202  0.00  0.00    +0.000 N 
ATOM     26  C   UNL     1      47.112   4.349  15.335  0.00  0.00    +0.000 A 
ATOM     27  O   UNL     1      46.344   4.413  14.379  0.00  0.00    +0.000 OA
ATOM     28  C   UNL     1      48.073   5.378  15.675  0.00  0.00    +0.000 A 
ATOM     29  H   UNL     1      46.431   2.548  15.990  0.00  0.00    +0.000 HD
ENDBRANCH  16  19
ENDBRANCH   1  15
BRANCH   1  30
ATOM     30  C   UNL     1      44.864   8.909  12.636  0.00  0.00    +0.000 C 
BRANCH  30  31
ATOM     31  N   UNL     1      44.124   9.307  11.432  0.00  0.00    +0.000 NA
ATOM     32  H   UNL     1      43.505  10.081  11.670  0.00  0.00    +0.000 HD
ATOM     33  H   UNL     1      43.520   8.538  11.137  0.00  0.00    +0.000 HD
ENDBRANCH  30  31
ENDBRANCH   1  30
TORSDOF 7
ENDMDL
MODEL 2
REMARK VINA RESULT:    -7.917      2.386      3.115
REMARK INTER + INTRA:         -11.886
REMARK INTER:                 -10.754
REMARK INTRA:                  -1.132
REMARK UNBOUND:                -0.960
REMARK  Name = 
REMARK  7 active torsions:
REMARK  status: ('A' for Active; 'I' for Inactive)
REMARK    1  A    between atoms: N_1  and  C_2
REMARK    2  A    between atoms: C_2  and  C_3
REMARK    3  A    between atoms: C_3  and  N_4
REMARK    4  A    between atoms: C_3  and  C_17
REMARK    5  A    between atoms: C_5  and  C_7
REMARK    6  A    between atoms: C_20  and  C_21
REMARK    7  A    between atoms: C_21  and  C_22
REMARK                            x       y       z     vdW  Elec       q    Type
REMARK                         _______ _______ _______ _____ _____    ______ ____
ROOT
ATOM      1  C   UNL     1      47.924   7.168  13.830  0.00  0.00    +0.000 C 
ENDROOT
BRANCH   1   2
ATOM      2  C   UNL     1      46.995   6.391  12.899  0.00  0.00    +0.000 A 
ATOM      3  C   UNL     1      46.705   6.885  11.619  0.00  0.00    +0.000 A 
ATOM      4  C   UNL     1      45.869   6.176  10.752  0.00  0.00    +0.000 A 
ATOM      5  C   UNL     1      45.317   4.944  11.132  0.00  0.00    +0.000 A 
ATOM      6  C   UNL     1      45.604   4.449  12.410  0.00  0.00    +0.000 A 
ATOM      7  C   UNL     1      46.428   5.165  13.284  0.00  0.00    +0.000 A 
BRANCH   5   8
ATOM      8  C   UNL     1      44.427   4.168  10.187  0.00  0.00    +0.000 C 
BRANCH   8   9
ATOM      9  C   UNL     1      45.123   3.449   9.049  0.00  0.00    +0.000 A 
ATOM     10  C   UNL     1      45.395   2.083   9.118  0.00  0.00    +0.000 A 
ATOM     11  C   UNL     1      46.167   1.491   8.121  0.00  0.00    +0.000 A 
ATOM     12  C   UNL     1      46.647   2.272   7.078  0.00  0.00    +0.000 A 
ATOM     13  C   UNL     1      46.318   3.615   7.067  0.00  0.00    +0.000 A 
ATOM     14  N   UNL     1      45.575   4.218   8.023  0.00  0.00    +0.000 NA
ENDBRANCH   8   9
ENDBRANCH   5   8
ENDBRANCH   1   2
BRANCH   1  15
ATOM     15  N   UNL     1      47.873   6.558  15.154  0.00  0.00    +0.000 N 
ATOM     16  C   UNL     1      49.001   6.261  15.876  0.00  0.00    +0.000 C 
ATOM     17  O   UNL     1      50.126   6.596  15.519  0.00  0.00    +0.000 OA
ATOM     18  H   UNL     1      47.023   6.044  15.368  0.00  0.00    +0.000 HD
BRANCH  16  19
ATOM     19  C   UNL     1      48.792   5.559  17.144  0.00  0.00    +0.000 A 
ATOM     20  C   UNL     1      48.947   4.181  17.207  0.00  0.00    +0.000 A 
ATOM     21  S   UNL     1      48.638   3.534  18.755  0.00  0.00    +0.000 S 
ATOM     22  C   UNL     1      48.236   5.067  19.376  0.00  0.00    +0.000 A 
ATOM     23  N   UNL     1      47.814   5.215  20.659  0.00  0.00    +0.000 NA
ATOM     24  C   UNL     1      47.504   6.427  20.981  0.00  0.00    +0.000 A 
ATOM     25  N   UNL     1      47.597   7.507  20.142  0.00  0.00    +0.000 N 
ATOM     26  C   UNL     1      48.070   7.413  18.855  0.00  0.00    +0.000 A 
ATOM     27  O   UNL     1      48.235   8.410  18.158  0.00  0.00    +0.000 OA
ATOM     28  C   UNL     1      48.384   6.064  18.430  0.00  0.00    +0.000 A 
ATOM     29  H   UNL     1      47.369   8.436  20.466  0.00  0.00    +0.000 HD
ENDBRANCH  16  19
ENDBRANCH   1  15
BRANCH   1  30
ATOM     30  C   UNL     1      47.586   8.690  13.860  0.00  0.00    +0.000 C 
BRANCH  30  31
ATOM     31  N   UNL     1      47.411   9.254  15.204  0.00  0.00    +0.000 NA
ATOM     32  H   UNL     1      46.755  10.032  15.149  0.00  0.00    +0.000 HD
ATOM     33  H   UNL     1      48.298   9.650  15.523  0.00  0.00    +0.000 HD
ENDBRANCH  30  31
ENDBRANCH   1  30
TORSDOF 7
ENDMDL
MODEL 3
REMARK VINA RESULT:    -7.783      2.729      4.085
REMARK INTER + INTRA:         -11.701
REMARK INTER:                 -10.315
REMARK INTRA:                  -1.387
REMARK UNBOUND:                -0.960
REMARK  Name = 
REMARK  7 active torsions:
REMARK  status: ('A' for Active; 'I' for Inactive)
REMARK    1  A    between atoms: N_1  and  C_2
REMARK    2  A    between atoms: C_2  and  C_3
REMARK    3  A    between atoms: C_3  and  N_4
REMARK    4  A    between atoms: C_3  and  C_17
REMARK    5  A    between atoms: C_5  and  C_7
REMARK    6  A    between atoms: C_20  and  C_21
REMARK    7  A    between atoms: C_21  and  C_22
REMARK                            x       y       z     vdW  Elec       q    Type
REMARK                         _______ _______ _______ _____ _____    ______ ____
ROOT
ATOM      1  C   UNL     1      46.440   5.786  13.670  0.00  0.00    +0.000 C 
ENDROOT
BRANCH   1   2
ATOM      2  C   UNL     1      45.919   5.168  12.374  0.00  0.00    +0.000 A 
ATOM      3  C   UNL     1      45.996   5.884  11.171  0.00  0.00    +0.000 A 
ATOM      4  C   UNL     1      45.538   5.324   9.975  0.00  0.00    +0.000 A 
ATOM      5  C   UNL     1      45.009   4.025   9.946  0.00  0.00    +0.000 A 
ATOM      6  C   UNL     1      44.930   3.308  11.146  0.00  0.00    +0.000 A 
ATOM      7  C   UNL     1      45.375   3.874  12.345  0.00  0.00    +0.000 A 
BRANCH   5   8
ATOM      8  C   UNL     1      44.529   3.412   8.649  0.00  0.00    +0.000 C 
BRANCH   8   9
ATOM      9  C   UNL     1      45.599   2.827   7.748  0.00  0.00    +0.000 A 
ATOM     10  C   UNL     1      46.226   1.622   8.063  0.00  0.00    +0.000 A 
ATOM     11  C   UNL     1      47.304   1.194   7.292  0.00  0.00    +0.000 A 
ATOM     12  C   UNL     1      47.732   1.974   6.227  0.00  0.00    +0.000 A 
ATOM     13  C   UNL     1      47.047   3.146   5.963  0.00  0.00    +0.000 A 
ATOM     14  N   UNL     1      46.000   3.589   6.697  0.00  0.00    +0.000 NA
ENDBRANCH   8   9
ENDBRANCH   5   8
ENDBRANCH   1   2
BRANCH   1  15
ATOM     15  N   UNL     1      47.616   6.592  13.362  0.00  0.00    +0.000 N 
ATOM     16  C   UNL     1      47.589   7.964  13.343  0.00  0.00    +0.000 C 
ATOM     17  O   UNL     1      46.612   8.614  13.702  0.00  0.00    +0.000 OA
ATOM     18  H   UNL     1      48.341   6.124  12.825  0.00  0.00    +0.000 HD
BRANCH  16  19
ATOM     19  C   UNL     1      48.822   8.630  12.918  0.00  0.00    +0.000 A 
ATOM     20  C   UNL     1      48.792   9.537  11.867  0.00  0.00    +0.000 A 
ATOM     21  S   UNL     1      50.322  10.193  11.495  0.00  0.00    +0.000 S 
ATOM     22  C   UNL     1      51.080   9.246  12.690  0.00  0.00    +0.000 A 
ATOM     23  N   UNL     1      52.428   9.283  12.862  0.00  0.00    +0.000 NA
ATOM     24  C   UNL     1      52.869   8.482  13.775  0.00  0.00    +0.000 A 
ATOM     25  N   UNL     1      52.082   7.664  14.544  0.00  0.00    +0.000 N 
ATOM     26  C   UNL     1      50.712   7.635  14.441  0.00  0.00    +0.000 A 
ATOM     27  O   UNL     1      50.025   6.965  15.208  0.00  0.00    +0.000 OA
ATOM     28  C   UNL     1      50.173   8.479  13.395  0.00  0.00    +0.000 A 
ATOM     29  H   UNL     1      52.488   7.085  15.265  0.00  0.00    +0.000 HD
ENDBRANCH  16  19
ENDBRANCH   1  15
BRANCH   1  30
ATOM     30  C   UNL     1      46.724   4.708  14.761  0.00  0.00    +0.000 C 
BRANCH  30  31
ATOM     31  N   UNL     1      47.848   5.018  15.654  0.00  0.00    +0.000 NA
ATOM     32  H   UNL     1      47.749   5.979  15.982  0.00  0.00    +0.000 HD
ATOM     33  H   UNL     1      48.720   4.987  15.122  0.00  0.00    +0.000 HD
ENDBRANCH  30  31
ENDBRANCH   1  30
TORSDOF 7
ENDMDL
MODEL 4
REMARK VINA RESULT:    -7.177      2.246      4.193
REMARK INTER + INTRA:         -10.865
REMARK INTER:                 -10.338
REMARK INTRA:                  -0.527
REMARK UNBOUND:                -0.960
REMARK  Name = 
REMARK  7 active torsions:
REMARK  status: ('A' for Active; 'I' for Inactive)
REMARK    1  A    between atoms: N_1  and  C_2
REMARK    2  A    between atoms: C_2  and  C_3
REMARK    3  A    between atoms: C_3  and  N_4
REMARK    4  A    between atoms: C_3  and  C_17
REMARK    5  A    between atoms: C_5  and  C_7
REMARK    6  A    between atoms: C_20  and  C_21
REMARK    7  A    between atoms: C_21  and  C_22
REMARK                            x       y       z     vdW  Elec       q    Type
REMARK                         _______ _______ _______ _____ _____    ______ ____
ROOT
ATOM      1  C   UNL     1      46.664   5.142  14.494  0.00  0.00    +0.000 C 
ENDROOT
BRANCH   1   2
ATOM      2  C   UNL     1      46.074   4.839  13.117  0.00  0.00    +0.000 A 
ATOM      3  C   UNL     1      46.121   5.805  12.103  0.00  0.00    +0.000 A 
ATOM      4  C   UNL     1      45.599   5.535  10.834  0.00  0.00    +0.000 A 
ATOM      5  C   UNL     1      45.035   4.285  10.540  0.00  0.00    +0.000 A 
ATOM      6  C   UNL     1      44.986   3.318  11.552  0.00  0.00    +0.000 A 
ATOM      7  C   UNL     1      45.495   3.593  12.825  0.00  0.00    +0.000 A 
BRANCH   5   8
ATOM      8  C   UNL     1      44.487   3.987   9.162  0.00  0.00    +0.000 C 
BRANCH   8   9
ATOM      9  C   UNL     1      45.407   3.231   8.223  0.00  0.00    +0.000 A 
ATOM     10  C   UNL     1      45.738   1.897   8.458  0.00  0.00    +0.000 A 
ATOM     11  C   UNL     1      46.700   1.284   7.660  0.00  0.00    +0.000 A 
ATOM     12  C   UNL     1      47.309   2.012   6.646  0.00  0.00    +0.000 A 
ATOM     13  C   UNL     1      46.913   3.325   6.461  0.00  0.00    +0.000 A 
ATOM     14  N   UNL     1      45.985   3.947   7.224  0.00  0.00    +0.000 NA
ENDBRANCH   8   9
ENDBRANCH   5   8
ENDBRANCH   1   2
BRANCH   1  15
ATOM     15  N   UNL     1      47.517   6.320  14.386  0.00  0.00    +0.000 N 
ATOM     16  C   UNL     1      48.564   6.556  15.240  0.00  0.00    +0.000 C 
ATOM     17  O   UNL     1      48.938   5.739  16.076  0.00  0.00    +0.000 OA
ATOM     18  H   UNL     1      47.107   7.116  13.906  0.00  0.00    +0.000 HD
BRANCH  16  19
ATOM     19  C   UNL     1      49.265   7.831  15.069  0.00  0.00    +0.000 A 
ATOM     20  C   UNL     1      49.483   8.654  16.165  0.00  0.00    +0.000 A 
ATOM     21  S   UNL     1      50.288  10.106  15.774  0.00  0.00    +0.000 S 
ATOM     22  C   UNL     1      50.323   9.705  14.119  0.00  0.00    +0.000 A 
ATOM     23  N   UNL     1      50.835  10.565  13.200  0.00  0.00    +0.000 NA
ATOM     24  C   UNL     1      50.758  10.147  11.980  0.00  0.00    +0.000 A 
ATOM     25  N   UNL     1      50.233   8.939  11.599  0.00  0.00    +0.000 N 
ATOM     26  C   UNL     1      49.755   8.016  12.498  0.00  0.00    +0.000 A 
ATOM     27  O   UNL     1      49.381   6.904  12.138  0.00  0.00    +0.000 OA
ATOM     28  C   UNL     1      49.774   8.460  13.877  0.00  0.00    +0.000 A 
ATOM     29  H   UNL     1      50.232   8.659  10.629  0.00  0.00    +0.000 HD
ENDBRANCH  16  19
ENDBRANCH   1  15
BRANCH   1  30
ATOM     30  C   UNL     1      47.416   3.914  15.092  0.00  0.00    +0.000 C 
BRANCH  30  31
ATOM     31  N   UNL     1      46.959   3.503  16.426  0.00  0.00    +0.000 NA
ATOM     32  H   UNL     1      46.217   4.135  16.726  0.00  0.00    +0.000 HD
ATOM     33  H   UNL     1      47.721   3.621  17.096  0.00  0.00    +0.000 HD
ENDBRANCH  30  31
ENDBRANCH   1  30
TORSDOF 7
ENDMDL
MODEL 5
REMARK VINA RESULT:    -7.121      3.160      7.780
REMARK INTER + INTRA:         -10.788
REMARK INTER:                  -9.589
REMARK INTRA:                  -1.199
REMARK UNBOUND:                -0.960
REMARK  Name = 
REMARK  7 active torsions:
REMARK  status: ('A' for Active; 'I' for Inactive)
REMARK    1  A    between atoms: N_1  and  C_2
REMARK    2  A    between atoms: C_2  and  C_3
REMARK    3  A    between atoms: C_3  and  N_4
REMARK    4  A    between atoms: C_3  and  C_17
REMARK    5  A    between atoms: C_5  and  C_7
REMARK    6  A    between atoms: C_20  and  C_21
REMARK    7  A    between atoms: C_21  and  C_22
REMARK                            x       y       z     vdW  Elec       q    Type
REMARK                         _______ _______ _______ _____ _____    ______ ____
ROOT
ATOM      1  C   UNL     1      48.221   7.470  13.400  0.00  0.00    +0.000 C 
ENDROOT
BRANCH   1   2
ATOM      2  C   UNL     1      48.658   6.743  14.670  0.00  0.00    +0.000 A 
ATOM      3  C   UNL     1      47.877   5.701  15.190  0.00  0.00    +0.000 A 
ATOM      4  C   UNL     1      48.275   5.016  16.343  0.00  0.00    +0.000 A 
ATOM      5  C   UNL     1      49.473   5.342  16.995  0.00  0.00    +0.000 A 
ATOM      6  C   UNL     1      50.254   6.383  16.479  0.00  0.00    +0.000 A 
ATOM      7  C   UNL     1      49.849   7.078  15.334  0.00  0.00    +0.000 A 
BRANCH   5   8
ATOM      8  C   UNL     1      49.911   4.590  18.232  0.00  0.00    +0.000 C 
BRANCH   8   9
ATOM      9  C   UNL     1      50.944   3.501  18.023  0.00  0.00    +0.000 A 
ATOM     10  C   UNL     1      50.614   2.308  17.378  0.00  0.00    +0.000 A 
ATOM     11  C   UNL     1      51.547   1.275  17.339  0.00  0.00    +0.000 A 
ATOM     12  C   UNL     1      52.786   1.453  17.939  0.00  0.00    +0.000 A 
ATOM     13  C   UNL     1      53.048   2.670  18.541  0.00  0.00    +0.000 A 
ATOM     14  N   UNL     1      52.160   3.689  18.599  0.00  0.00    +0.000 NA
ENDBRANCH   8   9
ENDBRANCH   5   8
ENDBRANCH   1   2
BRANCH   1  15
ATOM     15  N   UNL     1      47.548   6.515  12.525  0.00  0.00    +0.000 N 
ATOM     16  C   UNL     1      46.408   6.827  11.827  0.00  0.00    +0.000 C 
ATOM     17  O   UNL     1      45.942   7.962  11.790  0.00  0.00    +0.000 OA
ATOM     18  H   UNL     1      47.732   5.536  12.721  0.00  0.00    +0.000 HD
BRANCH  16  19
ATOM     19  C   UNL     1      45.793   5.735  11.071  0.00  0.00    +0.000 A 
ATOM     20  C   UNL     1      45.884   5.714   9.686  0.00  0.00    +0.000 A 
ATOM     21  S   UNL     1      45.088   4.383   8.974  0.00  0.00    +0.000 S 
ATOM     22  C   UNL     1      44.551   3.823  10.490  0.00  0.00    +0.000 A 
ATOM     23  N   UNL     1      43.751   2.730  10.590  0.00  0.00    +0.000 NA
ATOM     24  C   UNL     1      43.388   2.445  11.796  0.00  0.00    +0.000 A 
ATOM     25  N   UNL     1      43.768   3.143  12.913  0.00  0.00    +0.000 N 
ATOM     26  C   UNL     1      44.619   4.221  12.864  0.00  0.00    +0.000 A 
ATOM     27  O   UNL     1      45.021   4.768  13.888  0.00  0.00    +0.000 OA
ATOM     28  C   UNL     1      45.015   4.611  11.527  0.00  0.00    +0.000 A 
ATOM     29  H   UNL     1      43.474   2.848  13.833  0.00  0.00    +0.000 HD
ENDBRANCH  16  19
ENDBRANCH   1  15
BRANCH   1  30
ATOM     30  C   UNL     1      49.412   8.188  12.695  0.00  0.00    +0.000 C 
BRANCH  30  31
ATOM     31  N   UNL     1      50.204   7.332  11.803  0.00  0.00    +0.000 NA
ATOM     32  H   UNL     1      50.707   7.925  11.143  0.00  0.00    +0.000 HD
ATOM     33  H   UNL     1      49.575   6.753  11.243  0.00  0.00    +0.000 HD
ENDBRANCH  30  31
ENDBRANCH   1  30
TORSDOF 7
ENDMDL
MODEL 6
REMARK VINA RESULT:    -6.771      3.710      8.281
REMARK INTER + INTRA:         -10.304
REMARK INTER:                  -9.346
REMARK INTRA:                  -0.959
REMARK UNBOUND:                -0.960
REMARK  Name = 
REMARK  7 active torsions:
REMARK  status: ('A' for Active; 'I' for Inactive)
REMARK    1  A    between atoms: N_1  and  C_2
REMARK    2  A    between atoms: C_2  and  C_3
REMARK    3  A    between atoms: C_3  and  N_4
REMARK    4  A    between atoms: C_3  and  C_17
REMARK    5  A    between atoms: C_5  and  C_7
REMARK    6  A    between atoms: C_20  and  C_21
REMARK    7  A    between atoms: C_21  and  C_22
REMARK                            x       y       z     vdW  Elec       q    Type
REMARK                         _______ _______ _______ _____ _____    ______ ____
ROOT
ATOM      1  C   UNL     1      47.809   4.027  16.533  0.00  0.00    +0.000 C 
ENDROOT
BRANCH   1   2
ATOM      2  C   UNL     1      49.186   4.648  16.759  0.00  0.00    +0.000 A 
ATOM      3  C   UNL     1      50.211   3.896  17.351  0.00  0.00    +0.000 A 
ATOM      4  C   UNL     1      51.481   4.448  17.548  0.00  0.00    +0.000 A 
ATOM      5  C   UNL     1      51.765   5.759  17.141  0.00  0.00    +0.000 A 
ATOM      6  C   UNL     1      50.744   6.513  16.551  0.00  0.00    +0.000 A 
ATOM      7  C   UNL     1      49.470   5.967  16.367  0.00  0.00    +0.000 A 
BRANCH   5   8
ATOM      8  C   UNL     1      53.144   6.350  17.339  0.00  0.00    +0.000 C 
BRANCH   8   9
ATOM      9  C   UNL     1      54.022   6.430  16.106  0.00  0.00    +0.000 A 
ATOM     10  C   UNL     1      53.769   7.362  15.100  0.00  0.00    +0.000 A 
ATOM     11  C   UNL     1      54.504   7.305  13.919  0.00  0.00    +0.000 A 
ATOM     12  C   UNL     1      55.474   6.325  13.767  0.00  0.00    +0.000 A 
ATOM     13  C   UNL     1      55.683   5.448  14.817  0.00  0.00    +0.000 A 
ATOM     14  N   UNL     1      54.981   5.477  15.973  0.00  0.00    +0.000 NA
ENDBRANCH   8   9
ENDBRANCH   5   8
ENDBRANCH   1   2
BRANCH   1  15
ATOM     15  N   UNL     1      47.088   4.836  15.557  0.00  0.00    +0.000 N 
ATOM     16  C   UNL     1      46.879   4.424  14.264  0.00  0.00    +0.000 C 
ATOM     17  O   UNL     1      47.172   3.299  13.870  0.00  0.00    +0.000 OA
ATOM     18  H   UNL     1      47.061   5.833  15.747  0.00  0.00    +0.000 HD
BRANCH  16  19
ATOM     19  C   UNL     1      46.228   5.387  13.375  0.00  0.00    +0.000 A 
ATOM     20  C   UNL     1      46.849   6.595  13.089  0.00  0.00    +0.000 A 
ATOM     21  S   UNL     1      45.934   7.601  12.058  0.00  0.00    +0.000 S 
ATOM     22  C   UNL     1      44.656   6.477  12.005  0.00  0.00    +0.000 A 
ATOM     23  N   UNL     1      43.510   6.750  11.329  0.00  0.00    +0.000 NA
ATOM     24  C   UNL     1      42.611   5.825  11.409  0.00  0.00    +0.000 A 
ATOM     25  N   UNL     1      42.763   4.645  12.090  0.00  0.00    +0.000 N 
ATOM     26  C   UNL     1      43.924   4.303  12.742  0.00  0.00    +0.000 A 
ATOM     27  O   UNL     1      44.068   3.200  13.260  0.00  0.00    +0.000 OA
ATOM     28  C   UNL     1      44.945   5.331  12.722  0.00  0.00    +0.000 A 
ATOM     29  H   UNL     1      42.032   3.948  12.087  0.00  0.00    +0.000 HD
ENDBRANCH  16  19
ENDBRANCH   1  15
BRANCH   1  30
ATOM     30  C   UNL     1      47.018   3.854  17.866  0.00  0.00    +0.000 C 
BRANCH  30  31
ATOM     31  N   UNL     1      46.605   5.112  18.503  0.00  0.00    +0.000 NA
ATOM     32  H   UNL     1      46.015   5.629  17.852  0.00  0.00    +0.000 HD
ATOM     33  H   UNL     1      47.429   5.694  18.665  0.00  0.00    +0.000 HD
ENDBRANCH  30  31
ENDBRANCH   1  30
TORSDOF 7
ENDMDL
MODEL 7
REMARK VINA RESULT:    -6.768      3.001      8.126
REMARK INTER + INTRA:         -10.300
REMARK INTER:                  -9.381
REMARK INTRA:                  -0.919
REMARK UNBOUND:                -0.960
REMARK  Name = 
REMARK  7 active torsions:
REMARK  status: ('A' for Active; 'I' for Inactive)
REMARK    1  A    between atoms: N_1  and  C_2
REMARK    2  A    between atoms: C_2  and  C_3
REMARK    3  A    between atoms: C_3  and  N_4
REMARK    4  A    between atoms: C_3  and  C_17
REMARK    5  A    between atoms: C_5  and  C_7
REMARK    6  A    between atoms: C_20  and  C_21
REMARK    7  A    between atoms: C_21  and  C_22
REMARK                            x       y       z     vdW  Elec       q    Type
REMARK                         _______ _______ _______ _____ _____    ______ ____
ROOT
ATOM      1  C   UNL     1      47.533   6.937  13.389  0.00  0.00    +0.000 C 
ENDROOT
BRANCH   1   2
ATOM      2  C   UNL     1      48.098   6.340  14.676  0.00  0.00    +0.000 A 
ATOM      3  C   UNL     1      47.548   5.164  15.208  0.00  0.00    +0.000 A 
ATOM      4  C   UNL     1      48.067   4.599  16.377  0.00  0.00    +0.000 A 
ATOM      5  C   UNL     1      49.160   5.181  17.034  0.00  0.00    +0.000 A 
ATOM      6  C   UNL     1      49.710   6.356  16.506  0.00  0.00    +0.000 A 
ATOM      7  C   UNL     1      49.182   6.930  15.345  0.00  0.00    +0.000 A 
BRANCH   5   8
ATOM      8  C   UNL     1      49.732   4.559  18.289  0.00  0.00    +0.000 C 
BRANCH   8   9
ATOM      9  C   UNL     1      50.869   3.577  18.092  0.00  0.00    +0.000 A 
ATOM     10  C   UNL     1      50.667   2.362  17.438  0.00  0.00    +0.000 A 
ATOM     11  C   UNL     1      51.697   1.425  17.409  0.00  0.00    +0.000 A 
ATOM     12  C   UNL     1      52.904   1.720  18.028  0.00  0.00    +0.000 A 
ATOM     13  C   UNL     1      53.036   2.954  18.639  0.00  0.00    +0.000 A 
ATOM     14  N   UNL     1      52.052   3.881  18.687  0.00  0.00    +0.000 NA
ENDBRANCH   8   9
ENDBRANCH   5   8
ENDBRANCH   1   2
BRANCH   1  15
ATOM     15  N   UNL     1      46.787   5.901  12.683  0.00  0.00    +0.000 N 
ATOM     16  C   UNL     1      45.419   5.922  12.569  0.00  0.00    +0.000 C 
ATOM     17  O   UNL     1      44.736   6.871  12.943  0.00  0.00    +0.000 OA
ATOM     18  H   UNL     1      47.257   5.005  12.593  0.00  0.00    +0.000 HD
BRANCH  16  19
ATOM     19  C   UNL     1      44.806   4.762  11.920  0.00  0.00    +0.000 A 
ATOM     20  C   UNL     1      44.016   3.891  12.659  0.00  0.00    +0.000 A 
ATOM     21  S   UNL     1      43.408   2.585  11.746  0.00  0.00    +0.000 S 
ATOM     22  C   UNL     1      44.224   3.113  10.347  0.00  0.00    +0.000 A 
ATOM     23  N   UNL     1      44.173   2.395   9.194  0.00  0.00    +0.000 NA
ATOM     24  C   UNL     1      44.872   2.892   8.228  0.00  0.00    +0.000 A 
ATOM     25  N   UNL     1      45.601   4.050   8.305  0.00  0.00    +0.000 N 
ATOM     26  C   UNL     1      45.637   4.835   9.433  0.00  0.00    +0.000 A 
ATOM     27  O   UNL     1      46.219   5.916   9.443  0.00  0.00    +0.000 OA
ATOM     28  C   UNL     1      44.908   4.294  10.562  0.00  0.00    +0.000 A 
ATOM     29  H   UNL     1      46.101   4.401   7.501  0.00  0.00    +0.000 HD
ENDBRANCH  16  19
ENDBRANCH   1  15
BRANCH   1  30
ATOM     30  C   UNL     1      48.644   7.579  12.503  0.00  0.00    +0.000 C 
BRANCH  30  31
ATOM     31  N   UNL     1      49.782   6.698  12.210  0.00  0.00    +0.000 NA
ATOM     32  H   UNL     1      50.251   6.468  13.085  0.00  0.00    +0.000 HD
ATOM     33  H   UNL     1      50.465   7.206  11.645  0.00  0.00    +0.000 HD
ENDBRANCH  30  31
ENDBRANCH   1  30
TORSDOF 7
ENDMDL
MODEL 8
REMARK VINA RESULT:    -6.561      4.114      8.708
REMARK INTER + INTRA:         -10.015
REMARK INTER:                  -9.346
REMARK INTRA:                  -0.669
REMARK UNBOUND:                -0.960
REMARK  Name = 
REMARK  7 active torsions:
REMARK  status: ('A' for Active; 'I' for Inactive)
REMARK    1  A    between atoms: N_1  and  C_2
REMARK    2  A    between atoms: C_2  and  C_3
REMARK    3  A    between atoms: C_3  and  N_4
REMARK    4  A    between atoms: C_3  and  C_17
REMARK    5  A    between atoms: C_5  and  C_7
REMARK    6  A    between atoms: C_20  and  C_21
REMARK    7  A    between atoms: C_21  and  C_22
REMARK                            x       y       z     vdW  Elec       q    Type
REMARK                         _______ _______ _______ _____ _____    ______ ____
ROOT
ATOM      1  C   UNL     1      47.858   3.765  17.448  0.00  0.00    +0.000 C 
ENDROOT
BRANCH   1   2
ATOM      2  C   UNL     1      49.368   3.543  17.502  0.00  0.00    +0.000 A 
ATOM      3  C   UNL     1      50.228   4.614  17.784  0.00  0.00    +0.000 A 
ATOM      4  C   UNL     1      51.612   4.420  17.852  0.00  0.00    +0.000 A 
ATOM      5  C   UNL     1      52.169   3.148  17.661  0.00  0.00    +0.000 A 
ATOM      6  C   UNL     1      51.313   2.077  17.378  0.00  0.00    +0.000 A 
ATOM      7  C   UNL     1      49.931   2.273  17.295  0.00  0.00    +0.000 A 
BRANCH   5   8
ATOM      8  C   UNL     1      53.665   2.936  17.752  0.00  0.00    +0.000 C 
BRANCH   8   9
ATOM      9  C   UNL     1      54.141   1.497  17.721  0.00  0.00    +0.000 A 
ATOM     10  C   UNL     1      54.564   0.903  16.533  0.00  0.00    +0.000 A 
ATOM     11  C   UNL     1      54.851  -0.460  16.517  0.00  0.00    +0.000 A 
ATOM     12  C   UNL     1      54.711  -1.198  17.684  0.00  0.00    +0.000 A 
ATOM     13  C   UNL     1      54.307  -0.535  18.829  0.00  0.00    +0.000 A 
ATOM     14  N   UNL     1      54.017   0.786  18.872  0.00  0.00    +0.000 NA
ENDBRANCH   8   9
ENDBRANCH   5   8
ENDBRANCH   1   2
BRANCH   1  15
ATOM     15  N   UNL     1      47.553   4.616  16.302  0.00  0.00    +0.000 N 
ATOM     16  C   UNL     1      47.473   4.130  15.021  0.00  0.00    +0.000 C 
ATOM     17  O   UNL     1      47.528   2.932  14.759  0.00  0.00    +0.000 OA
ATOM     18  H   UNL     1      47.753   5.604  16.424  0.00  0.00    +0.000 HD
BRANCH  16  19
ATOM     19  C   UNL     1      47.259   5.122  13.965  0.00  0.00    +0.000 A 
ATOM     20  C   UNL     1      47.977   6.310  13.975  0.00  0.00    +0.000 A 
ATOM     21  S   UNL     1      47.580   7.354  12.686  0.00  0.00    +0.000 S 
ATOM     22  C   UNL     1      46.397   6.276  12.105  0.00  0.00    +0.000 A 
ATOM     23  N   UNL     1      45.625   6.593  11.033  0.00  0.00    +0.000 NA
ATOM     24  C   UNL     1      44.743   5.700  10.730  0.00  0.00    +0.000 A 
ATOM     25  N   UNL     1      44.576   4.510  11.390  0.00  0.00    +0.000 N 
ATOM     26  C   UNL     1      45.370   4.124  12.444  0.00  0.00    +0.000 A 
ATOM     27  O   UNL     1      45.262   3.012  12.953  0.00  0.00    +0.000 OA
ATOM     28  C   UNL     1      46.342   5.115  12.854  0.00  0.00    +0.000 A 
ATOM     29  H   UNL     1      43.887   3.839  11.081  0.00  0.00    +0.000 HD
ENDBRANCH  16  19
ENDBRANCH   1  15
BRANCH   1  30
ATOM     30  C   UNL     1      47.301   4.343  18.785  0.00  0.00    +0.000 C 
BRANCH  30  31
ATOM     31  N   UNL     1      46.453   5.532  18.635  0.00  0.00    +0.000 NA
ATOM     32  H   UNL     1      45.683   5.306  18.006  0.00  0.00    +0.000 HD
ATOM     33  H   UNL     1      46.988   6.273  18.176  0.00  0.00    +0.000 HD
ENDBRANCH  30  31
ENDBRANCH   1  30
TORSDOF 7
ENDMDL
MODEL 9
REMARK VINA RESULT:    -6.550      3.899      6.407
REMARK INTER + INTRA:          -9.999
REMARK INTER:                  -8.895
REMARK INTRA:                  -1.104
REMARK UNBOUND:                -0.960
REMARK  Name = 
REMARK  7 active torsions:
REMARK  status: ('A' for Active; 'I' for Inactive)
REMARK    1  A    between atoms: N_1  and  C_2
REMARK    2  A    between atoms: C_2  and  C_3
REMARK    3  A    between atoms: C_3  and  N_4
REMARK    4  A    between atoms: C_3  and  C_17
REMARK    5  A    between atoms: C_5  and  C_7
REMARK    6  A    between atoms: C_20  and  C_21
REMARK    7  A    between atoms: C_21  and  C_22
REMARK                            x       y       z     vdW  Elec       q    Type
REMARK                         _______ _______ _______ _____ _____    ______ ____
ROOT
ATOM      1  C   UNL     1      48.801   4.473  17.658  0.00  0.00    +0.000 C 
ENDROOT
BRANCH   1   2
ATOM      2  C   UNL     1      48.267   4.909  16.295  0.00  0.00    +0.000 A 
ATOM      3  C   UNL     1      48.686   6.121  15.728  0.00  0.00    +0.000 A 
ATOM      4  C   UNL     1      48.217   6.524  14.474  0.00  0.00    +0.000 A 
ATOM      5  C   UNL     1      47.332   5.717  13.744  0.00  0.00    +0.000 A 
ATOM      6  C   UNL     1      46.911   4.506  14.308  0.00  0.00    +0.000 A 
ATOM      7  C   UNL     1      47.369   4.110  15.569  0.00  0.00    +0.000 A 
BRANCH   5   8
ATOM      8  C   UNL     1      46.838   6.145  12.380  0.00  0.00    +0.000 C 
BRANCH   8   9
ATOM      9  C   UNL     1      45.444   5.689  11.999  0.00  0.00    +0.000 A 
ATOM     10  C   UNL     1      44.359   5.899  12.849  0.00  0.00    +0.000 A 
ATOM     11  C   UNL     1      43.126   5.336  12.532  0.00  0.00    +0.000 A 
ATOM     12  C   UNL     1      43.000   4.578  11.376  0.00  0.00    +0.000 A 
ATOM     13  C   UNL     1      44.116   4.431  10.571  0.00  0.00    +0.000 A 
ATOM     14  N   UNL     1      45.327   4.963  10.856  0.00  0.00    +0.000 NA
ENDBRANCH   8   9
ENDBRANCH   5   8
ENDBRANCH   1   2
BRANCH   1  15
ATOM     15  N   UNL     1      50.176   4.014  17.493  0.00  0.00    +0.000 N 
ATOM     16  C   UNL     1      51.132   4.175  18.465  0.00  0.00    +0.000 C 
ATOM     17  O   UNL     1      50.874   4.604  19.586  0.00  0.00    +0.000 OA
ATOM     18  H   UNL     1      50.490   3.900  16.533  0.00  0.00    +0.000 HD
BRANCH  16  19
ATOM     19  C   UNL     1      52.489   3.754  18.114  0.00  0.00    +0.000 A 
ATOM     20  C   UNL     1      53.523   4.680  18.109  0.00  0.00    +0.000 A 
ATOM     21  S   UNL     1      55.026   4.017  17.652  0.00  0.00    +0.000 S 
ATOM     22  C   UNL     1      54.334   2.483  17.395  0.00  0.00    +0.000 A 
ATOM     23  N   UNL     1      55.079   1.447  16.928  0.00  0.00    +0.000 NA
ATOM     24  C   UNL     1      54.413   0.355  16.742  0.00  0.00    +0.000 A 
ATOM     25  N   UNL     1      53.075   0.201  16.998  0.00  0.00    +0.000 N 
ATOM     26  C   UNL     1      52.296   1.205  17.522  0.00  0.00    +0.000 A 
ATOM     27  O   UNL     1      51.124   1.011  17.833  0.00  0.00    +0.000 OA
ATOM     28  C   UNL     1      52.986   2.466  17.702  0.00  0.00    +0.000 A 
ATOM     29  H   UNL     1      52.621  -0.690  16.861  0.00  0.00    +0.000 HD
ENDBRANCH  16  19
ENDBRANCH   1  15
BRANCH   1  30
ATOM     30  C   UNL     1      47.890   3.401  18.329  0.00  0.00    +0.000 C 
BRANCH  30  31
ATOM     31  N   UNL     1      48.255   3.063  19.711  0.00  0.00    +0.000 NA
ATOM     32  H   UNL     1      48.910   2.282  19.694  0.00  0.00    +0.000 HD
ATOM     33  H   UNL     1      47.426   2.729  20.207  0.00  0.00    +0.000 HD
ENDBRANCH  30  31
ENDBRANCH   1  30
TORSDOF 7
ENDMDL
