MODEL 1
REMARK VINA RESULT:    -7.623      0.000      0.000
REMARK INTER + INTRA:         -10.531
REMARK INTER:                  -9.852
REMARK INTRA:                  -0.679
REMARK UNBOUND:                -0.679
REMARK  Name = 
REMARK  6 active torsions:
REMARK  status: ('A' for Active; 'I' for Inactive)
REMARK    1  A    between atoms: C_1  and  O_2
REMARK    2  A    between atoms: O_2  and  C_3
REMARK    3  A    between atoms: N_6  and  C_7
REMARK    4  A    between atoms: C_7  and  C_8
REMARK    5  A    between atoms: C_12  and  C_13
REMARK    6  A    between atoms: C_20  and  C_21
REMARK                            x       y       z     vdW  Elec       q    Type
REMARK                         _______ _______ _______ _____ _____    ______ ____
ROOT
ATOM      1  C   UNL     1      46.049   6.039  12.730  0.00  0.00    +0.000 A 
ATOM      2  N   UNL     1      45.246   5.036  12.278  0.00  0.00    +0.000 NA
ATOM      3  C   UNL     1      45.466   3.780  12.711  0.00  0.00    +0.000 A 
ATOM      4  N   UNL     1      44.737   2.722  12.188  0.00  0.00    +0.000 N 
ATOM      5  C   UNL     1      46.495   3.502  13.603  0.00  0.00    +0.000 A 
ATOM      6  C   UNL     1      47.325   4.532  14.047  0.00  0.00    +0.000 A 
ATOM      7  C   UNL     1      47.111   5.842  13.610  0.00  0.00    +0.000 A 
ATOM      8  H   UNL     1      44.379   2.058  12.862  0.00  0.00    +0.000 HD
ENDROOT
BRANCH   7   9
ATOM      9  C   UNL     1      48.036   6.894  14.115  0.00  0.00    +0.000 C 
ATOM     10  N   UNL     1      47.536   8.126  14.415  0.00  0.00    +0.000 N 
ATOM     11  O   UNL     1      49.230   6.664  14.263  0.00  0.00    +0.000 OA
ATOM     12  H   UNL     1      46.559   8.359  14.293  0.00  0.00    +0.000 HD
ATOM     13  H   UNL     1      48.176   8.834  14.748  0.00  0.00    +0.000 HD
ENDBRANCH   7   9
BRANCH   1  15
ATOM     14  C   UNL     1      44.610   7.403  11.470  0.00  0.00    +0.000 C 
ATOM     15  O   UNL     1      45.793   7.316  12.262  0.00  0.00    +0.000 OA
ENDBRANCH   1  15
BRANCH   4  16
ATOM     16  C   UNL     1      43.981   2.896  10.964  0.00  0.00    +0.000 C 
BRANCH  16  17
ATOM     17  C   UNL     1      44.840   3.086   9.736  0.00  0.00    +0.000 A 
ATOM     18  C   UNL     1      44.860   4.318   9.074  0.00  0.00    +0.000 A 
ATOM     19  C   UNL     1      45.549   4.431   7.880  0.00  0.00    +0.000 A 
ATOM     20  N   UNL     1      46.220   3.411   7.304  0.00  0.00    +0.000 NA
ATOM     21  C   UNL     1      46.215   2.207   7.946  0.00  0.00    +0.000 A 
ATOM     22  C   UNL     1      45.543   2.020   9.160  0.00  0.00    +0.000 A 
BRANCH  21  23
ATOM     23  C   UNL     1      46.930   1.024   7.305  0.00  0.00    +0.000 C 
ATOM     24  F   UNL     1      46.603  -0.190   7.836  0.00  0.00    +0.000 F 
ATOM     25  F   UNL     1      46.681   0.921   5.967  0.00  0.00    +0.000 F 
ATOM     26  F   UNL     1      48.289   1.117   7.415  0.00  0.00    +0.000 F 
ENDBRANCH  21  23
ENDBRANCH  16  17
ENDBRANCH   4  16
TORSDOF 5
ENDMDL
MODEL 2
REMARK VINA RESULT:    -7.220      1.772      2.845
REMARK INTER + INTRA:         -10.010
REMARK INTER:                  -9.229
REMARK INTRA:                  -0.781
REMARK UNBOUND:                -0.679
REMARK  Name = 
REMARK  6 active torsions:
REMARK  status: ('A' for Active; 'I' for Inactive)
REMARK    1  A    between atoms: C_1  and  O_2
REMARK    2  A    between atoms: O_2  and  C_3
REMARK    3  A    between atoms: N_6  and  C_7
REMARK    4  A    between atoms: C_7  and  C_8
REMARK    5  A    between atoms: C_12  and  C_13
REMARK    6  A    between atoms: C_20  and  C_21
REMARK                            x       y       z     vdW  Elec       q    Type
REMARK                         _______ _______ _______ _____ _____    ______ ____
ROOT
ATOM      1  C   UNL     1      47.041   5.592  13.553  0.00  0.00    +0.000 A 
ATOM      2  N   UNL     1      46.142   5.537  12.530  0.00  0.00    +0.000 NA
ATOM      3  C   UNL     1      45.959   6.629  11.764  0.00  0.00    +0.000 A 
ATOM      4  N   UNL     1      44.976   6.640  10.786  0.00  0.00    +0.000 N 
ATOM      5  C   UNL     1      46.668   7.799  12.008  0.00  0.00    +0.000 A 
ATOM      6  C   UNL     1      47.573   7.854  13.070  0.00  0.00    +0.000 A 
ATOM      7  C   UNL     1      47.778   6.730  13.873  0.00  0.00    +0.000 A 
ATOM      8  H   UNL     1      45.252   7.017   9.888  0.00  0.00    +0.000 HD
ENDROOT
BRANCH   7   9
ATOM      9  C   UNL     1      48.751   6.855  14.993  0.00  0.00    +0.000 C 
ATOM     10  N   UNL     1      48.293   6.811  16.276  0.00  0.00    +0.000 N 
ATOM     11  O   UNL     1      49.948   6.996  14.775  0.00  0.00    +0.000 OA
ATOM     12  H   UNL     1      47.311   6.711  16.497  0.00  0.00    +0.000 HD
ATOM     13  H   UNL     1      48.962   6.908  17.027  0.00  0.00    +0.000 HD
ENDBRANCH   7   9
BRANCH   1  15
ATOM     14  C   UNL     1      46.815   3.256  13.642  0.00  0.00    +0.000 C 
ATOM     15  O   UNL     1      47.201   4.451  14.318  0.00  0.00    +0.000 OA
ENDBRANCH   1  15
BRANCH   4  16
ATOM     16  C   UNL     1      43.937   5.631  10.789  0.00  0.00    +0.000 C 
BRANCH  16  17
ATOM     17  C   UNL     1      44.304   4.373  10.036  0.00  0.00    +0.000 A 
ATOM     18  C   UNL     1      43.858   3.127  10.487  0.00  0.00    +0.000 A 
ATOM     19  C   UNL     1      44.312   1.980   9.860  0.00  0.00    +0.000 A 
ATOM     20  N   UNL     1      45.170   1.988   8.819  0.00  0.00    +0.000 NA
ATOM     21  C   UNL     1      45.604   3.198   8.364  0.00  0.00    +0.000 A 
ATOM     22  C   UNL     1      45.183   4.400   8.946  0.00  0.00    +0.000 A 
BRANCH  21  23
ATOM     23  C   UNL     1      46.603   3.243   7.213  0.00  0.00    +0.000 C 
ATOM     24  F   UNL     1      46.066   2.976   5.988  0.00  0.00    +0.000 F 
ATOM     25  F   UNL     1      47.212   4.458   7.093  0.00  0.00    +0.000 F 
ATOM     26  F   UNL     1      47.618   2.342   7.372  0.00  0.00    +0.000 F 
ENDBRANCH  21  23
ENDBRANCH  16  17
ENDBRANCH   4  16
TORSDOF 5
ENDMDL
MODEL 3
REMARK VINA RESULT:    -6.798      1.725      2.303
REMARK INTER + INTRA:          -9.464
REMARK INTER:                  -8.644
REMARK INTRA:                  -0.819
REMARK UNBOUND:                -0.679
REMARK  Name = 
REMARK  6 active torsions:
REMARK  status: ('A' for Active; 'I' for Inactive)
REMARK    1  A    between atoms: C_1  and  O_2
REMARK    2  A    between atoms: O_2  and  C_3
REMARK    3  A    between atoms: N_6  and  C_7
REMARK    4  A    between atoms: C_7  and  C_8
REMARK    5  A    between atoms: C_12  and  C_13
REMARK    6  A    between atoms: C_20  and  C_21
REMARK                            x       y       z     vdW  Elec       q    Type
REMARK                         _______ _______ _______ _____ _____    ______ ____
ROOT
ATOM      1  C   UNL     1      47.969   7.178  12.528  0.00  0.00    +0.000 A 
ATOM      2  N   UNL     1      46.911   6.721  11.800  0.00  0.00    +0.000 NA
ATOM      3  C   UNL     1      46.115   5.775  12.331  0.00  0.00    +0.000 A 
ATOM      4  N   UNL     1      45.097   5.212  11.576  0.00  0.00    +0.000 N 
ATOM      5  C   UNL     1      46.362   5.263  13.600  0.00  0.00    +0.000 A 
ATOM      6  C   UNL     1      47.459   5.722  14.331  0.00  0.00    +0.000 A 
ATOM      7  C   UNL     1      48.294   6.706  13.797  0.00  0.00    +0.000 A 
ATOM      8  H   UNL     1      44.203   5.118  12.041  0.00  0.00    +0.000 HD
ENDROOT
BRANCH   7   9
ATOM      9  C   UNL     1      49.451   7.148  14.625  0.00  0.00    +0.000 C 
ATOM     10  N   UNL     1      50.613   7.497  14.005  0.00  0.00    +0.000 N 
ATOM     11  O   UNL     1      49.368   7.199  15.846  0.00  0.00    +0.000 OA
ATOM     12  H   UNL     1      50.726   7.454  13.001  0.00  0.00    +0.000 HD
ATOM     13  H   UNL     1      51.393   7.786  14.579  0.00  0.00    +0.000 HD
ENDBRANCH   7   9
BRANCH   1  15
ATOM     14  C   UNL     1      48.115   9.412  11.817  0.00  0.00    +0.000 C 
ATOM     15  O   UNL     1      48.765   8.149  11.947  0.00  0.00    +0.000 OA
ENDBRANCH   1  15
BRANCH   4  16
ATOM     16  C   UNL     1      45.079   5.386  10.138  0.00  0.00    +0.000 C 
BRANCH  16  17
ATOM     17  C   UNL     1      45.196   4.093   9.364  0.00  0.00    +0.000 A 
ATOM     18  C   UNL     1      44.564   2.935   9.826  0.00  0.00    +0.000 A 
ATOM     19  C   UNL     1      44.792   1.736   9.174  0.00  0.00    +0.000 A 
ATOM     20  N   UNL     1      45.596   1.611   8.098  0.00  0.00    +0.000 NA
ATOM     21  C   UNL     1      46.211   2.736   7.632  0.00  0.00    +0.000 A 
ATOM     22  C   UNL     1      46.023   3.985   8.238  0.00  0.00    +0.000 A 
BRANCH  21  23
ATOM     23  C   UNL     1      47.155   2.625   6.441  0.00  0.00    +0.000 C 
ATOM     24  F   UNL     1      47.165   1.401   5.839  0.00  0.00    +0.000 F 
ATOM     25  F   UNL     1      46.862   3.521   5.454  0.00  0.00    +0.000 F 
ATOM     26  F   UNL     1      48.454   2.875   6.784  0.00  0.00    +0.000 F 
ENDBRANCH  21  23
ENDBRANCH  16  17
ENDBRANCH   4  16
TORSDOF 5
ENDMDL
MODEL 4
REMARK VINA RESULT:    -6.559      3.514      4.739
REMARK INTER + INTRA:          -9.155
REMARK INTER:                  -8.502
REMARK INTRA:                  -0.653
REMARK UNBOUND:                -0.679
REMARK  Name = 
REMARK  6 active torsions:
REMARK  status: ('A' for Active; 'I' for Inactive)
REMARK    1  A    between atoms: C_1  and  O_2
REMARK    2  A    between atoms: O_2  and  C_3
REMARK    3  A    between atoms: N_6  and  C_7
REMARK    4  A    between atoms: C_7  and  C_8
REMARK    5  A    between atoms: C_12  and  C_13
REMARK    6  A    between atoms: C_20  and  C_21
REMARK                            x       y       z     vdW  Elec       q    Type
REMARK                         _______ _______ _______ _____ _____    ______ ____
ROOT
ATOM      1  C   UNL     1      48.971   5.253  16.932  0.00  0.00    +0.000 A 
ATOM      2  N   UNL     1      47.968   5.275  16.010  0.00  0.00    +0.000 NA
ATOM      3  C   UNL     1      47.422   4.110  15.614  0.00  0.00    +0.000 A 
ATOM      4  N   UNL     1      46.477   4.089  14.599  0.00  0.00    +0.000 N 
ATOM      5  C   UNL     1      47.870   2.899  16.130  0.00  0.00    +0.000 A 
ATOM      6  C   UNL     1      48.912   2.884  17.060  0.00  0.00    +0.000 A 
ATOM      7  C   UNL     1      49.488   4.084  17.484  0.00  0.00    +0.000 A 
ATOM      8  H   UNL     1      45.662   3.514  14.769  0.00  0.00    +0.000 HD
ENDROOT
BRANCH   7   9
ATOM      9  C   UNL     1      50.599   3.999  18.473  0.00  0.00    +0.000 C 
ATOM     10  N   UNL     1      50.376   4.407  19.755  0.00  0.00    +0.000 N 
ATOM     11  O   UNL     1      51.699   3.570  18.149  0.00  0.00    +0.000 OA
ATOM     12  H   UNL     1      49.486   4.781  20.057  0.00  0.00    +0.000 HD
ATOM     13  H   UNL     1      51.141   4.354  20.413  0.00  0.00    +0.000 HD
ENDBRANCH   7   9
BRANCH   1  15
ATOM     14  C   UNL     1      48.643   7.233  18.153  0.00  0.00    +0.000 C 
ATOM     15  O   UNL     1      49.507   6.470  17.314  0.00  0.00    +0.000 OA
ENDBRANCH   1  15
BRANCH   4  16
ATOM     16  C   UNL     1      46.305   5.245  13.744  0.00  0.00    +0.000 C 
BRANCH  16  17
ATOM     17  C   UNL     1      45.298   5.042  12.636  0.00  0.00    +0.000 A 
ATOM     18  C   UNL     1      43.929   5.020  12.923  0.00  0.00    +0.000 A 
ATOM     19  C   UNL     1      43.034   4.703  11.917  0.00  0.00    +0.000 A 
ATOM     20  N   UNL     1      43.403   4.413  10.651  0.00  0.00    +0.000 NA
ATOM     21  C   UNL     1      44.735   4.441  10.357  0.00  0.00    +0.000 A 
ATOM     22  C   UNL     1      45.698   4.759  11.323  0.00  0.00    +0.000 A 
BRANCH  21  23
ATOM     23  C   UNL     1      45.190   4.083   8.947  0.00  0.00    +0.000 C 
ATOM     24  F   UNL     1      45.701   2.824   8.821  0.00  0.00    +0.000 F 
ATOM     25  F   UNL     1      44.180   4.166   8.033  0.00  0.00    +0.000 F 
ATOM     26  F   UNL     1      46.166   4.922   8.487  0.00  0.00    +0.000 F 
ENDBRANCH  21  23
ENDBRANCH  16  17
ENDBRANCH   4  16
TORSDOF 5
ENDMDL
MODEL 5
REMARK VINA RESULT:    -6.466      2.430      4.071
REMARK INTER + INTRA:          -9.036
REMARK INTER:                  -8.192
REMARK INTRA:                  -0.843
REMARK UNBOUND:                -0.679
REMARK  Name = 
REMARK  6 active torsions:
REMARK  status: ('A' for Active; 'I' for Inactive)
REMARK    1  A    between atoms: C_1  and  O_2
REMARK    2  A    between atoms: O_2  and  C_3
REMARK    3  A    between atoms: N_6  and  C_7
REMARK    4  A    between atoms: C_7  and  C_8
REMARK    5  A    between atoms: C_12  and  C_13
REMARK    6  A    between atoms: C_20  and  C_21
REMARK                            x       y       z     vdW  Elec       q    Type
REMARK                         _______ _______ _______ _____ _____    ______ ____
ROOT
ATOM      1  C   UNL     1      48.999   6.984  14.201  0.00  0.00    +0.000 A 
ATOM      2  N   UNL     1      47.814   6.640  13.622  0.00  0.00    +0.000 NA
ATOM      3  C   UNL     1      47.344   7.386  12.605  0.00  0.00    +0.000 A 
ATOM      4  N   UNL     1      46.092   7.128  12.066  0.00  0.00    +0.000 N 
ATOM      5  C   UNL     1      48.049   8.494  12.147  0.00  0.00    +0.000 A 
ATOM      6  C   UNL     1      49.252   8.851  12.758  0.00  0.00    +0.000 A 
ATOM      7  C   UNL     1      49.756   8.087  13.813  0.00  0.00    +0.000 A 
ATOM      8  H   UNL     1      46.040   7.121  11.056  0.00  0.00    +0.000 HD
ENDROOT
BRANCH   7   9
ATOM      9  C   UNL     1      51.041   8.525  14.426  0.00  0.00    +0.000 C 
ATOM     10  N   UNL     1      52.004   7.595  14.681  0.00  0.00    +0.000 N 
ATOM     11  O   UNL     1      51.239   9.703  14.700  0.00  0.00    +0.000 OA
ATOM     12  H   UNL     1      51.873   6.611  14.482  0.00  0.00    +0.000 HD
ATOM     13  H   UNL     1      52.867   7.903  15.105  0.00  0.00    +0.000 HD
ENDBRANCH   7   9
BRANCH   1  15
ATOM     14  C   UNL     1      48.730   6.398  16.459  0.00  0.00    +0.000 C 
ATOM     15  O   UNL     1      49.447   6.194  15.244  0.00  0.00    +0.000 OA
ENDBRANCH   1  15
BRANCH   4  16
ATOM     16  C   UNL     1      45.153   6.290  12.783  0.00  0.00    +0.000 C 
BRANCH  16  17
ATOM     17  C   UNL     1      44.621   5.133  11.970  0.00  0.00    +0.000 A 
ATOM     18  C   UNL     1      43.691   4.249  12.528  0.00  0.00    +0.000 A 
ATOM     19  C   UNL     1      43.317   3.125  11.813  0.00  0.00    +0.000 A 
ATOM     20  N   UNL     1      43.796   2.824  10.588  0.00  0.00    +0.000 NA
ATOM     21  C   UNL     1      44.695   3.684  10.030  0.00  0.00    +0.000 A 
ATOM     22  C   UNL     1      45.117   4.844  10.692  0.00  0.00    +0.000 A 
BRANCH  21  23
ATOM     23  C   UNL     1      45.285   3.356   8.664  0.00  0.00    +0.000 C 
ATOM     24  F   UNL     1      45.968   2.176   8.611  0.00  0.00    +0.000 F 
ATOM     25  F   UNL     1      44.335   3.277   7.687  0.00  0.00    +0.000 F 
ATOM     26  F   UNL     1      46.167   4.308   8.236  0.00  0.00    +0.000 F 
ENDBRANCH  21  23
ENDBRANCH  16  17
ENDBRANCH   4  16
TORSDOF 5
ENDMDL
MODEL 6
REMARK VINA RESULT:    -6.443      2.874      4.243
REMARK INTER + INTRA:          -9.005
REMARK INTER:                  -8.316
REMARK INTRA:                  -0.689
REMARK UNBOUND:                -0.679
REMARK  Name = 
REMARK  6 active torsions:
REMARK  status: ('A' for Active; 'I' for Inactive)
REMARK    1  A    between atoms: C_1  and  O_2
REMARK    2  A    between atoms: O_2  and  C_3
REMARK    3  A    between atoms: N_6  and  C_7
REMARK    4  A    between atoms: C_7  and  C_8
REMARK    5  A    between atoms: C_12  and  C_13
REMARK    6  A    between atoms: C_20  and  C_21
REMARK                            x       y       z     vdW  Elec       q    Type
REMARK                         _______ _______ _______ _____ _____    ______ ____
ROOT
ATOM      1  C   UNL     1      47.979   8.413  11.855  0.00  0.00    +0.000 A 
ATOM      2  N   UNL     1      46.958   7.538  12.076  0.00  0.00    +0.000 NA
ATOM      3  C   UNL     1      45.720   8.021  12.290  0.00  0.00    +0.000 A 
ATOM      4  N   UNL     1      44.682   7.164  12.625  0.00  0.00    +0.000 N 
ATOM      5  C   UNL     1      45.477   9.390  12.289  0.00  0.00    +0.000 A 
ATOM      6  C   UNL     1      46.532  10.281  12.080  0.00  0.00    +0.000 A 
ATOM      7  C   UNL     1      47.823   9.797  11.855  0.00  0.00    +0.000 A 
ATOM      8  H   UNL     1      43.810   7.315  12.135  0.00  0.00    +0.000 HD
ENDROOT
BRANCH   7   9
ATOM      9  C   UNL     1      48.904  10.799  11.645  0.00  0.00    +0.000 C 
ATOM     10  N   UNL     1      49.401  11.472  12.722  0.00  0.00    +0.000 N 
ATOM     11  O   UNL     1      49.348  11.023  10.526  0.00  0.00    +0.000 OA
ATOM     12  H   UNL     1      49.051  11.326  13.660  0.00  0.00    +0.000 HD
ATOM     13  H   UNL     1      50.127  12.156  12.566  0.00  0.00    +0.000 HD
ENDBRANCH   7   9
BRANCH   1  15
ATOM     14  C   UNL     1      49.961   7.633  12.844  0.00  0.00    +0.000 C 
ATOM     15  O   UNL     1      49.236   7.878  11.641  0.00  0.00    +0.000 OA
ENDBRANCH   1  15
BRANCH   4  16
ATOM     16  C   UNL     1      44.969   5.815  13.066  0.00  0.00    +0.000 C 
BRANCH  16  17
ATOM     17  C   UNL     1      44.515   4.746  12.098  0.00  0.00    +0.000 A 
ATOM     18  C   UNL     1      43.641   3.739  12.520  0.00  0.00    +0.000 A 
ATOM     19  C   UNL     1      43.342   2.700  11.657  0.00  0.00    +0.000 A 
ATOM     20  N   UNL     1      43.847   2.595  10.410  0.00  0.00    +0.000 NA
ATOM     21  C   UNL     1      44.694   3.577   9.984  0.00  0.00    +0.000 A 
ATOM     22  C   UNL     1      45.036   4.662  10.801  0.00  0.00    +0.000 A 
BRANCH  21  23
ATOM     23  C   UNL     1      45.311   3.471   8.595  0.00  0.00    +0.000 C 
ATOM     24  F   UNL     1      44.405   3.380   7.579  0.00  0.00    +0.000 F 
ATOM     25  F   UNL     1      46.103   4.541   8.290  0.00  0.00    +0.000 F 
ATOM     26  F   UNL     1      46.117   2.375   8.466  0.00  0.00    +0.000 F 
ENDBRANCH  21  23
ENDBRANCH  16  17
ENDBRANCH   4  16
TORSDOF 5
ENDMDL
MODEL 7
REMARK VINA RESULT:    -6.291      2.297      3.771
REMARK INTER + INTRA:          -8.809
REMARK INTER:                  -8.002
REMARK INTRA:                  -0.806
REMARK UNBOUND:                -0.679
REMARK  Name = 
REMARK  6 active torsions:
REMARK  status: ('A' for Active; 'I' for Inactive)
REMARK    1  A    between atoms: C_1  and  O_2
REMARK    2  A    between atoms: O_2  and  C_3
REMARK    3  A    between atoms: N_6  and  C_7
REMARK    4  A    between atoms: C_7  and  C_8
REMARK    5  A    between atoms: C_12  and  C_13
REMARK    6  A    between atoms: C_20  and  C_21
REMARK                            x       y       z     vdW  Elec       q    Type
REMARK                         _______ _______ _______ _____ _____    ______ ____
ROOT
ATOM      1  C   UNL     1      48.235   5.960  15.320  0.00  0.00    +0.000 A 
ATOM      2  N   UNL     1      47.297   5.902  14.333  0.00  0.00    +0.000 NA
ATOM      3  C   UNL     1      47.492   6.613  13.207  0.00  0.00    +0.000 A 
ATOM      4  N   UNL     1      46.508   6.662  12.231  0.00  0.00    +0.000 N 
ATOM      5  C   UNL     1      48.628   7.399  13.046  0.00  0.00    +0.000 A 
ATOM      6  C   UNL     1      49.574   7.469  14.070  0.00  0.00    +0.000 A 
ATOM      7  C   UNL     1      49.390   6.735  15.244  0.00  0.00    +0.000 A 
ATOM      8  H   UNL     1      46.826   6.539  11.278  0.00  0.00    +0.000 HD
ENDROOT
BRANCH   7   9
ATOM      9  C   UNL     1      50.433   6.858  16.300  0.00  0.00    +0.000 C 
ATOM     10  N   UNL     1      50.066   7.264  17.549  0.00  0.00    +0.000 N 
ATOM     11  O   UNL     1      51.606   6.599  16.060  0.00  0.00    +0.000 OA
ATOM     12  H   UNL     1      49.111   7.501  17.782  0.00  0.00    +0.000 HD
ATOM     13  H   UNL     1      50.784   7.353  18.253  0.00  0.00    +0.000 HD
ENDBRANCH   7   9
BRANCH   1  15
ATOM     14  C   UNL     1      47.571   3.883  16.193  0.00  0.00    +0.000 C 
ATOM     15  O   UNL     1      47.999   5.216  16.463  0.00  0.00    +0.000 OA
ENDBRANCH   1  15
BRANCH   4  16
ATOM     16  C   UNL     1      45.159   6.233  12.538  0.00  0.00    +0.000 C 
BRANCH  16  17
ATOM     17  C   UNL     1      44.679   5.073  11.698  0.00  0.00    +0.000 A 
ATOM     18  C   UNL     1      43.770   4.150  12.226  0.00  0.00    +0.000 A 
ATOM     19  C   UNL     1      43.445   3.025  11.488  0.00  0.00    +0.000 A 
ATOM     20  N   UNL     1      43.955   2.760  10.267  0.00  0.00    +0.000 NA
ATOM     21  C   UNL     1      44.835   3.658   9.738  0.00  0.00    +0.000 A 
ATOM     22  C   UNL     1      45.206   4.821  10.425  0.00  0.00    +0.000 A 
BRANCH  21  23
ATOM     23  C   UNL     1      45.458   3.372   8.377  0.00  0.00    +0.000 C 
ATOM     24  F   UNL     1      46.109   2.176   8.294  0.00  0.00    +0.000 F 
ATOM     25  F   UNL     1      44.537   3.361   7.369  0.00  0.00    +0.000 F 
ATOM     26  F   UNL     1      46.379   4.315   8.018  0.00  0.00    +0.000 F 
ENDBRANCH  21  23
ENDBRANCH  16  17
ENDBRANCH   4  16
TORSDOF 5
ENDMDL
MODEL 8
REMARK VINA RESULT:    -6.290      3.612      5.053
REMARK INTER + INTRA:          -8.809
REMARK INTER:                  -8.161
REMARK INTRA:                  -0.647
REMARK UNBOUND:                -0.679
REMARK  Name = 
REMARK  6 active torsions:
REMARK  status: ('A' for Active; 'I' for Inactive)
REMARK    1  A    between atoms: C_1  and  O_2
REMARK    2  A    between atoms: O_2  and  C_3
REMARK    3  A    between atoms: N_6  and  C_7
REMARK    4  A    between atoms: C_7  and  C_8
REMARK    5  A    between atoms: C_12  and  C_13
REMARK    6  A    between atoms: C_20  and  C_21
REMARK                            x       y       z     vdW  Elec       q    Type
REMARK                         _______ _______ _______ _____ _____    ______ ____
ROOT
ATOM      1  C   UNL     1      48.758   4.057  16.972  0.00  0.00    +0.000 A 
ATOM      2  N   UNL     1      47.932   4.152  15.892  0.00  0.00    +0.000 NA
ATOM      3  C   UNL     1      47.818   5.336  15.262  0.00  0.00    +0.000 A 
ATOM      4  N   UNL     1      46.906   5.494  14.229  0.00  0.00    +0.000 N 
ATOM      5  C   UNL     1      48.525   6.450  15.701  0.00  0.00    +0.000 A 
ATOM      6  C   UNL     1      49.354   6.349  16.819  0.00  0.00    +0.000 A 
ATOM      7  C   UNL     1      49.487   5.127  17.484  0.00  0.00    +0.000 A 
ATOM      8  H   UNL     1      47.249   5.975  13.408  0.00  0.00    +0.000 HD
ENDROOT
BRANCH   7   9
ATOM      9  C   UNL     1      50.382   5.088  18.674  0.00  0.00    +0.000 C 
ATOM     10  N   UNL     1      49.984   4.393  19.778  0.00  0.00    +0.000 N 
ATOM     11  O   UNL     1      51.461   5.668  18.671  0.00  0.00    +0.000 OA
ATOM     12  H   UNL     1      49.095   3.914  19.825  0.00  0.00    +0.000 HD
ATOM     13  H   UNL     1      50.596   4.382  20.582  0.00  0.00    +0.000 HD
ENDBRANCH   7   9
BRANCH   1  15
ATOM     14  C   UNL     1      49.824   1.964  17.009  0.00  0.00    +0.000 C 
ATOM     15  O   UNL     1      48.848   2.824  17.594  0.00  0.00    +0.000 OA
ENDBRANCH   1  15
BRANCH   4  16
ATOM     16  C   UNL     1      45.855   4.517  14.033  0.00  0.00    +0.000 C 
BRANCH  16  17
ATOM     17  C   UNL     1      45.001   4.773  12.813  0.00  0.00    +0.000 A 
ATOM     18  C   UNL     1      43.686   5.225  12.956  0.00  0.00    +0.000 A 
ATOM     19  C   UNL     1      42.882   5.327  11.835  0.00  0.00    +0.000 A 
ATOM     20  N   UNL     1      43.294   5.017  10.588  0.00  0.00    +0.000 NA
ATOM     21  C   UNL     1      44.579   4.584  10.435  0.00  0.00    +0.000 A 
ATOM     22  C   UNL     1      45.452   4.461  11.524  0.00  0.00    +0.000 A 
BRANCH  21  23
ATOM     23  C   UNL     1      45.067   4.190   9.046  0.00  0.00    +0.000 C 
ATOM     24  F   UNL     1      46.049   4.992   8.543  0.00  0.00    +0.000 F 
ATOM     25  F   UNL     1      45.570   2.921   9.007  0.00  0.00    +0.000 F 
ATOM     26  F   UNL     1      44.065   4.212   8.117  0.00  0.00    +0.000 F 
ENDBRANCH  21  23
ENDBRANCH  16  17
ENDBRANCH   4  16
TORSDOF 5
ENDMDL
MODEL 9
REMARK VINA RESULT:    -6.068      4.654      7.782
REMARK INTER + INTRA:          -8.521
REMARK INTER:                  -7.738
REMARK INTRA:                  -0.783
REMARK UNBOUND:                -0.679
REMARK  Name = 
REMARK  6 active torsions:
REMARK  status: ('A' for Active; 'I' for Inactive)
REMARK    1  A    between atoms: C_1  and  O_2
REMARK    2  A    between atoms: O_2  and  C_3
REMARK    3  A    between atoms: N_6  and  C_7
REMARK    4  A    between atoms: C_7  and  C_8
REMARK    5  A    between atoms: C_12  and  C_13
REMARK    6  A    between atoms: C_20  and  C_21
REMARK                            x       y       z     vdW  Elec       q    Type
REMARK                         _______ _______ _______ _____ _____    ______ ____
ROOT
ATOM      1  C   UNL     1      45.545   5.240  12.449  0.00  0.00    +0.000 A 
ATOM      2  N   UNL     1      46.494   5.817  13.238  0.00  0.00    +0.000 NA
ATOM      3  C   UNL     1      46.546   7.159  13.319  0.00  0.00    +0.000 A 
ATOM      4  N   UNL     1      47.566   7.779  14.025  0.00  0.00    +0.000 N 
ATOM      5  C   UNL     1      45.651   7.953  12.610  0.00  0.00    +0.000 A 
ATOM      6  C   UNL     1      44.694   7.355  11.789  0.00  0.00    +0.000 A 
ATOM      7  C   UNL     1      44.624   5.962  11.695  0.00  0.00    +0.000 A 
ATOM      8  H   UNL     1      47.283   8.534  14.637  0.00  0.00    +0.000 HD
ENDROOT
BRANCH   7   9
ATOM      9  C   UNL     1      43.584   5.387  10.797  0.00  0.00    +0.000 C 
ATOM     10  N   UNL     1      43.973   4.769   9.646  0.00  0.00    +0.000 N 
ATOM     11  O   UNL     1      42.395   5.462  11.080  0.00  0.00    +0.000 OA
ATOM     12  H   UNL     1      44.944   4.699   9.370  0.00  0.00    +0.000 HD
ATOM     13  H   UNL     1      43.258   4.391   9.040  0.00  0.00    +0.000 HD
ENDBRANCH   7   9
BRANCH   1  15
ATOM     14  C   UNL     1      46.453   3.239  13.279  0.00  0.00    +0.000 C 
ATOM     15  O   UNL     1      45.524   3.857  12.391  0.00  0.00    +0.000 OA
ENDBRANCH   1  15
BRANCH   4  16
ATOM     16  C   UNL     1      48.748   7.031  14.401  0.00  0.00    +0.000 C 
BRANCH  16  17
ATOM     17  C   UNL     1      48.706   6.489  15.811  0.00  0.00    +0.000 A 
ATOM     18  C   UNL     1      49.156   7.271  16.880  0.00  0.00    +0.000 A 
ATOM     19  C   UNL     1      49.231   6.709  18.142  0.00  0.00    +0.000 A 
ATOM     20  N   UNL     1      48.888   5.433  18.414  0.00  0.00    +0.000 NA
ATOM     21  C   UNL     1      48.439   4.663  17.381  0.00  0.00    +0.000 A 
ATOM     22  C   UNL     1      48.331   5.166  16.078  0.00  0.00    +0.000 A 
BRANCH  21  23
ATOM     23  C   UNL     1      48.078   3.206  17.644  0.00  0.00    +0.000 C 
ATOM     24  F   UNL     1      48.744   2.308  16.863  0.00  0.00    +0.000 F 
ATOM     25  F   UNL     1      48.325   2.829  18.933  0.00  0.00    +0.000 F 
ATOM     26  F   UNL     1      46.751   2.954  17.441  0.00  0.00    +0.000 F 
ENDBRANCH  21  23
ENDBRANCH  16  17
ENDBRANCH   4  16
TORSDOF 5
ENDMDL
