MODEL 1
REMARK VINA RESULT:    -9.993      0.000      0.000
REMARK INTER + INTRA:         -13.872
REMARK INTER:                 -12.914
REMARK INTRA:                  -0.958
REMARK UNBOUND:                -0.958
REMARK  Name = 
REMARK  5 active torsions:
REMARK  status: ('A' for Active; 'I' for Inactive)
REMARK    1  A    between atoms: C_2  and  C_4
REMARK    2  A    between atoms: N_8  and  C_9
REMARK    3  A    between atoms: C_9  and  C_10
REMARK    4  A    between atoms: C_10  and  C_13
REMARK    5  A    between atoms: C_17  and  C_18
REMARK                            x       y       z     vdW  Elec       q    Type
REMARK                         _______ _______ _______ _____ _____    ______ ____
ROOT
ATOM      1  C   UNL     1      43.546   5.699  12.034  0.00  0.00    +0.000 C 
ATOM      2  F   UNL     1      42.985   6.790  11.432  0.00  0.00    +0.000 F 
ATOM      3  F   UNL     1      42.833   5.517  13.186  0.00  0.00    +0.000 F 
ENDROOT
BRANCH   1   4
ATOM      4  C   UNL     1      45.023   5.903  12.323  0.00  0.00    +0.000 A 
ATOM      5  C   UNL     1      45.825   6.673  11.476  0.00  0.00    +0.000 A 
ATOM      6  C   UNL     1      47.177   6.845  11.760  0.00  0.00    +0.000 A 
ATOM      7  C   UNL     1      47.736   6.257  12.899  0.00  0.00    +0.000 A 
ATOM      8  C   UNL     1      46.962   5.494  13.792  0.00  0.00    +0.000 A 
ATOM      9  C   UNL     1      45.603   5.318  13.467  0.00  0.00    +0.000 A 
BRANCH   8  10
ATOM     10  C   UNL     1      47.543   4.925  15.033  0.00  0.00    +0.000 A 
ATOM     11  C   UNL     1      47.299   3.593  15.424  0.00  0.00    +0.000 A 
ATOM     12  C   UNL     1      47.842   3.065  16.601  0.00  0.00    +0.000 A 
ATOM     13  C   UNL     1      48.652   3.858  17.403  0.00  0.00    +0.000 A 
ATOM     14  F   UNL     1      49.176   3.328  18.517  0.00  0.00    +0.000 F 
ATOM     15  C   UNL     1      48.912   5.175  17.049  0.00  0.00    +0.000 A 
ATOM     16 CL   UNL     1      49.920   6.168  18.030  0.00  0.00    +0.000 Cl
ATOM     17  C   UNL     1      48.354   5.707  15.882  0.00  0.00    +0.000 A 
ENDBRANCH   8  10
ENDBRANCH   1   4
BRANCH   1  18
ATOM     18  C   UNL     1      43.328   4.471  11.113  0.00  0.00    +0.000 C 
BRANCH  18  23
ATOM     19  C   UNL     1      46.482   2.456   7.658  0.00  0.00    +0.000 A 
ATOM     20  C   UNL     1      45.689   1.823   8.608  0.00  0.00    +0.000 A 
ATOM     21  C   UNL     1      44.758   2.575   9.325  0.00  0.00    +0.000 A 
ATOM     22  C   UNL     1      44.648   3.942   9.097  0.00  0.00    +0.000 A 
ATOM     23  N   UNL     1      43.692   4.730   9.714  0.00  0.00    +0.000 N 
ATOM     24  N   UNL     1      45.429   4.573   8.197  0.00  0.00    +0.000 NA
ATOM     25  C   UNL     1      46.331   3.825   7.502  0.00  0.00    +0.000 A 
ATOM     26  H   UNL     1      43.883   5.706   9.483  0.00  0.00    +0.000 HD
BRANCH  19  28
ATOM     27  N   UNL     1      48.562   2.431   6.407  0.00  0.00    +0.000 N 
ATOM     28  C   UNL     1      47.466   1.731   6.831  0.00  0.00    +0.000 C 
ATOM     29  O   UNL     1      47.326   0.545   6.560  0.00  0.00    +0.000 OA
ATOM     30  H   UNL     1      49.280   1.900   5.928  0.00  0.00    +0.000 HD
ATOM     31  H   UNL     1      48.836   3.315   6.814  0.00  0.00    +0.000 HD
ENDBRANCH  19  28
ENDBRANCH  18  23
ENDBRANCH   1  18
TORSDOF 5
ENDMDL
MODEL 2
REMARK VINA RESULT:    -9.929      2.603      4.141
REMARK INTER + INTRA:         -13.789
REMARK INTER:                 -12.693
REMARK INTRA:                  -1.096
REMARK UNBOUND:                -0.958
REMARK  Name = 
REMARK  5 active torsions:
REMARK  status: ('A' for Active; 'I' for Inactive)
REMARK    1  A    between atoms: C_2  and  C_4
REMARK    2  A    between atoms: N_8  and  C_9
REMARK    3  A    between atoms: C_9  and  C_10
REMARK    4  A    between atoms: C_10  and  C_13
REMARK    5  A    between atoms: C_17  and  C_18
REMARK                            x       y       z     vdW  Elec       q    Type
REMARK                         _______ _______ _______ _____ _____    ______ ____
ROOT
ATOM      1  C   UNL     1      43.481   5.530  12.223  0.00  0.00    +0.000 C 
ATOM      2  F   UNL     1      43.082   6.691  11.622  0.00  0.00    +0.000 F 
ATOM      3  F   UNL     1      42.616   5.345  13.264  0.00  0.00    +0.000 F 
ENDROOT
BRANCH   1   4
ATOM      4  C   UNL     1      44.920   5.603  12.704  0.00  0.00    +0.000 A 
ATOM      5  C   UNL     1      45.453   4.615  13.537  0.00  0.00    +0.000 A 
ATOM      6  C   UNL     1      46.775   4.703  13.967  0.00  0.00    +0.000 A 
ATOM      7  C   UNL     1      47.576   5.774  13.560  0.00  0.00    +0.000 A 
ATOM      8  C   UNL     1      47.088   6.778  12.704  0.00  0.00    +0.000 A 
ATOM      9  C   UNL     1      45.743   6.675  12.304  0.00  0.00    +0.000 A 
BRANCH   8  10
ATOM     10  C   UNL     1      47.960   7.878  12.222  0.00  0.00    +0.000 A 
ATOM     11  C   UNL     1      47.498   9.207  12.136  0.00  0.00    +0.000 A 
ATOM     12  C   UNL     1      48.321  10.240  11.671  0.00  0.00    +0.000 A 
ATOM     13  C   UNL     1      49.629   9.962  11.297  0.00  0.00    +0.000 A 
ATOM     14  F   UNL     1      50.407  10.968  10.871  0.00  0.00    +0.000 F 
ATOM     15  C   UNL     1      50.117   8.663  11.367  0.00  0.00    +0.000 A 
ATOM     16 CL   UNL     1      51.739   8.307  10.913  0.00  0.00    +0.000 Cl
ATOM     17  C   UNL     1      49.287   7.630  11.815  0.00  0.00    +0.000 A 
ENDBRANCH   8  10
ENDBRANCH   1   4
BRANCH   1  18
ATOM     18  C   UNL     1      43.297   4.371  11.209  0.00  0.00    +0.000 C 
BRANCH  18  23
ATOM     19  C   UNL     1      46.479   2.519   7.689  0.00  0.00    +0.000 A 
ATOM     20  C   UNL     1      45.634   1.843   8.562  0.00  0.00    +0.000 A 
ATOM     21  C   UNL     1      44.710   2.571   9.312  0.00  0.00    +0.000 A 
ATOM     22  C   UNL     1      44.658   3.955   9.193  0.00  0.00    +0.000 A 
ATOM     23  N   UNL     1      43.714   4.729   9.846  0.00  0.00    +0.000 N 
ATOM     24  N   UNL     1      45.490   4.625   8.370  0.00  0.00    +0.000 NA
ATOM     25  C   UNL     1      46.385   3.901   7.642  0.00  0.00    +0.000 A 
ATOM     26  H   UNL     1      43.948   5.711   9.701  0.00  0.00    +0.000 HD
BRANCH  19  28
ATOM     27  N   UNL     1      48.539   2.549   6.405  0.00  0.00    +0.000 N 
ATOM     28  C   UNL     1      47.461   1.824   6.833  0.00  0.00    +0.000 C 
ATOM     29  O   UNL     1      47.334   0.642   6.543  0.00  0.00    +0.000 OA
ATOM     30  H   UNL     1      49.256   2.038   5.905  0.00  0.00    +0.000 HD
ATOM     31  H   UNL     1      48.805   3.429   6.824  0.00  0.00    +0.000 HD
ENDBRANCH  19  28
ENDBRANCH  18  23
ENDBRANCH   1  18
TORSDOF 5
ENDMDL
MODEL 3
REMARK VINA RESULT:    -8.792      3.188      4.043
REMARK INTER + INTRA:         -12.320
REMARK INTER:                 -11.342
REMARK INTRA:                  -0.978
REMARK UNBOUND:                -0.958
REMARK  Name = 
REMARK  5 active torsions:
REMARK  status: ('A' for Active; 'I' for Inactive)
REMARK    1  A    between atoms: C_2  and  C_4
REMARK    2  A    between atoms: N_8  and  C_9
REMARK    3  A    between atoms: C_9  and  C_10
REMARK    4  A    between atoms: C_10  and  C_13
REMARK    5  A    between atoms: C_17  and  C_18
REMARK                            x       y       z     vdW  Elec       q    Type
REMARK                         _______ _______ _______ _____ _____    ______ ____
ROOT
ATOM      1  C   UNL     1      44.948   4.920  12.353  0.00  0.00    +0.000 C 
ATOM      2  F   UNL     1      44.468   4.612  13.595  0.00  0.00    +0.000 F 
ATOM      3  F   UNL     1      45.931   4.002  12.107  0.00  0.00    +0.000 F 
ENDROOT
BRANCH   1   4
ATOM      4  C   UNL     1      45.486   6.339  12.285  0.00  0.00    +0.000 A 
ATOM      5  C   UNL     1      44.622   7.438  12.268  0.00  0.00    +0.000 A 
ATOM      6  C   UNL     1      45.138   8.730  12.205  0.00  0.00    +0.000 A 
ATOM      7  C   UNL     1      46.521   8.934  12.169  0.00  0.00    +0.000 A 
ATOM      8  C   UNL     1      47.427   7.859  12.208  0.00  0.00    +0.000 A 
ATOM      9  C   UNL     1      46.877   6.564  12.249  0.00  0.00    +0.000 A 
BRANCH   8  10
ATOM     10  C   UNL     1      48.894   8.080  12.235  0.00  0.00    +0.000 A 
ATOM     11  C   UNL     1      49.522   8.758  13.299  0.00  0.00    +0.000 A 
ATOM     12  C   UNL     1      50.906   8.973  13.315  0.00  0.00    +0.000 A 
ATOM     13  C   UNL     1      51.688   8.500  12.270  0.00  0.00    +0.000 A 
ATOM     14  F   UNL     1      53.013   8.701  12.312  0.00  0.00    +0.000 F 
ATOM     15  C   UNL     1      51.101   7.829  11.205  0.00  0.00    +0.000 A 
ATOM     16 CL   UNL     1      52.061   7.231   9.906  0.00  0.00    +0.000 Cl
ATOM     17  C   UNL     1      49.717   7.631  11.182  0.00  0.00    +0.000 A 
ENDBRANCH   8  10
ENDBRANCH   1   4
BRANCH   1  18
ATOM     18  C   UNL     1      43.805   4.714  11.325  0.00  0.00    +0.000 C 
BRANCH  18  23
ATOM     19  C   UNL     1      46.565   2.606   7.600  0.00  0.00    +0.000 A 
ATOM     20  C   UNL     1      45.686   2.009   8.497  0.00  0.00    +0.000 A 
ATOM     21  C   UNL     1      44.895   2.819   9.312  0.00  0.00    +0.000 A 
ATOM     22  C   UNL     1      45.007   4.202   9.232  0.00  0.00    +0.000 A 
ATOM     23  N   UNL     1      44.197   5.062   9.952  0.00  0.00    +0.000 N 
ATOM     24  N   UNL     1      45.874   4.793   8.385  0.00  0.00    +0.000 NA
ATOM     25  C   UNL     1      46.638   3.989   7.594  0.00  0.00    +0.000 A 
ATOM     26  H   UNL     1      44.542   6.013   9.822  0.00  0.00    +0.000 HD
BRANCH  19  28
ATOM     27  N   UNL     1      48.427   2.492   6.047  0.00  0.00    +0.000 N 
ATOM     28  C   UNL     1      47.412   1.825   6.677  0.00  0.00    +0.000 C 
ATOM     29  O   UNL     1      47.237   0.627   6.504  0.00  0.00    +0.000 OA
ATOM     30  H   UNL     1      49.064   1.929   5.496  0.00  0.00    +0.000 HD
ATOM     31  H   UNL     1      48.757   3.397   6.352  0.00  0.00    +0.000 HD
ENDBRANCH  19  28
ENDBRANCH  18  23
ENDBRANCH   1  18
TORSDOF 5
ENDMDL
MODEL 4
REMARK VINA RESULT:    -8.633      2.133      2.767
REMARK INTER + INTRA:         -12.114
REMARK INTER:                 -10.876
REMARK INTRA:                  -1.238
REMARK UNBOUND:                -0.958
REMARK  Name = 
REMARK  5 active torsions:
REMARK  status: ('A' for Active; 'I' for Inactive)
REMARK    1  A    between atoms: C_2  and  C_4
REMARK    2  A    between atoms: N_8  and  C_9
REMARK    3  A    between atoms: C_9  and  C_10
REMARK    4  A    between atoms: C_10  and  C_13
REMARK    5  A    between atoms: C_17  and  C_18
REMARK                            x       y       z     vdW  Elec       q    Type
REMARK                         _______ _______ _______ _____ _____    ______ ____
ROOT
ATOM      1  C   UNL     1      43.661   4.618  12.610  0.00  0.00    +0.000 C 
ATOM      2  F   UNL     1      42.454   4.938  13.165  0.00  0.00    +0.000 F 
ATOM      3  F   UNL     1      44.253   3.765  13.499  0.00  0.00    +0.000 F 
ENDROOT
BRANCH   1   4
ATOM      4  C   UNL     1      44.520   5.847  12.367  0.00  0.00    +0.000 A 
ATOM      5  C   UNL     1      44.070   6.893  11.555  0.00  0.00    +0.000 A 
ATOM      6  C   UNL     1      44.875   8.010  11.346  0.00  0.00    +0.000 A 
ATOM      7  C   UNL     1      46.131   8.095  11.954  0.00  0.00    +0.000 A 
ATOM      8  C   UNL     1      46.614   7.077  12.796  0.00  0.00    +0.000 A 
ATOM      9  C   UNL     1      45.789   5.951  12.972  0.00  0.00    +0.000 A 
BRANCH   8  10
ATOM     10  C   UNL     1      47.920   7.199  13.492  0.00  0.00    +0.000 A 
ATOM     11  C   UNL     1      48.993   7.920  12.933  0.00  0.00    +0.000 A 
ATOM     12  C   UNL     1      50.226   8.024  13.588  0.00  0.00    +0.000 A 
ATOM     13  C   UNL     1      50.402   7.418  14.825  0.00  0.00    +0.000 A 
ATOM     14  F   UNL     1      51.584   7.542  15.445  0.00  0.00    +0.000 F 
ATOM     15  C   UNL     1      49.365   6.697  15.404  0.00  0.00    +0.000 A 
ATOM     16 CL   UNL     1      49.567   5.947  16.941  0.00  0.00    +0.000 Cl
ATOM     17  C   UNL     1      48.140   6.580  14.740  0.00  0.00    +0.000 A 
ENDBRANCH   8  10
ENDBRANCH   1   4
BRANCH   1  18
ATOM     18  C   UNL     1      43.401   3.857  11.285  0.00  0.00    +0.000 C 
BRANCH  18  23
ATOM     19  C   UNL     1      46.524   2.889   7.379  0.00  0.00    +0.000 A 
ATOM     20  C   UNL     1      46.123   4.110   7.910  0.00  0.00    +0.000 A 
ATOM     21  C   UNL     1      45.406   4.126   9.107  0.00  0.00    +0.000 A 
ATOM     22  C   UNL     1      45.088   2.930   9.740  0.00  0.00    +0.000 A 
ATOM     23  N   UNL     1      44.451   2.879  10.968  0.00  0.00    +0.000 N 
ATOM     24  N   UNL     1      45.449   1.739   9.222  0.00  0.00    +0.000 NA
ATOM     25  C   UNL     1      46.151   1.739   8.055  0.00  0.00    +0.000 A 
ATOM     26  H   UNL     1      44.221   1.905  11.170  0.00  0.00    +0.000 HD
BRANCH  19  28
ATOM     27  N   UNL     1      48.618   2.384   6.260  0.00  0.00    +0.000 N 
ATOM     28  C   UNL     1      47.315   2.783   6.137  0.00  0.00    +0.000 C 
ATOM     29  O   UNL     1      46.821   3.011   5.041  0.00  0.00    +0.000 OA
ATOM     30  H   UNL     1      49.122   2.216   5.397  0.00  0.00    +0.000 HD
ATOM     31  H   UNL     1      48.979   1.949   7.097  0.00  0.00    +0.000 HD
ENDBRANCH  19  28
ENDBRANCH  18  23
ENDBRANCH   1  18
TORSDOF 5
ENDMDL
MODEL 5
REMARK VINA RESULT:    -8.572      4.646      8.158
REMARK INTER + INTRA:         -12.036
REMARK INTER:                 -11.274
REMARK INTRA:                  -0.762
REMARK UNBOUND:                -0.958
REMARK  Name = 
REMARK  5 active torsions:
REMARK  status: ('A' for Active; 'I' for Inactive)
REMARK    1  A    between atoms: C_2  and  C_4
REMARK    2  A    between atoms: N_8  and  C_9
REMARK    3  A    between atoms: C_9  and  C_10
REMARK    4  A    between atoms: C_10  and  C_13
REMARK    5  A    between atoms: C_17  and  C_18
REMARK                            x       y       z     vdW  Elec       q    Type
REMARK                         _______ _______ _______ _____ _____    ______ ____
ROOT
ATOM      1  C   UNL     1      45.753   7.249  12.233  0.00  0.00    +0.000 C 
ATOM      2  F   UNL     1      44.904   8.010  12.986  0.00  0.00    +0.000 F 
ATOM      3  F   UNL     1      46.334   8.119  11.353  0.00  0.00    +0.000 F 
ENDROOT
BRANCH   1   4
ATOM      4  C   UNL     1      45.025   6.131  11.507  0.00  0.00    +0.000 A 
ATOM      5  C   UNL     1      43.699   5.814  11.814  0.00  0.00    +0.000 A 
ATOM      6  C   UNL     1      43.052   4.784  11.136  0.00  0.00    +0.000 A 
ATOM      7  C   UNL     1      43.722   4.070  10.139  0.00  0.00    +0.000 A 
ATOM      8  C   UNL     1      45.049   4.369   9.781  0.00  0.00    +0.000 A 
ATOM      9  C   UNL     1      45.685   5.400  10.498  0.00  0.00    +0.000 A 
BRANCH   8  10
ATOM     10  C   UNL     1      45.736   3.652   8.678  0.00  0.00    +0.000 A 
ATOM     11  C   UNL     1      46.292   4.339   7.580  0.00  0.00    +0.000 A 
ATOM     12  C   UNL     1      46.931   3.657   6.537  0.00  0.00    +0.000 A 
ATOM     13  C   UNL     1      47.037   2.274   6.582  0.00  0.00    +0.000 A 
ATOM     14  F   UNL     1      47.667   1.640   5.583  0.00  0.00    +0.000 F 
ATOM     15  C   UNL     1      46.498   1.565   7.649  0.00  0.00    +0.000 A 
ATOM     16 CL   UNL     1      46.629  -0.151   7.721  0.00  0.00    +0.000 Cl
ATOM     17  C   UNL     1      45.845   2.246   8.680  0.00  0.00    +0.000 A 
ENDBRANCH   8  10
ENDBRANCH   1   4
BRANCH   1  18
ATOM     18  C   UNL     1      46.851   6.677  13.167  0.00  0.00    +0.000 C 
BRANCH  18  23
ATOM     19  C   UNL     1      48.620   3.812  16.989  0.00  0.00    +0.000 A 
ATOM     20  C   UNL     1      48.657   5.192  16.827  0.00  0.00    +0.000 A 
ATOM     21  C   UNL     1      47.938   5.772  15.781  0.00  0.00    +0.000 A 
ATOM     22  C   UNL     1      47.212   4.968  14.910  0.00  0.00    +0.000 A 
ATOM     23  N   UNL     1      46.414   5.483  13.904  0.00  0.00    +0.000 N 
ATOM     24  N   UNL     1      47.189   3.626  15.040  0.00  0.00    +0.000 NA
ATOM     25  C   UNL     1      47.894   3.074  16.067  0.00  0.00    +0.000 A 
ATOM     26  H   UNL     1      46.082   4.708  13.328  0.00  0.00    +0.000 HD
BRANCH  19  28
ATOM     27  N   UNL     1      48.691   3.073  19.300  0.00  0.00    +0.000 N 
ATOM     28  C   UNL     1      49.322   3.120  18.087  0.00  0.00    +0.000 C 
ATOM     29  O   UNL     1      50.409   2.584  17.916  0.00  0.00    +0.000 OA
ATOM     30  H   UNL     1      49.133   2.511  20.017  0.00  0.00    +0.000 HD
ATOM     31  H   UNL     1      47.707   3.273  19.410  0.00  0.00    +0.000 HD
ENDBRANCH  19  28
ENDBRANCH  18  23
ENDBRANCH   1  18
TORSDOF 5
ENDMDL
MODEL 6
REMARK VINA RESULT:    -8.260      5.003      7.952
REMARK INTER + INTRA:         -11.633
REMARK INTER:                 -10.382
REMARK INTRA:                  -1.250
REMARK UNBOUND:                -0.958
REMARK  Name = 
REMARK  5 active torsions:
REMARK  status: ('A' for Active; 'I' for Inactive)
REMARK    1  A    between atoms: C_2  and  C_4
REMARK    2  A    between atoms: N_8  and  C_9
REMARK    3  A    between atoms: C_9  and  C_10
REMARK    4  A    between atoms: C_10  and  C_13
REMARK    5  A    between atoms: C_17  and  C_18
REMARK                            x       y       z     vdW  Elec       q    Type
REMARK                         _______ _______ _______ _____ _____    ______ ____
ROOT
ATOM      1  C   UNL     1      48.889   8.154  12.299  0.00  0.00    +0.000 C 
ATOM      2  F   UNL     1      49.389   9.190  11.560  0.00  0.00    +0.000 F 
ATOM      3  F   UNL     1      49.658   7.073  11.971  0.00  0.00    +0.000 F 
ENDROOT
BRANCH   1   4
ATOM      4  C   UNL     1      47.421   7.900  12.004  0.00  0.00    +0.000 A 
ATOM      5  C   UNL     1      46.454   8.878  12.253  0.00  0.00    +0.000 A 
ATOM      6  C   UNL     1      45.114   8.622  11.975  0.00  0.00    +0.000 A 
ATOM      7  C   UNL     1      44.731   7.390  11.437  0.00  0.00    +0.000 A 
ATOM      8  C   UNL     1      45.672   6.385  11.149  0.00  0.00    +0.000 A 
ATOM      9  C   UNL     1      47.016   6.663  11.460  0.00  0.00    +0.000 A 
BRANCH   8  10
ATOM     10  C   UNL     1      45.271   5.103  10.518  0.00  0.00    +0.000 A 
ATOM     11  C   UNL     1      44.498   4.147  11.207  0.00  0.00    +0.000 A 
ATOM     12  C   UNL     1      44.131   2.935  10.610  0.00  0.00    +0.000 A 
ATOM     13  C   UNL     1      44.519   2.665   9.305  0.00  0.00    +0.000 A 
ATOM     14  F   UNL     1      44.142   1.506   8.746  0.00  0.00    +0.000 F 
ATOM     15  C   UNL     1      45.282   3.584   8.597  0.00  0.00    +0.000 A 
ATOM     16 CL   UNL     1      45.764   3.264   6.975  0.00  0.00    +0.000 Cl
ATOM     17  C   UNL     1      45.664   4.786   9.201  0.00  0.00    +0.000 A 
ENDBRANCH   8  10
ENDBRANCH   1   4
BRANCH   1  18
ATOM     18  C   UNL     1      49.101   8.482  13.799  0.00  0.00    +0.000 C 
BRANCH  18  23
ATOM     19  C   UNL     1      48.137   4.492  16.816  0.00  0.00    +0.000 A 
ATOM     20  C   UNL     1      47.455   4.934  15.688  0.00  0.00    +0.000 A 
ATOM     21  C   UNL     1      48.016   5.946  14.909  0.00  0.00    +0.000 A 
ATOM     22  C   UNL     1      49.233   6.509  15.276  0.00  0.00    +0.000 A 
ATOM     23  N   UNL     1      49.884   7.457  14.506  0.00  0.00    +0.000 N 
ATOM     24  N   UNL     1      49.893   6.107  16.381  0.00  0.00    +0.000 NA
ATOM     25  C   UNL     1      49.334   5.116  17.130  0.00  0.00    +0.000 A 
ATOM     26  H   UNL     1      50.687   7.802  15.032  0.00  0.00    +0.000 HD
BRANCH  19  28
ATOM     27  N   UNL     1      48.381   3.077  18.773  0.00  0.00    +0.000 N 
ATOM     28  C   UNL     1      47.633   3.403  17.675  0.00  0.00    +0.000 C 
ATOM     29  O   UNL     1      46.576   2.835  17.436  0.00  0.00    +0.000 OA
ATOM     30  H   UNL     1      47.977   2.401  19.410  0.00  0.00    +0.000 HD
ATOM     31  H   UNL     1      49.106   3.680  19.137  0.00  0.00    +0.000 HD
ENDBRANCH  19  28
ENDBRANCH  18  23
ENDBRANCH   1  18
TORSDOF 5
ENDMDL
