MODEL 1
REMARK VINA RESULT:    -7.444      0.000      0.000
REMARK INTER + INTRA:          -9.548
REMARK INTER:                  -9.184
REMARK INTRA:                  -0.364
REMARK UNBOUND:                -0.364
REMARK  Name = 
REMARK  4 active torsions:
REMARK  status: ('A' for Active; 'I' for Inactive)
REMARK    1  A    between atoms: C_2  and  C_4
REMARK    2  A    between atoms: C_7  and  N_8
REMARK    3  A    between atoms: N_8  and  C_9
REMARK    4  A    between atoms: C_9  and  C_10
REMARK                            x       y       z     vdW  Elec       q    Type
REMARK                         _______ _______ _______ _____ _____    ______ ____
ROOT
ATOM      1  C   UNL     1      46.467   2.485   7.678  0.00  0.00    +0.000 A 
ATOM      2  C   UNL     1      46.462   3.862   7.530  0.00  0.00    +0.000 A 
ATOM      3  N   UNL     1      45.604   4.673   8.216  0.00  0.00    +0.000 NA
ATOM      4  C   UNL     1      44.734   4.064   9.052  0.00  0.00    +0.000 A 
ATOM      5  C   UNL     1      44.744   2.664   9.161  0.00  0.00    +0.000 A 
ATOM      6  N   UNL     1      45.608   1.842   8.509  0.00  0.00    +0.000 NA
ENDROOT
BRANCH   1   8
ATOM      7  N   UNL     1      48.524   2.303   6.411  0.00  0.00    +0.000 N 
ATOM      8  C   UNL     1      47.429   1.646   6.906  0.00  0.00    +0.000 C 
ATOM      9  O   UNL     1      47.250   0.452   6.722  0.00  0.00    +0.000 OA
ATOM     10  H   UNL     1      49.227   1.789   5.898  0.00  0.00    +0.000 HD
ATOM     11  H   UNL     1      48.648   3.290   6.600  0.00  0.00    +0.000 HD
ENDBRANCH   1   8
BRANCH   4  12
ATOM     12  N   UNL     1      43.742   4.798   9.720  0.00  0.00    +0.000 N 
ATOM     13  H   UNL     1      42.863   4.767   9.213  0.00  0.00    +0.000 HD
BRANCH  12  14
ATOM     14  C   UNL     1      43.541   4.441  11.120  0.00  0.00    +0.000 C 
BRANCH  14  15
ATOM     15  C   UNL     1      44.736   4.919  11.916  0.00  0.00    +0.000 A 
ATOM     16  C   UNL     1      45.183   6.243  11.846  0.00  0.00    +0.000 A 
ATOM     17  C   UNL     1      46.283   6.616  12.607  0.00  0.00    +0.000 A 
ATOM     18  N   UNL     1      46.962   5.775  13.414  0.00  0.00    +0.000 NA
ATOM     19  C   UNL     1      46.517   4.501  13.469  0.00  0.00    +0.000 A 
ATOM     20  C   UNL     1      45.428   4.033  12.751  0.00  0.00    +0.000 A 
ENDBRANCH  14  15
ENDBRANCH  12  14
ENDBRANCH   4  12
TORSDOF 4
ENDMDL
MODEL 2
REMARK VINA RESULT:    -7.432      2.686      5.928
REMARK INTER + INTRA:          -9.535
REMARK INTER:                  -9.176
REMARK INTRA:                  -0.359
REMARK UNBOUND:                -0.364
REMARK  Name = 
REMARK  4 active torsions:
REMARK  status: ('A' for Active; 'I' for Inactive)
REMARK    1  A    between atoms: C_2  and  C_4
REMARK    2  A    between atoms: C_7  and  N_8
REMARK    3  A    between atoms: N_8  and  C_9
REMARK    4  A    between atoms: C_9  and  C_10
REMARK                            x       y       z     vdW  Elec       q    Type
REMARK                         _______ _______ _______ _____ _____    ______ ____
ROOT
ATOM      1  C   UNL     1      46.295   4.567  13.145  0.00  0.00    +0.000 A 
ATOM      2  C   UNL     1      46.116   5.469  12.110  0.00  0.00    +0.000 A 
ATOM      3  N   UNL     1      45.422   5.160  10.976  0.00  0.00    +0.000 NA
ATOM      4  C   UNL     1      44.919   3.908  10.897  0.00  0.00    +0.000 A 
ATOM      5  C   UNL     1      45.140   3.006  11.949  0.00  0.00    +0.000 A 
ATOM      6  N   UNL     1      45.802   3.302  13.098  0.00  0.00    +0.000 NA
ENDROOT
BRANCH   1   8
ATOM      7  N   UNL     1      46.683   4.332  15.524  0.00  0.00    +0.000 N 
ATOM      8  C   UNL     1      47.059   4.957  14.365  0.00  0.00    +0.000 C 
ATOM      9  O   UNL     1      47.958   5.783  14.336  0.00  0.00    +0.000 OA
ATOM     10  H   UNL     1      47.174   4.534  16.384  0.00  0.00    +0.000 HD
ATOM     11  H   UNL     1      45.945   3.638  15.507  0.00  0.00    +0.000 HD
ENDBRANCH   1   8
BRANCH   4  12
ATOM     12  N   UNL     1      44.284   3.458   9.728  0.00  0.00    +0.000 N 
ATOM     13  H   UNL     1      43.280   3.593   9.784  0.00  0.00    +0.000 HD
BRANCH  12  14
ATOM     14  C   UNL     1      44.809   4.010   8.484  0.00  0.00    +0.000 C 
BRANCH  14  15
ATOM     15  C   UNL     1      45.858   3.063   7.941  0.00  0.00    +0.000 A 
ATOM     16  C   UNL     1      46.889   3.509   7.108  0.00  0.00    +0.000 A 
ATOM     17  C   UNL     1      47.821   2.587   6.648  0.00  0.00    +0.000 A 
ATOM     18  N   UNL     1      47.794   1.273   6.952  0.00  0.00    +0.000 NA
ATOM     19  C   UNL     1      46.792   0.860   7.757  0.00  0.00    +0.000 A 
ATOM     20  C   UNL     1      45.816   1.702   8.268  0.00  0.00    +0.000 A 
ENDBRANCH  14  15
ENDBRANCH  12  14
ENDBRANCH   4  12
TORSDOF 4
ENDMDL
MODEL 3
REMARK VINA RESULT:    -7.424      2.625      5.976
REMARK INTER + INTRA:          -9.524
REMARK INTER:                  -9.177
REMARK INTRA:                  -0.347
REMARK UNBOUND:                -0.364
REMARK  Name = 
REMARK  4 active torsions:
REMARK  status: ('A' for Active; 'I' for Inactive)
REMARK    1  A    between atoms: C_2  and  C_4
REMARK    2  A    between atoms: C_7  and  N_8
REMARK    3  A    between atoms: N_8  and  C_9
REMARK    4  A    between atoms: C_9  and  C_10
REMARK                            x       y       z     vdW  Elec       q    Type
REMARK                         _______ _______ _______ _____ _____    ______ ____
ROOT
ATOM      1  C   UNL     1      46.044   4.447  13.076  0.00  0.00    +0.000 A 
ATOM      2  C   UNL     1      45.797   5.410  12.112  0.00  0.00    +0.000 A 
ATOM      3  N   UNL     1      45.166   5.127  10.934  0.00  0.00    +0.000 NA
ATOM      4  C   UNL     1      44.799   3.841  10.738  0.00  0.00    +0.000 A 
ATOM      5  C   UNL     1      45.087   2.882  11.722  0.00  0.00    +0.000 A 
ATOM      6  N   UNL     1      45.686   3.147  12.912  0.00  0.00    +0.000 NA
ENDROOT
BRANCH   1   8
ATOM      7  N   UNL     1      47.313   6.051  14.374  0.00  0.00    +0.000 N 
ATOM      8  C   UNL     1      46.733   4.810  14.348  0.00  0.00    +0.000 C 
ATOM      9  O   UNL     1      46.783   4.051  15.303  0.00  0.00    +0.000 OA
ATOM     10  H   UNL     1      47.778   6.369  15.213  0.00  0.00    +0.000 HD
ATOM     11  H   UNL     1      47.236   6.661  13.569  0.00  0.00    +0.000 HD
ENDBRANCH   1   8
BRANCH   4  12
ATOM     12  N   UNL     1      44.243   3.428   9.517  0.00  0.00    +0.000 N 
ATOM     13  H   UNL     1      43.241   3.588   9.501  0.00  0.00    +0.000 HD
BRANCH  12  14
ATOM     14  C   UNL     1      44.874   3.986   8.327  0.00  0.00    +0.000 C 
BRANCH  14  15
ATOM     15  C   UNL     1      45.921   3.011   7.833  0.00  0.00    +0.000 A 
ATOM     16  C   UNL     1      45.890   1.658   8.189  0.00  0.00    +0.000 A 
ATOM     17  C   UNL     1      46.880   0.817   7.697  0.00  0.00    +0.000 A 
ATOM     18  N   UNL     1      47.885   1.224   6.893  0.00  0.00    +0.000 NA
ATOM     19  C   UNL     1      47.898   2.533   6.561  0.00  0.00    +0.000 A 
ATOM     20  C   UNL     1      46.955   3.450   6.998  0.00  0.00    +0.000 A 
ENDBRANCH  14  15
ENDBRANCH  12  14
ENDBRANCH   4  12
TORSDOF 4
ENDMDL
MODEL 4
REMARK VINA RESULT:    -6.289      2.840      6.028
REMARK INTER + INTRA:          -8.124
REMARK INTER:                  -7.733
REMARK INTRA:                  -0.391
REMARK UNBOUND:                -0.364
REMARK  Name = 
REMARK  4 active torsions:
REMARK  status: ('A' for Active; 'I' for Inactive)
REMARK    1  A    between atoms: C_2  and  C_4
REMARK    2  A    between atoms: C_7  and  N_8
REMARK    3  A    between atoms: N_8  and  C_9
REMARK    4  A    between atoms: C_9  and  C_10
REMARK                            x       y       z     vdW  Elec       q    Type
REMARK                         _______ _______ _______ _____ _____    ______ ____
ROOT
ATOM      1  C   UNL     1      47.064   5.723  13.601  0.00  0.00    +0.000 A 
ATOM      2  C   UNL     1      45.818   6.074  13.109  0.00  0.00    +0.000 A 
ATOM      3  N   UNL     1      44.916   5.152  12.663  0.00  0.00    +0.000 NA
ATOM      4  C   UNL     1      45.302   3.858  12.708  0.00  0.00    +0.000 A 
ATOM      5  C   UNL     1      46.581   3.533  13.186  0.00  0.00    +0.000 A 
ATOM      6  N   UNL     1      47.482   4.432  13.663  0.00  0.00    +0.000 NA
ENDROOT
BRANCH   1   8
ATOM      7  N   UNL     1      47.447   7.980  14.394  0.00  0.00    +0.000 N 
ATOM      8  C   UNL     1      48.010   6.771  14.081  0.00  0.00    +0.000 C 
ATOM      9  O   UNL     1      49.210   6.568  14.185  0.00  0.00    +0.000 OA
ATOM     10  H   UNL     1      48.029   8.727  14.746  0.00  0.00    +0.000 HD
ATOM     11  H   UNL     1      46.445   8.105  14.313  0.00  0.00    +0.000 HD
ENDBRANCH   1   8
BRANCH   4  12
ATOM     12  N   UNL     1      44.491   2.844  12.173  0.00  0.00    +0.000 N 
ATOM     13  H   UNL     1      43.884   2.450  12.884  0.00  0.00    +0.000 HD
BRANCH  12  14
ATOM     14  C   UNL     1      43.725   3.221  10.991  0.00  0.00    +0.000 C 
BRANCH  14  15
ATOM     15  C   UNL     1      44.636   3.158   9.784  0.00  0.00    +0.000 A 
ATOM     16  C   UNL     1      45.114   1.941   9.287  0.00  0.00    +0.000 A 
ATOM     17  C   UNL     1      45.944   1.956   8.173  0.00  0.00    +0.000 A 
ATOM     18  N   UNL     1      46.328   3.080   7.534  0.00  0.00    +0.000 NA
ATOM     19  C   UNL     1      45.857   4.246   8.028  0.00  0.00    +0.000 A 
ATOM     20  C   UNL     1      45.024   4.335   9.131  0.00  0.00    +0.000 A 
ENDBRANCH  14  15
ENDBRANCH  12  14
ENDBRANCH   4  12
TORSDOF 4
ENDMDL
MODEL 5
REMARK VINA RESULT:    -5.613      4.919      8.395
REMARK INTER + INTRA:          -7.290
REMARK INTER:                  -7.025
REMARK INTRA:                  -0.265
REMARK UNBOUND:                -0.364
REMARK  Name = 
REMARK  4 active torsions:
REMARK  status: ('A' for Active; 'I' for Inactive)
REMARK    1  A    between atoms: C_2  and  C_4
REMARK    2  A    between atoms: C_7  and  N_8
REMARK    3  A    between atoms: N_8  and  C_9
REMARK    4  A    between atoms: C_9  and  C_10
REMARK                            x       y       z     vdW  Elec       q    Type
REMARK                         _______ _______ _______ _____ _____    ______ ____
ROOT
ATOM      1  C   UNL     1      48.468   4.416  18.094  0.00  0.00    +0.000 A 
ATOM      2  C   UNL     1      48.000   3.166  17.725  0.00  0.00    +0.000 A 
ATOM      3  N   UNL     1      47.500   2.904  16.481  0.00  0.00    +0.000 NA
ATOM      4  C   UNL     1      47.466   3.939  15.613  0.00  0.00    +0.000 A 
ATOM      5  C   UNL     1      47.922   5.202  16.024  0.00  0.00    +0.000 A 
ATOM      6  N   UNL     1      48.450   5.476  17.245  0.00  0.00    +0.000 NA
ENDROOT
BRANCH   1   8
ATOM      7  N   UNL     1      48.535   3.807  20.437  0.00  0.00    +0.000 N 
ATOM      8  C   UNL     1      49.009   4.647  19.464  0.00  0.00    +0.000 C 
ATOM      9  O   UNL     1      49.817   5.530  19.706  0.00  0.00    +0.000 OA
ATOM     10  H   UNL     1      48.877   3.894  21.384  0.00  0.00    +0.000 HD
ATOM     11  H   UNL     1      47.879   3.074  20.195  0.00  0.00    +0.000 HD
ENDBRANCH   1   8
BRANCH   4  12
ATOM     12  N   UNL     1      46.872   3.801  14.349  0.00  0.00    +0.000 N 
ATOM     13  H   UNL     1      46.227   3.018  14.333  0.00  0.00    +0.000 HD
BRANCH  12  14
ATOM     14  C   UNL     1      46.234   5.004  13.827  0.00  0.00    +0.000 C 
BRANCH  14  15
ATOM     15  C   UNL     1      45.096   4.592  12.919  0.00  0.00    +0.000 A 
ATOM     16  C   UNL     1      45.144   3.411  12.171  0.00  0.00    +0.000 A 
ATOM     17  C   UNL     1      44.062   3.090  11.360  0.00  0.00    +0.000 A 
ATOM     18  N   UNL     1      42.957   3.855  11.241  0.00  0.00    +0.000 NA
ATOM     19  C   UNL     1      42.928   4.992  11.970  0.00  0.00    +0.000 A 
ATOM     20  C   UNL     1      43.955   5.396  12.808  0.00  0.00    +0.000 A 
ENDBRANCH  14  15
ENDBRANCH  12  14
ENDBRANCH   4  12
TORSDOF 4
ENDMDL
MODEL 6
REMARK VINA RESULT:    -5.599      3.356      5.179
REMARK INTER + INTRA:          -7.273
REMARK INTER:                  -7.005
REMARK INTRA:                  -0.267
REMARK UNBOUND:                -0.364
REMARK  Name = 
REMARK  4 active torsions:
REMARK  status: ('A' for Active; 'I' for Inactive)
REMARK    1  A    between atoms: C_2  and  C_4
REMARK    2  A    between atoms: C_7  and  N_8
REMARK    3  A    between atoms: N_8  and  C_9
REMARK    4  A    between atoms: C_9  and  C_10
REMARK                            x       y       z     vdW  Elec       q    Type
REMARK                         _______ _______ _______ _____ _____    ______ ____
ROOT
ATOM      1  C   UNL     1      45.415   4.676  10.639  0.00  0.00    +0.000 A 
ATOM      2  C   UNL     1      45.060   3.566  11.387  0.00  0.00    +0.000 A 
ATOM      3  N   UNL     1      45.270   3.489  12.734  0.00  0.00    +0.000 NA
ATOM      4  C   UNL     1      45.862   4.556  13.316  0.00  0.00    +0.000 A 
ATOM      5  C   UNL     1      46.235   5.655  12.527  0.00  0.00    +0.000 A 
ATOM      6  N   UNL     1      46.009   5.764  11.192  0.00  0.00    +0.000 NA
ENDROOT
BRANCH   1   8
ATOM      7  N   UNL     1      43.909   4.311   8.777  0.00  0.00    +0.000 N 
ATOM      8  C   UNL     1      45.159   4.710   9.170  0.00  0.00    +0.000 C 
ATOM      9  O   UNL     1      46.009   5.066   8.368  0.00  0.00    +0.000 OA
ATOM     10  H   UNL     1      43.662   4.332   7.797  0.00  0.00    +0.000 HD
ATOM     11  H   UNL     1      43.224   4.041   9.472  0.00  0.00    +0.000 HD
ENDBRANCH   1   8
BRANCH   4  12
ATOM     12  N   UNL     1      46.219   4.531  14.673  0.00  0.00    +0.000 N 
ATOM     13  H   UNL     1      46.270   3.578  15.019  0.00  0.00    +0.000 HD
BRANCH  12  14
ATOM     14  C   UNL     1      47.432   5.267  15.011  0.00  0.00    +0.000 C 
BRANCH  14  15
ATOM     15  C   UNL     1      47.963   4.746  16.328  0.00  0.00    +0.000 A 
ATOM     16  C   UNL     1      48.956   5.425  17.040  0.00  0.00    +0.000 A 
ATOM     17  C   UNL     1      49.395   4.893  18.246  0.00  0.00    +0.000 A 
ATOM     18  N   UNL     1      48.924   3.746  18.780  0.00  0.00    +0.000 NA
ATOM     19  C   UNL     1      47.966   3.103  18.078  0.00  0.00    +0.000 A 
ATOM     20  C   UNL     1      47.462   3.555  16.869  0.00  0.00    +0.000 A 
ENDBRANCH  14  15
ENDBRANCH  12  14
ENDBRANCH   4  12
TORSDOF 4
ENDMDL
MODEL 7
REMARK VINA RESULT:    -5.512      4.937      7.825
REMARK INTER + INTRA:          -7.166
REMARK INTER:                  -6.874
REMARK INTRA:                  -0.291
REMARK UNBOUND:                -0.364
REMARK  Name = 
REMARK  4 active torsions:
REMARK  status: ('A' for Active; 'I' for Inactive)
REMARK    1  A    between atoms: C_2  and  C_4
REMARK    2  A    between atoms: C_7  and  N_8
REMARK    3  A    between atoms: N_8  and  C_9
REMARK    4  A    between atoms: C_9  and  C_10
REMARK                            x       y       z     vdW  Elec       q    Type
REMARK                         _______ _______ _______ _____ _____    ______ ____
ROOT
ATOM      1  C   UNL     1      50.188   2.568  17.108  0.00  0.00    +0.000 A 
ATOM      2  C   UNL     1      49.909   3.905  17.337  0.00  0.00    +0.000 A 
ATOM      3  N   UNL     1      48.777   4.511  16.874  0.00  0.00    +0.000 NA
ATOM      4  C   UNL     1      47.929   3.740  16.157  0.00  0.00    +0.000 A 
ATOM      5  C   UNL     1      48.251   2.395  15.917  0.00  0.00    +0.000 A 
ATOM      6  N   UNL     1      49.357   1.766  16.393  0.00  0.00    +0.000 NA
ENDROOT
BRANCH   1   8
ATOM      7  N   UNL     1      51.374   0.612  17.904  0.00  0.00    +0.000 N 
ATOM      8  C   UNL     1      51.439   1.954  17.640  0.00  0.00    +0.000 C 
ATOM      9  O   UNL     1      52.454   2.605  17.834  0.00  0.00    +0.000 OA
ATOM     10  H   UNL     1      52.193   0.128  18.246  0.00  0.00    +0.000 HD
ATOM     11  H   UNL     1      50.520   0.101  17.713  0.00  0.00    +0.000 HD
ENDBRANCH   1   8
BRANCH   4  12
ATOM     12  N   UNL     1      46.793   4.294  15.546  0.00  0.00    +0.000 N 
ATOM     13  H   UNL     1      46.262   4.854  16.205  0.00  0.00    +0.000 HD
BRANCH  12  14
ATOM     14  C   UNL     1      47.048   5.043  14.321  0.00  0.00    +0.000 C 
BRANCH  14  15
ATOM     15  C   UNL     1      45.933   4.758  13.339  0.00  0.00    +0.000 A 
ATOM     16  C   UNL     1      45.778   3.499  12.749  0.00  0.00    +0.000 A 
ATOM     17  C   UNL     1      44.729   3.303  11.859  0.00  0.00    +0.000 A 
ATOM     18  N   UNL     1      43.843   4.261  11.518  0.00  0.00    +0.000 NA
ATOM     19  C   UNL     1      44.008   5.470  12.096  0.00  0.00    +0.000 A 
ATOM     20  C   UNL     1      45.020   5.762  12.997  0.00  0.00    +0.000 A 
ENDBRANCH  14  15
ENDBRANCH  12  14
ENDBRANCH   4  12
TORSDOF 4
ENDMDL
MODEL 8
REMARK VINA RESULT:    -5.456      4.109      6.740
REMARK INTER + INTRA:          -7.096
REMARK INTER:                  -6.853
REMARK INTRA:                  -0.242
REMARK UNBOUND:                -0.364
REMARK  Name = 
REMARK  4 active torsions:
REMARK  status: ('A' for Active; 'I' for Inactive)
REMARK    1  A    between atoms: C_2  and  C_4
REMARK    2  A    between atoms: C_7  and  N_8
REMARK    3  A    between atoms: N_8  and  C_9
REMARK    4  A    between atoms: C_9  and  C_10
REMARK                            x       y       z     vdW  Elec       q    Type
REMARK                         _______ _______ _______ _____ _____    ______ ____
ROOT
ATOM      1  C   UNL     1      47.603   3.931  16.006  0.00  0.00    +0.000 A 
ATOM      2  C   UNL     1      47.968   5.266  15.979  0.00  0.00    +0.000 A 
ATOM      3  N   UNL     1      47.873   6.033  14.853  0.00  0.00    +0.000 NA
ATOM      4  C   UNL     1      47.413   5.418  13.740  0.00  0.00    +0.000 A 
ATOM      5  C   UNL     1      47.077   4.057  13.791  0.00  0.00    +0.000 A 
ATOM      6  N   UNL     1      47.135   3.284  14.907  0.00  0.00    +0.000 NA
ENDROOT
BRANCH   1   8
ATOM      7  N   UNL     1      48.964   3.132  17.844  0.00  0.00    +0.000 N 
ATOM      8  C   UNL     1      47.722   3.140  17.265  0.00  0.00    +0.000 C 
ATOM      9  O   UNL     1      46.778   2.534  17.746  0.00  0.00    +0.000 OA
ATOM     10  H   UNL     1      49.109   2.633  18.711  0.00  0.00    +0.000 HD
ATOM     11  H   UNL     1      49.719   3.661  17.425  0.00  0.00    +0.000 HD
ENDBRANCH   1   8
BRANCH   4  12
ATOM     12  N   UNL     1      47.381   6.089  12.507  0.00  0.00    +0.000 N 
ATOM     13  H   UNL     1      47.566   5.450  11.741  0.00  0.00    +0.000 HD
BRANCH  12  14
ATOM     14  C   UNL     1      46.171   6.863  12.252  0.00  0.00    +0.000 C 
BRANCH  14  15
ATOM     15  C   UNL     1      45.069   5.914  11.834  0.00  0.00    +0.000 A 
ATOM     16  C   UNL     1      43.936   5.709  12.628  0.00  0.00    +0.000 A 
ATOM     17  C   UNL     1      42.960   4.826  12.183  0.00  0.00    +0.000 A 
ATOM     18  N   UNL     1      43.037   4.141  11.023  0.00  0.00    +0.000 NA
ATOM     19  C   UNL     1      44.138   4.350  10.270  0.00  0.00    +0.000 A 
ATOM     20  C   UNL     1      45.164   5.211  10.627  0.00  0.00    +0.000 A 
ENDBRANCH  14  15
ENDBRANCH  12  14
ENDBRANCH   4  12
TORSDOF 4
ENDMDL
MODEL 9
REMARK VINA RESULT:    -4.852      4.180      7.625
REMARK INTER + INTRA:          -6.351
REMARK INTER:                  -6.074
REMARK INTRA:                  -0.277
REMARK UNBOUND:                -0.364
REMARK  Name = 
REMARK  4 active torsions:
REMARK  status: ('A' for Active; 'I' for Inactive)
REMARK    1  A    between atoms: C_2  and  C_4
REMARK    2  A    between atoms: C_7  and  N_8
REMARK    3  A    between atoms: N_8  and  C_9
REMARK    4  A    between atoms: C_9  and  C_10
REMARK                            x       y       z     vdW  Elec       q    Type
REMARK                         _______ _______ _______ _____ _____    ______ ____
ROOT
ATOM      1  C   UNL     1      48.656   5.877  16.609  0.00  0.00    +0.000 A 
ATOM      2  C   UNL     1      48.628   6.338  15.304  0.00  0.00    +0.000 A 
ATOM      3  N   UNL     1      47.852   5.766  14.337  0.00  0.00    +0.000 NA
ATOM      4  C   UNL     1      47.109   4.700  14.711  0.00  0.00    +0.000 A 
ATOM      5  C   UNL     1      47.179   4.238  16.034  0.00  0.00    +0.000 A 
ATOM      6  N   UNL     1      47.921   4.811  17.018  0.00  0.00    +0.000 NA
ENDROOT
BRANCH   1   8
ATOM      7  N   UNL     1      48.900   6.873  18.803  0.00  0.00    +0.000 N 
ATOM      8  C   UNL     1      49.519   6.542  17.627  0.00  0.00    +0.000 C 
ATOM      9  O   UNL     1      50.700   6.781  17.426  0.00  0.00    +0.000 OA
ATOM     10  H   UNL     1      49.432   7.307  19.545  0.00  0.00    +0.000 HD
ATOM     11  H   UNL     1      47.923   6.642  18.941  0.00  0.00    +0.000 HD
ENDBRANCH   1   8
BRANCH   4  12
ATOM     12  N   UNL     1      46.362   3.976  13.768  0.00  0.00    +0.000 N 
ATOM     13  H   UNL     1      46.144   3.047  14.113  0.00  0.00    +0.000 HD
BRANCH  12  14
ATOM     14  C   UNL     1      45.158   4.642  13.284  0.00  0.00    +0.000 C 
BRANCH  14  15
ATOM     15  C   UNL     1      45.070   4.449  11.786  0.00  0.00    +0.000 A 
ATOM     16  C   UNL     1      44.496   3.303  11.225  0.00  0.00    +0.000 A 
ATOM     17  C   UNL     1      44.443   3.193   9.841  0.00  0.00    +0.000 A 
ATOM     18  N   UNL     1      44.920   4.127   8.992  0.00  0.00    +0.000 NA
ATOM     19  C   UNL     1      45.470   5.226   9.551  0.00  0.00    +0.000 A 
ATOM     20  C   UNL     1      45.567   5.429  10.918  0.00  0.00    +0.000 A 
ENDBRANCH  14  15
ENDBRANCH  12  14
ENDBRANCH   4  12
TORSDOF 4
ENDMDL
