MODEL 1
REMARK VINA RESULT:    -7.754      0.000      0.000
REMARK INTER + INTRA:         -10.016
REMARK INTER:                  -9.567
REMARK INTRA:                  -0.449
REMARK UNBOUND:                -0.449
REMARK  Name = 
REMARK  4 active torsions:
REMARK  status: ('A' for Active; 'I' for Inactive)
REMARK    1  A    between atoms: C_2  and  C_4
REMARK    2  A    between atoms: C_7  and  N_8
REMARK    3  A    between atoms: N_8  and  C_9
REMARK    4  A    between atoms: C_9  and  C_10
REMARK                            x       y       z     vdW  Elec       q    Type
REMARK                         _______ _______ _______ _____ _____    ______ ____
ROOT
ATOM      1  C   UNL     1      46.480   2.751   7.519  0.00  0.00    +0.000 A 
ATOM      2  N   UNL     1      46.140   4.060   7.605  0.00  0.00    +0.000 NA
ATOM      3  C   UNL     1      45.246   4.366   8.580  0.00  0.00    +0.000 A 
ATOM      4  C   UNL     1      44.698   3.444   9.453  0.00  0.00    +0.000 A 
ATOM      5  C   UNL     1      45.152   2.147   9.261  0.00  0.00    +0.000 A 
ATOM      6  N   UNL     1      46.032   1.766   8.315  0.00  0.00    +0.000 NA
ENDROOT
BRANCH   1   8
ATOM      7  N   UNL     1      47.354   3.095   5.258  0.00  0.00    +0.000 N 
ATOM      8  C   UNL     1      47.454   2.372   6.424  0.00  0.00    +0.000 C 
ATOM      9  O   UNL     1      48.293   1.482   6.531  0.00  0.00    +0.000 OA
ATOM     10  H   UNL     1      47.974   2.882   4.493  0.00  0.00    +0.000 HD
ATOM     11  H   UNL     1      46.653   3.823   5.174  0.00  0.00    +0.000 HD
ENDBRANCH   1   8
BRANCH   4  12
ATOM     12  N   UNL     1      43.751   3.705  10.447  0.00  0.00    +0.000 N 
ATOM     13  H   UNL     1      43.416   2.844  10.890  0.00  0.00    +0.000 HD
BRANCH  12  14
ATOM     14  C   UNL     1      43.825   4.843  11.402  0.00  0.00    +0.000 C 
ATOM     15  C   UNL     1      42.523   5.064  12.165  0.00  0.00    +0.000 C 
ATOM     16  C   UNL     1      43.016   6.120  11.236  0.00  0.00    +0.000 C 
BRANCH  14  17
ATOM     17  C   UNL     1      45.151   4.904  12.193  0.00  0.00    +0.000 A 
ATOM     18  N   UNL     1      45.510   3.861  12.973  0.00  0.00    +0.000 NA
ATOM     19  C   UNL     1      46.622   4.002  13.720  0.00  0.00    +0.000 A 
ATOM     20  C   UNL     1      47.390   5.140  13.732  0.00  0.00    +0.000 A 
ATOM     21  C   UNL     1      46.958   6.148  12.907  0.00  0.00    +0.000 A 
ATOM     22  N   UNL     1      45.855   6.061  12.141  0.00  0.00    +0.000 NA
ENDBRANCH  14  17
ENDBRANCH  12  14
ENDBRANCH   4  12
TORSDOF 4
ENDMDL
MODEL 2
REMARK VINA RESULT:    -6.617      3.050      6.382
REMARK INTER + INTRA:          -8.613
REMARK INTER:                  -8.336
REMARK INTRA:                  -0.277
REMARK UNBOUND:                -0.449
REMARK  Name = 
REMARK  4 active torsions:
REMARK  status: ('A' for Active; 'I' for Inactive)
REMARK    1  A    between atoms: C_2  and  C_4
REMARK    2  A    between atoms: C_7  and  N_8
REMARK    3  A    between atoms: N_8  and  C_9
REMARK    4  A    between atoms: C_9  and  C_10
REMARK                            x       y       z     vdW  Elec       q    Type
REMARK                         _______ _______ _______ _____ _____    ______ ____
ROOT
ATOM      1  C   UNL     1      47.362   4.101  15.198  0.00  0.00    +0.000 A 
ATOM      2  N   UNL     1      47.054   3.093  14.346  0.00  0.00    +0.000 NA
ATOM      3  C   UNL     1      46.507   3.476  13.164  0.00  0.00    +0.000 A 
ATOM      4  C   UNL     1      46.267   4.791  12.806  0.00  0.00    +0.000 A 
ATOM      5  C   UNL     1      46.650   5.715  13.766  0.00  0.00    +0.000 A 
ATOM      6  N   UNL     1      47.194   5.413  14.960  0.00  0.00    +0.000 NA
ENDROOT
BRANCH   1   8
ATOM      7  N   UNL     1      47.085   3.086  17.409  0.00  0.00    +0.000 N 
ATOM      8  C   UNL     1      47.950   3.706  16.536  0.00  0.00    +0.000 C 
ATOM      9  O   UNL     1      49.116   3.909  16.859  0.00  0.00    +0.000 OA
ATOM     10  H   UNL     1      47.421   2.805  18.316  0.00  0.00    +0.000 HD
ATOM     11  H   UNL     1      46.121   2.929  17.137  0.00  0.00    +0.000 HD
ENDBRANCH   1   8
BRANCH   4  12
ATOM     12  N   UNL     1      45.675   5.230  11.619  0.00  0.00    +0.000 N 
ATOM     13  H   UNL     1      46.356   5.680  10.999  0.00  0.00    +0.000 HD
BRANCH  12  14
ATOM     14  C   UNL     1      44.632   4.481  10.869  0.00  0.00    +0.000 C 
ATOM     15  C   UNL     1      43.311   5.238  10.772  0.00  0.00    +0.000 C 
ATOM     16  C   UNL     1      43.364   3.948  11.518  0.00  0.00    +0.000 C 
BRANCH  14  17
ATOM     17  C   UNL     1      45.165   3.780   9.599  0.00  0.00    +0.000 A 
ATOM     18  N   UNL     1      45.204   2.431   9.550  0.00  0.00    +0.000 NA
ATOM     19  C   UNL     1      45.769   1.868   8.464  0.00  0.00    +0.000 A 
ATOM     20  C   UNL     1      46.306   2.590   7.427  0.00  0.00    +0.000 A 
ATOM     21  C   UNL     1      46.220   3.953   7.555  0.00  0.00    +0.000 A 
ATOM     22  N   UNL     1      45.667   4.568   8.617  0.00  0.00    +0.000 NA
ENDBRANCH  14  17
ENDBRANCH  12  14
ENDBRANCH   4  12
TORSDOF 4
ENDMDL
MODEL 3
REMARK VINA RESULT:    -5.920      3.211      6.203
REMARK INTER + INTRA:          -7.753
REMARK INTER:                  -7.418
REMARK INTRA:                  -0.335
REMARK UNBOUND:                -0.449
REMARK  Name = 
REMARK  4 active torsions:
REMARK  status: ('A' for Active; 'I' for Inactive)
REMARK    1  A    between atoms: C_2  and  C_4
REMARK    2  A    between atoms: C_7  and  N_8
REMARK    3  A    between atoms: N_8  and  C_9
REMARK    4  A    between atoms: C_9  and  C_10
REMARK                            x       y       z     vdW  Elec       q    Type
REMARK                         _______ _______ _______ _____ _____    ______ ____
ROOT
ATOM      1  C   UNL     1      48.155   6.913  13.961  0.00  0.00    +0.000 A 
ATOM      2  N   UNL     1      47.848   5.630  13.648  0.00  0.00    +0.000 NA
ATOM      3  C   UNL     1      46.817   5.473  12.777  0.00  0.00    +0.000 A 
ATOM      4  C   UNL     1      46.104   6.518  12.217  0.00  0.00    +0.000 A 
ATOM      5  C   UNL     1      46.542   7.774  12.611  0.00  0.00    +0.000 A 
ATOM      6  N   UNL     1      47.551   8.009  13.472  0.00  0.00    +0.000 NA
ENDROOT
BRANCH   1   8
ATOM      7  N   UNL     1      50.523   7.350  14.401  0.00  0.00    +0.000 N 
ATOM      8  C   UNL     1      49.281   7.121  14.949  0.00  0.00    +0.000 C 
ATOM      9  O   UNL     1      49.138   7.093  16.168  0.00  0.00    +0.000 OA
ATOM     10  H   UNL     1      51.311   7.491  15.012  0.00  0.00    +0.000 HD
ATOM     11  H   UNL     1      50.635   7.364  13.393  0.00  0.00    +0.000 HD
ENDBRANCH   1   8
BRANCH   4  12
ATOM     12  N   UNL     1      45.018   6.405  11.346  0.00  0.00    +0.000 N 
ATOM     13  H   UNL     1      45.188   6.890  10.460  0.00  0.00    +0.000 HD
BRANCH  12  14
ATOM     14  C   UNL     1      44.201   5.174  11.173  0.00  0.00    +0.000 C 
ATOM     15  C   UNL     1      42.704   5.430  11.314  0.00  0.00    +0.000 C 
ATOM     16  C   UNL     1      43.393   4.548  12.298  0.00  0.00    +0.000 C 
BRANCH  14  17
ATOM     17  C   UNL     1      44.679   4.272  10.013  0.00  0.00    +0.000 A 
ATOM     18  N   UNL     1      44.502   2.935  10.092  0.00  0.00    +0.000 NA
ATOM     19  C   UNL     1      45.025   2.183   9.105  0.00  0.00    +0.000 A 
ATOM     20  C   UNL     1      45.727   2.702   8.045  0.00  0.00    +0.000 A 
ATOM     21  C   UNL     1      45.856   4.067   8.039  0.00  0.00    +0.000 A 
ATOM     22  N   UNL     1      45.354   4.866   8.999  0.00  0.00    +0.000 NA
ENDBRANCH  14  17
ENDBRANCH  12  14
ENDBRANCH   4  12
TORSDOF 4
ENDMDL
MODEL 4
REMARK VINA RESULT:    -5.645      3.309      5.426
REMARK INTER + INTRA:          -7.413
REMARK INTER:                  -7.306
REMARK INTRA:                  -0.107
REMARK UNBOUND:                -0.449
REMARK  Name = 
REMARK  4 active torsions:
REMARK  status: ('A' for Active; 'I' for Inactive)
REMARK    1  A    between atoms: C_2  and  C_4
REMARK    2  A    between atoms: C_7  and  N_8
REMARK    3  A    between atoms: N_8  and  C_9
REMARK    4  A    between atoms: C_9  and  C_10
REMARK                            x       y       z     vdW  Elec       q    Type
REMARK                         _______ _______ _______ _____ _____    ______ ____
ROOT
ATOM      1  C   UNL     1      44.832   3.848  11.837  0.00  0.00    +0.000 A 
ATOM      2  N   UNL     1      44.826   5.075  11.262  0.00  0.00    +0.000 NA
ATOM      3  C   UNL     1      45.516   6.035  11.931  0.00  0.00    +0.000 A 
ATOM      4  C   UNL     1      46.197   5.823  13.116  0.00  0.00    +0.000 A 
ATOM      5  C   UNL     1      46.134   4.516  13.576  0.00  0.00    +0.000 A 
ATOM      6  N   UNL     1      45.468   3.513  12.972  0.00  0.00    +0.000 NA
ENDROOT
BRANCH   1   8
ATOM      7  N   UNL     1      44.631   2.254   9.990  0.00  0.00    +0.000 N 
ATOM      8  C   UNL     1      44.051   2.762  11.130  0.00  0.00    +0.000 C 
ATOM      9  O   UNL     1      42.967   2.335  11.516  0.00  0.00    +0.000 OA
ATOM     10  H   UNL     1      44.153   1.531   9.476  0.00  0.00    +0.000 HD
ATOM     11  H   UNL     1      45.523   2.617   9.673  0.00  0.00    +0.000 HD
ENDBRANCH   1   8
BRANCH   4  12
ATOM     12  N   UNL     1      46.889   6.785  13.856  0.00  0.00    +0.000 N 
ATOM     13  H   UNL     1      46.557   6.831  14.824  0.00  0.00    +0.000 HD
BRANCH  12  14
ATOM     14  C   UNL     1      48.350   7.044  13.743  0.00  0.00    +0.000 C 
ATOM     15  C   UNL     1      48.666   8.364  13.047  0.00  0.00    +0.000 C 
ATOM     16  C   UNL     1      49.087   7.082  12.414  0.00  0.00    +0.000 C 
BRANCH  14  17
ATOM     17  C   UNL     1      49.143   6.686  15.020  0.00  0.00    +0.000 A 
ATOM     18  N   UNL     1      50.426   7.089  15.142  0.00  0.00    +0.000 NA
ATOM     19  C   UNL     1      51.106   6.668  16.226  0.00  0.00    +0.000 A 
ATOM     20  C   UNL     1      50.568   5.854  17.191  0.00  0.00    +0.000 A 
ATOM     21  C   UNL     1      49.259   5.496  16.994  0.00  0.00    +0.000 A 
ATOM     22  N   UNL     1      48.533   5.887  15.929  0.00  0.00    +0.000 NA
ENDBRANCH  14  17
ENDBRANCH  12  14
ENDBRANCH   4  12
TORSDOF 4
ENDMDL
MODEL 5
REMARK VINA RESULT:    -5.536      4.192      7.170
REMARK INTER + INTRA:          -7.280
REMARK INTER:                  -6.994
REMARK INTRA:                  -0.285
REMARK UNBOUND:                -0.449
REMARK  Name = 
REMARK  4 active torsions:
REMARK  status: ('A' for Active; 'I' for Inactive)
REMARK    1  A    between atoms: C_2  and  C_4
REMARK    2  A    between atoms: C_7  and  N_8
REMARK    3  A    between atoms: N_8  and  C_9
REMARK    4  A    between atoms: C_9  and  C_10
REMARK                            x       y       z     vdW  Elec       q    Type
REMARK                         _______ _______ _______ _____ _____    ______ ____
ROOT
ATOM      1  C   UNL     1      48.058   4.518  16.540  0.00  0.00    +0.000 A 
ATOM      2  N   UNL     1      47.179   3.863  15.743  0.00  0.00    +0.000 NA
ATOM      3  C   UNL     1      46.937   4.445  14.541  0.00  0.00    +0.000 A 
ATOM      4  C   UNL     1      47.526   5.621  14.111  0.00  0.00    +0.000 A 
ATOM      5  C   UNL     1      48.418   6.169  15.021  0.00  0.00    +0.000 A 
ATOM      6  N   UNL     1      48.706   5.654  16.232  0.00  0.00    +0.000 NA
ENDROOT
BRANCH   1   8
ATOM      7  N   UNL     1      47.416   2.974  18.328  0.00  0.00    +0.000 N 
ATOM      8  C   UNL     1      48.329   3.909  17.899  0.00  0.00    +0.000 C 
ATOM      9  O   UNL     1      49.290   4.206  18.604  0.00  0.00    +0.000 OA
ATOM     10  H   UNL     1      47.544   2.538  19.227  0.00  0.00    +0.000 HD
ATOM     11  H   UNL     1      46.621   2.740  17.743  0.00  0.00    +0.000 HD
ENDBRANCH   1   8
BRANCH   4  12
ATOM     12  N   UNL     1      47.283   6.274  12.900  0.00  0.00    +0.000 N 
ATOM     13  H   UNL     1      47.638   5.741  12.102  0.00  0.00    +0.000 HD
BRANCH  12  14
ATOM     14  C   UNL     1      46.033   7.014  12.578  0.00  0.00    +0.000 C 
ATOM     15  C   UNL     1      46.281   8.264  11.741  0.00  0.00    +0.000 C 
ATOM     16  C   UNL     1      45.727   8.402  13.117  0.00  0.00    +0.000 C 
BRANCH  14  17
ATOM     17  C   UNL     1      44.854   6.096  12.184  0.00  0.00    +0.000 A 
ATOM     18  N   UNL     1      43.899   5.810  13.096  0.00  0.00    +0.000 NA
ATOM     19  C   UNL     1      42.948   4.926  12.737  0.00  0.00    +0.000 A 
ATOM     20  C   UNL     1      42.909   4.307  11.513  0.00  0.00    +0.000 A 
ATOM     21  C   UNL     1      43.912   4.658  10.645  0.00  0.00    +0.000 A 
ATOM     22  N   UNL     1      44.887   5.534  10.951  0.00  0.00    +0.000 NA
ENDBRANCH  14  17
ENDBRANCH  12  14
ENDBRANCH   4  12
TORSDOF 4
ENDMDL
MODEL 6
REMARK VINA RESULT:    -5.181      6.110      9.034
REMARK INTER + INTRA:          -6.842
REMARK INTER:                  -6.804
REMARK INTRA:                  -0.037
REMARK UNBOUND:                -0.449
REMARK  Name = 
REMARK  4 active torsions:
REMARK  status: ('A' for Active; 'I' for Inactive)
REMARK    1  A    between atoms: C_2  and  C_4
REMARK    2  A    between atoms: C_7  and  N_8
REMARK    3  A    between atoms: N_8  and  C_9
REMARK    4  A    between atoms: C_9  and  C_10
REMARK                            x       y       z     vdW  Elec       q    Type
REMARK                         _______ _______ _______ _____ _____    ______ ____
ROOT
ATOM      1  C   UNL     1      52.262   1.512  17.571  0.00  0.00    +0.000 A 
ATOM      2  N   UNL     1      52.671   2.700  18.080  0.00  0.00    +0.000 NA
ATOM      3  C   UNL     1      51.760   3.704  18.018  0.00  0.00    +0.000 A 
ATOM      4  C   UNL     1      50.489   3.573  17.488  0.00  0.00    +0.000 A 
ATOM      5  C   UNL     1      50.201   2.298  17.023  0.00  0.00    +0.000 A 
ATOM      6  N   UNL     1      51.052   1.254  17.046  0.00  0.00    +0.000 NA
ENDROOT
BRANCH   1   8
ATOM      7  N   UNL     1      53.029  -0.602  18.538  0.00  0.00    +0.000 N 
ATOM      8  C   UNL     1      53.263   0.378  17.601  0.00  0.00    +0.000 C 
ATOM      9  O   UNL     1      54.236   0.302  16.855  0.00  0.00    +0.000 OA
ATOM     10  H   UNL     1      53.667  -1.379  18.606  0.00  0.00    +0.000 HD
ATOM     11  H   UNL     1      52.228  -0.528  19.156  0.00  0.00    +0.000 HD
ENDBRANCH   1   8
BRANCH   4  12
ATOM     12  N   UNL     1      49.532   4.584  17.371  0.00  0.00    +0.000 N 
ATOM     13  H   UNL     1      49.918   5.426  16.933  0.00  0.00    +0.000 HD
BRANCH  12  14
ATOM     14  C   UNL     1      48.107   4.358  17.007  0.00  0.00    +0.000 C 
ATOM     15  C   UNL     1      47.140   4.763  18.115  0.00  0.00    +0.000 C 
ATOM     16  C   UNL     1      47.225   3.333  17.702  0.00  0.00    +0.000 C 
BRANCH  14  17
ATOM     17  C   UNL     1      47.766   4.768  15.557  0.00  0.00    +0.000 A 
ATOM     18  N   UNL     1      48.297   5.897  15.041  0.00  0.00    +0.000 NA
ATOM     19  C   UNL     1      47.891   6.265  13.810  0.00  0.00    +0.000 A 
ATOM     20  C   UNL     1      46.971   5.562  13.072  0.00  0.00    +0.000 A 
ATOM     21  C   UNL     1      46.486   4.426  13.667  0.00  0.00    +0.000 A 
ATOM     22  N   UNL     1      46.856   4.012  14.894  0.00  0.00    +0.000 NA
ENDBRANCH  14  17
ENDBRANCH  12  14
ENDBRANCH   4  12
TORSDOF 4
ENDMDL
MODEL 7
REMARK VINA RESULT:    -4.991      4.965      7.656
REMARK INTER + INTRA:          -6.606
REMARK INTER:                  -6.467
REMARK INTRA:                  -0.139
REMARK UNBOUND:                -0.449
REMARK  Name = 
REMARK  4 active torsions:
REMARK  status: ('A' for Active; 'I' for Inactive)
REMARK    1  A    between atoms: C_2  and  C_4
REMARK    2  A    between atoms: C_7  and  N_8
REMARK    3  A    between atoms: N_8  and  C_9
REMARK    4  A    between atoms: C_9  and  C_10
REMARK                            x       y       z     vdW  Elec       q    Type
REMARK                         _______ _______ _______ _____ _____    ______ ____
ROOT
ATOM      1  C   UNL     1      49.889   3.839  17.316  0.00  0.00    +0.000 A 
ATOM      2  N   UNL     1      49.618   5.147  17.092  0.00  0.00    +0.000 NA
ATOM      3  C   UNL     1      48.467   5.396  16.416  0.00  0.00    +0.000 A 
ATOM      4  C   UNL     1      47.598   4.417  15.971  0.00  0.00    +0.000 A 
ATOM      5  C   UNL     1      47.992   3.126  16.289  0.00  0.00    +0.000 A 
ATOM      6  N   UNL     1      49.119   2.800  16.951  0.00  0.00    +0.000 NA
ENDROOT
BRANCH   1   8
ATOM      7  N   UNL     1      51.300   4.070  19.304  0.00  0.00    +0.000 N 
ATOM      8  C   UNL     1      51.178   3.526  18.045  0.00  0.00    +0.000 C 
ATOM      9  O   UNL     1      52.081   2.838  17.578  0.00  0.00    +0.000 OA
ATOM     10  H   UNL     1      52.140   3.898  19.833  0.00  0.00    +0.000 HD
ATOM     11  H   UNL     1      50.554   4.644  19.680  0.00  0.00    +0.000 HD
ENDBRANCH   1   8
BRANCH   4  12
ATOM     12  N   UNL     1      46.423   4.622  15.242  0.00  0.00    +0.000 N 
ATOM     13  H   UNL     1      45.786   5.267  15.720  0.00  0.00    +0.000 HD
BRANCH  12  14
ATOM     14  C   UNL     1      46.362   4.756  13.762  0.00  0.00    +0.000 C 
ATOM     15  C   UNL     1      45.003   4.371  13.186  0.00  0.00    +0.000 C 
ATOM     16  C   UNL     1      46.206   3.568  12.826  0.00  0.00    +0.000 C 
BRANCH  14  17
ATOM     17  C   UNL     1      47.043   6.035  13.227  0.00  0.00    +0.000 A 
ATOM     18  N   UNL     1      46.302   7.144  13.010  0.00  0.00    +0.000 NA
ATOM     19  C   UNL     1      46.920   8.201  12.450  0.00  0.00    +0.000 A 
ATOM     20  C   UNL     1      48.244   8.201  12.086  0.00  0.00    +0.000 A 
ATOM     21  C   UNL     1      48.924   7.039  12.345  0.00  0.00    +0.000 A 
ATOM     22  N   UNL     1      48.356   5.953  12.903  0.00  0.00    +0.000 NA
ENDBRANCH  14  17
ENDBRANCH  12  14
ENDBRANCH   4  12
TORSDOF 4
ENDMDL
MODEL 8
REMARK VINA RESULT:    -4.766      3.666      6.387
REMARK INTER + INTRA:          -6.329
REMARK INTER:                  -6.088
REMARK INTRA:                  -0.241
REMARK UNBOUND:                -0.449
REMARK  Name = 
REMARK  4 active torsions:
REMARK  status: ('A' for Active; 'I' for Inactive)
REMARK    1  A    between atoms: C_2  and  C_4
REMARK    2  A    between atoms: C_7  and  N_8
REMARK    3  A    between atoms: N_8  and  C_9
REMARK    4  A    between atoms: C_9  and  C_10
REMARK                            x       y       z     vdW  Elec       q    Type
REMARK                         _______ _______ _______ _____ _____    ______ ____
ROOT
ATOM      1  C   UNL     1      45.802   4.454  12.624  0.00  0.00    +0.000 A 
ATOM      2  N   UNL     1      46.258   4.056  13.837  0.00  0.00    +0.000 NA
ATOM      3  C   UNL     1      46.923   5.002  14.548  0.00  0.00    +0.000 A 
ATOM      4  C   UNL     1      47.140   6.296  14.112  0.00  0.00    +0.000 A 
ATOM      5  C   UNL     1      46.601   6.568  12.863  0.00  0.00    +0.000 A 
ATOM      6  N   UNL     1      45.934   5.683  12.097  0.00  0.00    +0.000 NA
ENDROOT
BRANCH   1   8
ATOM      7  N   UNL     1      44.341   2.494  12.501  0.00  0.00    +0.000 N 
ATOM      8  C   UNL     1      45.080   3.415  11.794  0.00  0.00    +0.000 C 
ATOM      9  O   UNL     1      45.126   3.363  10.568  0.00  0.00    +0.000 OA
ATOM     10  H   UNL     1      43.843   1.776  12.000  0.00  0.00    +0.000 HD
ATOM     11  H   UNL     1      44.314   2.538  13.514  0.00  0.00    +0.000 HD
ENDBRANCH   1   8
BRANCH   4  12
ATOM     12  N   UNL     1      47.847   7.292  14.792  0.00  0.00    +0.000 N 
ATOM     13  H   UNL     1      47.228   7.875  15.364  0.00  0.00    +0.000 HD
BRANCH  12  14
ATOM     14  C   UNL     1      49.183   7.100  15.416  0.00  0.00    +0.000 C 
ATOM     15  C   UNL     1      49.969   8.400  15.548  0.00  0.00    +0.000 C 
ATOM     16  C   UNL     1      50.489   7.316  14.667  0.00  0.00    +0.000 C 
BRANCH  14  17
ATOM     17  C   UNL     1      49.171   6.130  16.619  0.00  0.00    +0.000 A 
ATOM     18  N   UNL     1      49.958   5.032  16.598  0.00  0.00    +0.000 NA
ATOM     19  C   UNL     1      49.838   4.167  17.622  0.00  0.00    +0.000 A 
ATOM     20  C   UNL     1      48.962   4.340  18.665  0.00  0.00    +0.000 A 
ATOM     21  C   UNL     1      48.206   5.483  18.612  0.00  0.00    +0.000 A 
ATOM     22  N   UNL     1      48.284   6.381  17.613  0.00  0.00    +0.000 NA
ENDBRANCH  14  17
ENDBRANCH  12  14
ENDBRANCH   4  12
TORSDOF 4
ENDMDL
