MODEL 1
REMARK VINA RESULT:    -8.436      0.000      0.000
REMARK INTER + INTRA:         -12.604
REMARK INTER:                 -11.396
REMARK INTRA:                  -1.208
REMARK UNBOUND:                -1.208
REMARK  Name = 
REMARK  6 active torsions:
REMARK  status: ('A' for Active; 'I' for Inactive)
REMARK    1  A    between atoms: C_2  and  C_25
REMARK    2  A    between atoms: N_3  and  C_4
REMARK    3  A    between atoms: C_4  and  C_5
REMARK    4  A    between atoms: C_8  and  C_9
REMARK    5  A    between atoms: C_9  and  N_10
REMARK    6  A    between atoms: C_11  and  C_13
REMARK                            x       y       z     vdW  Elec       q    Type
REMARK                         _______ _______ _______ _____ _____    ______ ____
ROOT
ATOM      1  C   UNL     1      44.853   5.360  10.635  0.00  0.00    +0.000 A 
ATOM      2  C   UNL     1      44.251   5.688  11.858  0.00  0.00    +0.000 A 
ATOM      3  C   UNL     1      44.873   6.574  12.745  0.00  0.00    +0.000 A 
ATOM      4  C   UNL     1      46.099   7.170  12.420  0.00  0.00    +0.000 A 
ATOM      5  C   UNL     1      46.695   6.848  11.193  0.00  0.00    +0.000 A 
ATOM      6  C   UNL     1      46.073   5.963  10.305  0.00  0.00    +0.000 A 
ENDROOT
BRANCH   1   7
ATOM      7  C   UNL     1      44.215   4.354   9.712  0.00  0.00    +0.000 C 
BRANCH   7  10
ATOM      8  O   UNL     1      45.331   1.833   9.385  0.00  0.00    +0.000 OA
ATOM      9  C   UNL     1      45.569   2.695   8.547  0.00  0.00    +0.000 C 
ATOM     10  N   UNL     1      45.072   3.976   8.613  0.00  0.00    +0.000 N 
ATOM     11  H   UNL     1      45.169   4.608   7.830  0.00  0.00    +0.000 HD
BRANCH   9  12
ATOM     12  C   UNL     1      46.404   2.414   7.365  0.00  0.00    +0.000 C 
ATOM     13  C   UNL     1      46.544   3.191   6.168  0.00  0.00    +0.000 C 
ATOM     14  C   UNL     1      47.602   2.464   5.443  0.00  0.00    +0.000 C 
ATOM     15  N   UNL     1      48.030   1.419   6.087  0.00  0.00    +0.000 NA
ATOM     16  C   UNL     1      47.298   1.418   7.267  0.00  0.00    +0.000 C 
ENDBRANCH   9  12
ENDBRANCH   7  10
ENDBRANCH   1   7
BRANCH   4  17
ATOM     17  C   UNL     1      46.786   8.107  13.381  0.00  0.00    +0.000 C 
BRANCH  17  18
ATOM     18  N   UNL     1      47.293   7.411  14.537  0.00  0.00    +0.000 N 
ATOM     19  C   UNL     1      48.582   6.937  14.567  0.00  0.00    +0.000 C 
ATOM     20  O   UNL     1      49.360   7.119  13.633  0.00  0.00    +0.000 OA
ATOM     21  H   UNL     1      46.615   7.060  15.207  0.00  0.00    +0.000 HD
BRANCH  19  22
ATOM     22  C   UNL     1      49.011   6.258  15.797  0.00  0.00    +0.000 A 
ATOM     23  C   UNL     1      50.112   6.735  16.496  0.00  0.00    +0.000 A 
ATOM     24  S   UNL     1      50.440   5.873  17.930  0.00  0.00    +0.000 S 
ATOM     25  C   UNL     1      49.156   4.796  17.641  0.00  0.00    +0.000 A 
ATOM     26  N   UNL     1      48.894   3.774  18.500  0.00  0.00    +0.000 NA
ATOM     27  C   UNL     1      47.917   3.012  18.139  0.00  0.00    +0.000 A 
ATOM     28  N   UNL     1      47.173   3.182  16.999  0.00  0.00    +0.000 N 
ATOM     29  C   UNL     1      47.380   4.219  16.120  0.00  0.00    +0.000 A 
ATOM     30  O   UNL     1      46.669   4.369  15.132  0.00  0.00    +0.000 OA
ATOM     31  C   UNL     1      48.477   5.098  16.473  0.00  0.00    +0.000 A 
ATOM     32  H   UNL     1      46.415   2.553  16.779  0.00  0.00    +0.000 HD
ENDBRANCH  19  22
ENDBRANCH  17  18
ENDBRANCH   4  17
TORSDOF 6
ENDMDL
MODEL 2
REMARK VINA RESULT:    -7.707      1.360      1.448
REMARK INTER + INTRA:         -11.619
REMARK INTER:                 -10.872
REMARK INTRA:                  -0.747
REMARK UNBOUND:                -1.208
REMARK  Name = 
REMARK  6 active torsions:
REMARK  status: ('A' for Active; 'I' for Inactive)
REMARK    1  A    between atoms: C_2  and  C_25
REMARK    2  A    between atoms: N_3  and  C_4
REMARK    3  A    between atoms: C_4  and  C_5
REMARK    4  A    between atoms: C_8  and  C_9
REMARK    5  A    between atoms: C_9  and  N_10
REMARK    6  A    between atoms: C_11  and  C_13
REMARK                            x       y       z     vdW  Elec       q    Type
REMARK                         _______ _______ _______ _____ _____    ______ ____
ROOT
ATOM      1  C   UNL     1      45.081   4.569  11.774  0.00  0.00    +0.000 A 
ATOM      2  C   UNL     1      45.933   4.317  12.859  0.00  0.00    +0.000 A 
ATOM      3  C   UNL     1      46.662   5.354  13.452  0.00  0.00    +0.000 A 
ATOM      4  C   UNL     1      46.539   6.671  12.989  0.00  0.00    +0.000 A 
ATOM      5  C   UNL     1      45.680   6.924  11.910  0.00  0.00    +0.000 A 
ATOM      6  C   UNL     1      44.950   5.887  11.318  0.00  0.00    +0.000 A 
ENDROOT
BRANCH   1   7
ATOM      7  C   UNL     1      44.350   3.441  11.094  0.00  0.00    +0.000 C 
BRANCH   7  10
ATOM      8  O   UNL     1      44.401   4.140   8.407  0.00  0.00    +0.000 OA
ATOM      9  C   UNL     1      45.100   3.207   8.787  0.00  0.00    +0.000 C 
ATOM     10  N   UNL     1      45.149   2.776  10.092  0.00  0.00    +0.000 N 
ATOM     11  H   UNL     1      45.845   2.106  10.388  0.00  0.00    +0.000 HD
BRANCH   9  12
ATOM     12  C   UNL     1      45.981   2.476   7.859  0.00  0.00    +0.000 C 
ATOM     13  C   UNL     1      46.701   2.982   6.727  0.00  0.00    +0.000 C 
ATOM     14  C   UNL     1      47.488   1.810   6.304  0.00  0.00    +0.000 C 
ATOM     15  N   UNL     1      47.280   0.765   7.049  0.00  0.00    +0.000 NA
ATOM     16  C   UNL     1      46.371   1.199   8.004  0.00  0.00    +0.000 C 
ENDBRANCH   9  12
ENDBRANCH   7  10
ENDBRANCH   1   7
BRANCH   4  17
ATOM     17  C   UNL     1      47.338   7.790  13.608  0.00  0.00    +0.000 C 
BRANCH  17  18
ATOM     18  N   UNL     1      47.814   7.442  14.924  0.00  0.00    +0.000 N 
ATOM     19  C   UNL     1      49.125   7.089  15.131  0.00  0.00    +0.000 C 
ATOM     20  O   UNL     1      49.948   7.091  14.218  0.00  0.00    +0.000 OA
ATOM     21  H   UNL     1      47.118   7.218  15.628  0.00  0.00    +0.000 HD
BRANCH  19  22
ATOM     22  C   UNL     1      49.516   6.771  16.511  0.00  0.00    +0.000 A 
ATOM     23  C   UNL     1      50.528   7.499  17.122  0.00  0.00    +0.000 A 
ATOM     24  S   UNL     1      50.819   7.046  18.740  0.00  0.00    +0.000 S 
ATOM     25  C   UNL     1      49.641   5.821  18.664  0.00  0.00    +0.000 A 
ATOM     26  N   UNL     1      49.396   5.019  19.737  0.00  0.00    +0.000 NA
ATOM     27  C   UNL     1      48.505   4.109  19.529  0.00  0.00    +0.000 A 
ATOM     28  N   UNL     1      47.832   3.930  18.348  0.00  0.00    +0.000 N 
ATOM     29  C   UNL     1      48.022   4.736  17.250  0.00  0.00    +0.000 A 
ATOM     30  O   UNL     1      47.372   4.577  16.222  0.00  0.00    +0.000 OA
ATOM     31  C   UNL     1      49.024   5.768  17.427  0.00  0.00    +0.000 A 
ATOM     32  H   UNL     1      47.140   3.202  18.254  0.00  0.00    +0.000 HD
ENDBRANCH  19  22
ENDBRANCH  17  18
ENDBRANCH   4  17
TORSDOF 6
ENDMDL
MODEL 3
REMARK VINA RESULT:    -7.576      2.272      2.696
REMARK INTER + INTRA:         -11.441
REMARK INTER:                 -10.488
REMARK INTRA:                  -0.953
REMARK UNBOUND:                -1.208
REMARK  Name = 
REMARK  6 active torsions:
REMARK  status: ('A' for Active; 'I' for Inactive)
REMARK    1  A    between atoms: C_2  and  C_25
REMARK    2  A    between atoms: N_3  and  C_4
REMARK    3  A    between atoms: C_4  and  C_5
REMARK    4  A    between atoms: C_8  and  C_9
REMARK    5  A    between atoms: C_9  and  N_10
REMARK    6  A    between atoms: C_11  and  C_13
REMARK                            x       y       z     vdW  Elec       q    Type
REMARK                         _______ _______ _______ _____ _____    ______ ____
ROOT
ATOM      1  C   UNL     1      45.201   5.177  11.252  0.00  0.00    +0.000 A 
ATOM      2  C   UNL     1      45.782   4.544  12.360  0.00  0.00    +0.000 A 
ATOM      3  C   UNL     1      46.670   5.234  13.193  0.00  0.00    +0.000 A 
ATOM      4  C   UNL     1      46.979   6.579  12.951  0.00  0.00    +0.000 A 
ATOM      5  C   UNL     1      46.390   7.214  11.849  0.00  0.00    +0.000 A 
ATOM      6  C   UNL     1      45.502   6.524  11.016  0.00  0.00    +0.000 A 
ENDROOT
BRANCH   1   7
ATOM      7  C   UNL     1      44.300   4.413  10.317  0.00  0.00    +0.000 C 
BRANCH   7  10
ATOM      8  O   UNL     1      45.833   4.756   8.027  0.00  0.00    +0.000 OA
ATOM      9  C   UNL     1      45.719   3.629   8.497  0.00  0.00    +0.000 C 
ATOM     10  N   UNL     1      44.982   3.346   9.623  0.00  0.00    +0.000 N 
ATOM     11  H   UNL     1      45.037   2.436  10.059  0.00  0.00    +0.000 HD
BRANCH   9  12
ATOM     12  C   UNL     1      46.398   2.469   7.892  0.00  0.00    +0.000 C 
ATOM     13  C   UNL     1      46.134   1.075   8.097  0.00  0.00    +0.000 C 
ATOM     14  C   UNL     1      47.041   0.436   7.127  0.00  0.00    +0.000 C 
ATOM     15  N   UNL     1      47.743   1.296   6.449  0.00  0.00    +0.000 NA
ATOM     16  C   UNL     1      47.321   2.532   6.919  0.00  0.00    +0.000 C 
ENDBRANCH   9  12
ENDBRANCH   7  10
ENDBRANCH   1   7
BRANCH   4  17
ATOM     17  C   UNL     1      47.952   7.323  13.832  0.00  0.00    +0.000 C 
BRANCH  17  18
ATOM     18  N   UNL     1      47.888   6.870  15.200  0.00  0.00    +0.000 N 
ATOM     19  C   UNL     1      49.029   6.533  15.886  0.00  0.00    +0.000 C 
ATOM     20  O   UNL     1      50.143   6.639  15.380  0.00  0.00    +0.000 OA
ATOM     21  H   UNL     1      46.984   6.567  15.550  0.00  0.00    +0.000 HD
BRANCH  19  22
ATOM     22  C   UNL     1      48.861   6.103  17.280  0.00  0.00    +0.000 A 
ATOM     23  C   UNL     1      49.168   4.796  17.637  0.00  0.00    +0.000 A 
ATOM     24  S   UNL     1      48.976   4.476  19.301  0.00  0.00    +0.000 S 
ATOM     25  C   UNL     1      48.423   6.057  19.596  0.00  0.00    +0.000 A 
ATOM     26  N   UNL     1      48.056   6.447  20.847  0.00  0.00    +0.000 NA
ATOM     27  C   UNL     1      47.621   7.660  20.921  0.00  0.00    +0.000 A 
ATOM     28  N   UNL     1      47.524   8.521  19.859  0.00  0.00    +0.000 N 
ATOM     29  C   UNL     1      47.913   8.182  18.584  0.00  0.00    +0.000 A 
ATOM     30  O   UNL     1      47.854   8.990  17.663  0.00  0.00    +0.000 OA
ATOM     31  C   UNL     1      48.399   6.823  18.444  0.00  0.00    +0.000 A 
ATOM     32  H   UNL     1      47.181   9.461  19.987  0.00  0.00    +0.000 HD
ENDBRANCH  19  22
ENDBRANCH  17  18
ENDBRANCH   4  17
TORSDOF 6
ENDMDL
MODEL 4
REMARK VINA RESULT:    -7.401      2.588      3.163
REMARK INTER + INTRA:         -11.206
REMARK INTER:                 -10.489
REMARK INTRA:                  -0.717
REMARK UNBOUND:                -1.208
REMARK  Name = 
REMARK  6 active torsions:
REMARK  status: ('A' for Active; 'I' for Inactive)
REMARK    1  A    between atoms: C_2  and  C_25
REMARK    2  A    between atoms: N_3  and  C_4
REMARK    3  A    between atoms: C_4  and  C_5
REMARK    4  A    between atoms: C_8  and  C_9
REMARK    5  A    between atoms: C_9  and  N_10
REMARK    6  A    between atoms: C_11  and  C_13
REMARK                            x       y       z     vdW  Elec       q    Type
REMARK                         _______ _______ _______ _____ _____    ______ ____
ROOT
ATOM      1  C   UNL     1      45.265   4.660  11.181  0.00  0.00    +0.000 A 
ATOM      2  C   UNL     1      45.188   3.483  11.939  0.00  0.00    +0.000 A 
ATOM      3  C   UNL     1      45.825   3.391  13.182  0.00  0.00    +0.000 A 
ATOM      4  C   UNL     1      46.533   4.480  13.706  0.00  0.00    +0.000 A 
ATOM      5  C   UNL     1      46.601   5.660  12.952  0.00  0.00    +0.000 A 
ATOM      6  C   UNL     1      45.964   5.753  11.709  0.00  0.00    +0.000 A 
ENDROOT
BRANCH   1   7
ATOM      7  C   UNL     1      44.637   4.734   9.813  0.00  0.00    +0.000 C 
BRANCH   7  10
ATOM      8  O   UNL     1      44.720   2.107   8.916  0.00  0.00    +0.000 OA
ATOM      9  C   UNL     1      45.466   2.930   8.397  0.00  0.00    +0.000 C 
ATOM     10  N   UNL     1      45.509   4.255   8.767  0.00  0.00    +0.000 N 
ATOM     11  H   UNL     1      46.026   4.927   8.217  0.00  0.00    +0.000 HD
BRANCH   9  12
ATOM     12  C   UNL     1      46.375   2.564   7.297  0.00  0.00    +0.000 C 
ATOM     13  C   UNL     1      46.664   3.295   6.098  0.00  0.00    +0.000 C 
ATOM     14  C   UNL     1      47.728   2.483   5.482  0.00  0.00    +0.000 C 
ATOM     15  N   UNL     1      48.033   1.432   6.185  0.00  0.00    +0.000 NA
ATOM     16  C   UNL     1      47.208   1.511   7.298  0.00  0.00    +0.000 C 
ENDBRANCH   9  12
ENDBRANCH   7  10
ENDBRANCH   1   7
BRANCH   4  17
ATOM     17  C   UNL     1      47.240   4.381  15.034  0.00  0.00    +0.000 C 
BRANCH  17  18
ATOM     18  N   UNL     1      47.575   5.681  15.560  0.00  0.00    +0.000 N 
ATOM     19  C   UNL     1      48.689   5.861  16.343  0.00  0.00    +0.000 C 
ATOM     20  O   UNL     1      49.460   4.937  16.593  0.00  0.00    +0.000 OA
ATOM     21  H   UNL     1      46.847   6.389  15.554  0.00  0.00    +0.000 HD
BRANCH  19  22
ATOM     22  C   UNL     1      48.955   7.227  16.814  0.00  0.00    +0.000 A 
ATOM     23  C   UNL     1      49.786   8.058  16.075  0.00  0.00    +0.000 A 
ATOM     24  S   UNL     1      49.943   9.627  16.725  0.00  0.00    +0.000 S 
ATOM     25  C   UNL     1      48.950   9.235  18.049  0.00  0.00    +0.000 A 
ATOM     26  N   UNL     1      48.688  10.150  19.021  0.00  0.00    +0.000 NA
ATOM     27  C   UNL     1      47.952   9.708  19.985  0.00  0.00    +0.000 A 
ATOM     28  N   UNL     1      47.449   8.434  20.063  0.00  0.00    +0.000 N 
ATOM     29  C   UNL     1      47.660   7.487  19.089  0.00  0.00    +0.000 A 
ATOM     30  O   UNL     1      47.160   6.370  19.167  0.00  0.00    +0.000 OA
ATOM     31  C   UNL     1      48.493   7.929  17.988  0.00  0.00    +0.000 A 
ATOM     32  H   UNL     1      46.872   8.154  20.842  0.00  0.00    +0.000 HD
ENDBRANCH  19  22
ENDBRANCH  17  18
ENDBRANCH   4  17
TORSDOF 6
ENDMDL
MODEL 5
REMARK VINA RESULT:    -7.390      2.117      3.596
REMARK INTER + INTRA:         -11.191
REMARK INTER:                 -10.168
REMARK INTRA:                  -1.023
REMARK UNBOUND:                -1.208
REMARK  Name = 
REMARK  6 active torsions:
REMARK  status: ('A' for Active; 'I' for Inactive)
REMARK    1  A    between atoms: C_2  and  C_25
REMARK    2  A    between atoms: N_3  and  C_4
REMARK    3  A    between atoms: C_4  and  C_5
REMARK    4  A    between atoms: C_8  and  C_9
REMARK    5  A    between atoms: C_9  and  N_10
REMARK    6  A    between atoms: C_11  and  C_13
REMARK                            x       y       z     vdW  Elec       q    Type
REMARK                         _______ _______ _______ _____ _____    ______ ____
ROOT
ATOM      1  C   UNL     1      45.250   4.474  11.334  0.00  0.00    +0.000 A 
ATOM      2  C   UNL     1      45.700   5.684  11.879  0.00  0.00    +0.000 A 
ATOM      3  C   UNL     1      46.286   5.721  13.150  0.00  0.00    +0.000 A 
ATOM      4  C   UNL     1      46.457   4.546  13.894  0.00  0.00    +0.000 A 
ATOM      5  C   UNL     1      46.015   3.334  13.343  0.00  0.00    +0.000 A 
ATOM      6  C   UNL     1      45.429   3.297  12.073  0.00  0.00    +0.000 A 
ENDROOT
BRANCH   1   7
ATOM      7  C   UNL     1      44.557   4.446   9.996  0.00  0.00    +0.000 C 
BRANCH   7  10
ATOM      8  O   UNL     1      44.758   1.856   9.013  0.00  0.00    +0.000 OA
ATOM      9  C   UNL     1      45.449   2.734   8.507  0.00  0.00    +0.000 C 
ATOM     10  N   UNL     1      45.431   4.046   8.918  0.00  0.00    +0.000 N 
ATOM     11  H   UNL     1      45.901   4.761   8.380  0.00  0.00    +0.000 HD
BRANCH   9  12
ATOM     12  C   UNL     1      46.354   2.450   7.379  0.00  0.00    +0.000 C 
ATOM     13  C   UNL     1      46.557   3.217   6.185  0.00  0.00    +0.000 C 
ATOM     14  C   UNL     1      47.661   2.493   5.529  0.00  0.00    +0.000 C 
ATOM     15  N   UNL     1      48.060   1.457   6.207  0.00  0.00    +0.000 NA
ATOM     16  C   UNL     1      47.260   1.460   7.342  0.00  0.00    +0.000 C 
ENDBRANCH   9  12
ENDBRANCH   7  10
ENDBRANCH   1   7
BRANCH   4  17
ATOM     17  C   UNL     1      47.067   4.581  15.272  0.00  0.00    +0.000 C 
BRANCH  17  18
ATOM     18  N   UNL     1      47.784   5.810  15.508  0.00  0.00    +0.000 N 
ATOM     19  C   UNL     1      48.915   5.829  16.287  0.00  0.00    +0.000 C 
ATOM     20  O   UNL     1      49.379   4.803  16.779  0.00  0.00    +0.000 OA
ATOM     21  H   UNL     1      47.301   6.679  15.305  0.00  0.00    +0.000 HD
BRANCH  19  22
ATOM     22  C   UNL     1      49.586   7.126  16.451  0.00  0.00    +0.000 A 
ATOM     23  C   UNL     1      49.774   7.645  17.725  0.00  0.00    +0.000 A 
ATOM     24  S   UNL     1      50.619   9.125  17.745  0.00  0.00    +0.000 S 
ATOM     25  C   UNL     1      50.716   9.154  16.047  0.00  0.00    +0.000 A 
ATOM     26  N   UNL     1      51.315  10.190  15.399  0.00  0.00    +0.000 NA
ATOM     27  C   UNL     1      51.285  10.101  14.112  0.00  0.00    +0.000 A 
ATOM     28  N   UNL     1      50.715   9.069  13.413  0.00  0.00    +0.000 N 
ATOM     29  C   UNL     1      50.129   7.986  14.025  0.00  0.00    +0.000 A 
ATOM     30  O   UNL     1      49.666   7.057  13.371  0.00  0.00    +0.000 OA
ATOM     31  C   UNL     1      50.125   8.042  15.474  0.00  0.00    +0.000 A 
ATOM     32  H   UNL     1      50.732   9.057  12.404  0.00  0.00    +0.000 HD
ENDBRANCH  19  22
ENDBRANCH  17  18
ENDBRANCH   4  17
TORSDOF 6
ENDMDL
MODEL 6
REMARK VINA RESULT:    -7.069      4.786      9.261
REMARK INTER + INTRA:         -10.757
REMARK INTER:                  -9.955
REMARK INTRA:                  -0.802
REMARK UNBOUND:                -1.208
REMARK  Name = 
REMARK  6 active torsions:
REMARK  status: ('A' for Active; 'I' for Inactive)
REMARK    1  A    between atoms: C_2  and  C_25
REMARK    2  A    between atoms: N_3  and  C_4
REMARK    3  A    between atoms: C_4  and  C_5
REMARK    4  A    between atoms: C_8  and  C_9
REMARK    5  A    between atoms: C_9  and  N_10
REMARK    6  A    between atoms: C_11  and  C_13
REMARK                            x       y       z     vdW  Elec       q    Type
REMARK                         _______ _______ _______ _____ _____    ______ ____
ROOT
ATOM      1  C   UNL     1      51.425   3.167  17.740  0.00  0.00    +0.000 A 
ATOM      2  C   UNL     1      50.748   2.089  17.154  0.00  0.00    +0.000 A 
ATOM      3  C   UNL     1      49.372   2.159  16.904  0.00  0.00    +0.000 A 
ATOM      4  C   UNL     1      48.648   3.318  17.213  0.00  0.00    +0.000 A 
ATOM      5  C   UNL     1      49.327   4.400  17.790  0.00  0.00    +0.000 A 
ATOM      6  C   UNL     1      50.702   4.330  18.039  0.00  0.00    +0.000 A 
ENDROOT
BRANCH   1   7
ATOM      7  C   UNL     1      52.891   3.064  18.071  0.00  0.00    +0.000 C 
BRANCH   7  10
ATOM      8  O   UNL     1      54.293   1.184  19.559  0.00  0.00    +0.000 OA
ATOM      9  C   UNL     1      54.180   1.014  18.350  0.00  0.00    +0.000 C 
ATOM     10  N   UNL     1      53.511   1.882  17.519  0.00  0.00    +0.000 N 
ATOM     11  H   UNL     1      53.314   1.630  16.561  0.00  0.00    +0.000 HD
BRANCH   9  12
ATOM     12  C   UNL     1      54.743  -0.174  17.682  0.00  0.00    +0.000 C 
ATOM     13  C   UNL     1      55.380  -1.313  18.275  0.00  0.00    +0.000 C 
ATOM     14  C   UNL     1      55.594  -2.195  17.114  0.00  0.00    +0.000 C 
ATOM     15  N   UNL     1      55.164  -1.679  16.001  0.00  0.00    +0.000 NA
ATOM     16  C   UNL     1      54.632  -0.452  16.373  0.00  0.00    +0.000 C 
ENDBRANCH   9  12
ENDBRANCH   7  10
ENDBRANCH   1   7
BRANCH   4  17
ATOM     17  C   UNL     1      47.161   3.393  16.967  0.00  0.00    +0.000 C 
BRANCH  17  18
ATOM     18  N   UNL     1      46.831   4.405  15.994  0.00  0.00    +0.000 N 
ATOM     19  C   UNL     1      46.941   4.154  14.648  0.00  0.00    +0.000 C 
ATOM     20  O   UNL     1      47.286   3.054  14.221  0.00  0.00    +0.000 OA
ATOM     21  H   UNL     1      46.767   5.364  16.320  0.00  0.00    +0.000 HD
BRANCH  19  22
ATOM     22  C   UNL     1      46.563   5.242  13.737  0.00  0.00    +0.000 A 
ATOM     23  C   UNL     1      47.449   6.287  13.510  0.00  0.00    +0.000 A 
ATOM     24  S   UNL     1      46.883   7.434  12.383  0.00  0.00    +0.000 S 
ATOM     25  C   UNL     1      45.409   6.606  12.199  0.00  0.00    +0.000 A 
ATOM     26  N   UNL     1      44.439   7.081  11.371  0.00  0.00    +0.000 NA
ATOM     27  C   UNL     1      43.360   6.374  11.355  0.00  0.00    +0.000 A 
ATOM     28  N   UNL     1      43.162   5.232  12.088  0.00  0.00    +0.000 N 
ATOM     29  C   UNL     1      44.125   4.697  12.911  0.00  0.00    +0.000 A 
ATOM     30  O   UNL     1      43.933   3.650  13.520  0.00  0.00    +0.000 OA
ATOM     31  C   UNL     1      45.355   5.461  12.975  0.00  0.00    +0.000 A 
ATOM     32  H   UNL     1      42.294   4.721  12.024  0.00  0.00    +0.000 HD
ENDBRANCH  19  22
ENDBRANCH  17  18
ENDBRANCH   4  17
TORSDOF 6
ENDMDL
MODEL 7
REMARK VINA RESULT:    -6.696      4.614      7.206
REMARK INTER + INTRA:         -10.253
REMARK INTER:                  -9.324
REMARK INTRA:                  -0.929
REMARK UNBOUND:                -1.208
REMARK  Name = 
REMARK  6 active torsions:
REMARK  status: ('A' for Active; 'I' for Inactive)
REMARK    1  A    between atoms: C_2  and  C_25
REMARK    2  A    between atoms: N_3  and  C_4
REMARK    3  A    between atoms: C_4  and  C_5
REMARK    4  A    between atoms: C_8  and  C_9
REMARK    5  A    between atoms: C_9  and  N_10
REMARK    6  A    between atoms: C_11  and  C_13
REMARK                            x       y       z     vdW  Elec       q    Type
REMARK                         _______ _______ _______ _____ _____    ______ ____
ROOT
ATOM      1  C   UNL     1      50.528   8.754  11.346  0.00  0.00    +0.000 A 
ATOM      2  C   UNL     1      49.688   9.860  11.542  0.00  0.00    +0.000 A 
ATOM      3  C   UNL     1      48.395   9.694  12.052  0.00  0.00    +0.000 A 
ATOM      4  C   UNL     1      47.921   8.422  12.399  0.00  0.00    +0.000 A 
ATOM      5  C   UNL     1      48.765   7.318  12.213  0.00  0.00    +0.000 A 
ATOM      6  C   UNL     1      50.058   7.484  11.704  0.00  0.00    +0.000 A 
ENDROOT
BRANCH   1   7
ATOM      7  C   UNL     1      51.893   8.927  10.734  0.00  0.00    +0.000 C 
BRANCH   7  10
ATOM      8  O   UNL     1      54.193   7.391  10.478  0.00  0.00    +0.000 OA
ATOM      9  C   UNL     1      53.320   7.292   9.623  0.00  0.00    +0.000 C 
ATOM     10  N   UNL     1      52.145   8.007   9.650  0.00  0.00    +0.000 N 
ATOM     11  H   UNL     1      51.393   7.786   9.012  0.00  0.00    +0.000 HD
BRANCH   9  12
ATOM     12  C   UNL     1      53.452   6.359   8.489  0.00  0.00    +0.000 C 
ATOM     13  C   UNL     1      54.255   5.175   8.398  0.00  0.00    +0.000 C 
ATOM     14  C   UNL     1      53.856   4.624   7.091  0.00  0.00    +0.000 C 
ATOM     15  N   UNL     1      52.965   5.352   6.485  0.00  0.00    +0.000 NA
ATOM     16  C   UNL     1      52.719   6.397   7.365  0.00  0.00    +0.000 C 
ENDBRANCH   9  12
ENDBRANCH   7  10
ENDBRANCH   1   7
BRANCH   4  17
ATOM     17  C   UNL     1      46.521   8.233  12.928  0.00  0.00    +0.000 C 
BRANCH  17  18
ATOM     18  N   UNL     1      46.025   6.905  12.664  0.00  0.00    +0.000 N 
ATOM     19  C   UNL     1      45.006   6.697  11.767  0.00  0.00    +0.000 C 
ATOM     20  O   UNL     1      44.506   7.622  11.130  0.00  0.00    +0.000 OA
ATOM     21  H   UNL     1      46.262   6.176  13.330  0.00  0.00    +0.000 HD
BRANCH  19  22
ATOM     22  C   UNL     1      44.585   5.307  11.552  0.00  0.00    +0.000 A 
ATOM     23  C   UNL     1      43.874   4.644  12.545  0.00  0.00    +0.000 A 
ATOM     24  S   UNL     1      43.409   3.061  12.115  0.00  0.00    +0.000 S 
ATOM     25  C   UNL     1      44.189   3.183  10.608  0.00  0.00    +0.000 A 
ATOM     26  N   UNL     1      44.192   2.139   9.736  0.00  0.00    +0.000 NA
ATOM     27  C   UNL     1      44.851   2.356   8.648  0.00  0.00    +0.000 A 
ATOM     28  N   UNL     1      45.504   3.524   8.350  0.00  0.00    +0.000 N 
ATOM     29  C   UNL     1      45.501   4.616   9.185  0.00  0.00    +0.000 A 
ATOM     30  O   UNL     1      46.058   5.662   8.870  0.00  0.00    +0.000 OA
ATOM     31  C   UNL     1      44.783   4.420  10.429  0.00  0.00    +0.000 A 
ATOM     32  H   UNL     1      45.997   3.631   7.475  0.00  0.00    +0.000 HD
ENDBRANCH  19  22
ENDBRANCH  17  18
ENDBRANCH   4  17
TORSDOF 6
ENDMDL
MODEL 8
REMARK VINA RESULT:    -6.634      4.702      9.326
REMARK INTER + INTRA:         -10.169
REMARK INTER:                  -9.046
REMARK INTRA:                  -1.123
REMARK UNBOUND:                -1.208
REMARK  Name = 
REMARK  6 active torsions:
REMARK  status: ('A' for Active; 'I' for Inactive)
REMARK    1  A    between atoms: C_2  and  C_25
REMARK    2  A    between atoms: N_3  and  C_4
REMARK    3  A    between atoms: C_4  and  C_5
REMARK    4  A    between atoms: C_8  and  C_9
REMARK    5  A    between atoms: C_9  and  N_10
REMARK    6  A    between atoms: C_11  and  C_13
REMARK                            x       y       z     vdW  Elec       q    Type
REMARK                         _______ _______ _______ _____ _____    ______ ____
ROOT
ATOM      1  C   UNL     1      51.427   2.931  17.779  0.00  0.00    +0.000 A 
ATOM      2  C   UNL     1      50.666   1.920  17.175  0.00  0.00    +0.000 A 
ATOM      3  C   UNL     1      49.316   2.128  16.868  0.00  0.00    +0.000 A 
ATOM      4  C   UNL     1      48.703   3.358  17.136  0.00  0.00    +0.000 A 
ATOM      5  C   UNL     1      49.466   4.372  17.731  0.00  0.00    +0.000 A 
ATOM      6  C   UNL     1      50.816   4.165  18.038  0.00  0.00    +0.000 A 
ENDROOT
BRANCH   1   7
ATOM      7  C   UNL     1      52.860   2.683  18.171  0.00  0.00    +0.000 C 
BRANCH   7  10
ATOM      8  O   UNL     1      54.835   1.404  16.695  0.00  0.00    +0.000 OA
ATOM      9  C   UNL     1      54.181   0.748  17.498  0.00  0.00    +0.000 C 
ATOM     10  N   UNL     1      53.179   1.278  18.277  0.00  0.00    +0.000 N 
ATOM     11  H   UNL     1      52.770   0.740  19.028  0.00  0.00    +0.000 HD
BRANCH   9  12
ATOM     12  C   UNL     1      54.442  -0.687  17.716  0.00  0.00    +0.000 C 
ATOM     13  C   UNL     1      55.041  -1.630  16.817  0.00  0.00    +0.000 C 
ATOM     14  C   UNL     1      55.141  -2.840  17.652  0.00  0.00    +0.000 C 
ATOM     15  N   UNL     1      54.678  -2.666  18.855  0.00  0.00    +0.000 NA
ATOM     16  C   UNL     1      54.273  -1.338  18.877  0.00  0.00    +0.000 C 
ENDBRANCH   9  12
ENDBRANCH   7  10
ENDBRANCH   1   7
BRANCH   4  17
ATOM     17  C   UNL     1      47.243   3.581  16.828  0.00  0.00    +0.000 C 
BRANCH  17  18
ATOM     18  N   UNL     1      47.058   4.609  15.834  0.00  0.00    +0.000 N 
ATOM     19  C   UNL     1      47.064   4.306  14.494  0.00  0.00    +0.000 C 
ATOM     20  O   UNL     1      47.188   3.151  14.094  0.00  0.00    +0.000 OA
ATOM     21  H   UNL     1      47.180   5.573  16.130  0.00  0.00    +0.000 HD
BRANCH  19  22
ATOM     22  C   UNL     1      46.847   5.419  13.561  0.00  0.00    +0.000 A 
ATOM     23  C   UNL     1      45.770   5.381  12.685  0.00  0.00    +0.000 A 
ATOM     24  S   UNL     1      45.626   6.774  11.714  0.00  0.00    +0.000 S 
ATOM     25  C   UNL     1      47.031   7.456  12.388  0.00  0.00    +0.000 A 
ATOM     26  N   UNL     1      47.491   8.666  11.970  0.00  0.00    +0.000 NA
ATOM     27  C   UNL     1      48.586   9.045  12.539  0.00  0.00    +0.000 A 
ATOM     28  N   UNL     1      49.260   8.327  13.492  0.00  0.00    +0.000 N 
ATOM     29  C   UNL     1      48.815   7.116  13.969  0.00  0.00    +0.000 A 
ATOM     30  O   UNL     1      49.419   6.519  14.854  0.00  0.00    +0.000 OA
ATOM     31  C   UNL     1      47.594   6.637  13.352  0.00  0.00    +0.000 A 
ATOM     32  H   UNL     1      50.109   8.685  13.904  0.00  0.00    +0.000 HD
ENDBRANCH  19  22
ENDBRANCH  17  18
ENDBRANCH   4  17
TORSDOF 6
ENDMDL
MODEL 9
REMARK VINA RESULT:    -6.617      3.872      8.514
REMARK INTER + INTRA:         -10.146
REMARK INTER:                  -9.039
REMARK INTRA:                  -1.107
REMARK UNBOUND:                -1.208
REMARK  Name = 
REMARK  6 active torsions:
REMARK  status: ('A' for Active; 'I' for Inactive)
REMARK    1  A    between atoms: C_2  and  C_25
REMARK    2  A    between atoms: N_3  and  C_4
REMARK    3  A    between atoms: C_4  and  C_5
REMARK    4  A    between atoms: C_8  and  C_9
REMARK    5  A    between atoms: C_9  and  N_10
REMARK    6  A    between atoms: C_11  and  C_13
REMARK                            x       y       z     vdW  Elec       q    Type
REMARK                         _______ _______ _______ _____ _____    ______ ____
ROOT
ATOM      1  C   UNL     1      49.807   4.540  17.589  0.00  0.00    +0.000 A 
ATOM      2  C   UNL     1      48.532   4.338  17.043  0.00  0.00    +0.000 A 
ATOM      3  C   UNL     1      48.035   5.192  16.052  0.00  0.00    +0.000 A 
ATOM      4  C   UNL     1      48.811   6.254  15.568  0.00  0.00    +0.000 A 
ATOM      5  C   UNL     1      50.090   6.449  16.107  0.00  0.00    +0.000 A 
ATOM      6  C   UNL     1      50.587   5.595  17.098  0.00  0.00    +0.000 A 
ENDROOT
BRANCH   1   7
ATOM      7  C   UNL     1      50.313   3.661  18.704  0.00  0.00    +0.000 C 
BRANCH   7  10
ATOM      8  O   UNL     1      50.932   1.375  17.253  0.00  0.00    +0.000 OA
ATOM      9  C   UNL     1      51.847   2.032  17.737  0.00  0.00    +0.000 C 
ATOM     10  N   UNL     1      51.654   3.177  18.474  0.00  0.00    +0.000 N 
ATOM     11  H   UNL     1      52.435   3.766  18.726  0.00  0.00    +0.000 HD
BRANCH   9  12
ATOM     12  C   UNL     1      53.258   1.652  17.540  0.00  0.00    +0.000 C 
ATOM     13  C   UNL     1      54.430   2.462  17.704  0.00  0.00    +0.000 C 
ATOM     14  C   UNL     1      55.516   1.488  17.494  0.00  0.00    +0.000 C 
ATOM     15  N   UNL     1      55.080   0.290  17.240  0.00  0.00    +0.000 NA
ATOM     16  C   UNL     1      53.698   0.409  17.292  0.00  0.00    +0.000 C 
ENDBRANCH   9  12
ENDBRANCH   7  10
ENDBRANCH   1   7
BRANCH   4  17
ATOM     17  C   UNL     1      48.273   7.192  14.516  0.00  0.00    +0.000 C 
BRANCH  17  18
ATOM     18  N   UNL     1      47.026   6.720  13.967  0.00  0.00    +0.000 N 
ATOM     19  C   UNL     1      46.781   6.781  12.617  0.00  0.00    +0.000 C 
ATOM     20  O   UNL     1      47.622   7.200  11.825  0.00  0.00    +0.000 OA
ATOM     21  H   UNL     1      46.252   6.587  14.611  0.00  0.00    +0.000 HD
BRANCH  19  22
ATOM     22  C   UNL     1      45.489   6.258  12.153  0.00  0.00    +0.000 A 
ATOM     23  C   UNL     1      44.559   7.124  11.592  0.00  0.00    +0.000 A 
ATOM     24  S   UNL     1      43.140   6.350  11.051  0.00  0.00    +0.000 S 
ATOM     25  C   UNL     1      43.692   4.837  11.598  0.00  0.00    +0.000 A 
ATOM     26  N   UNL     1      42.925   3.721  11.460  0.00  0.00    +0.000 NA
ATOM     27  C   UNL     1      43.450   2.650  11.952  0.00  0.00    +0.000 A 
ATOM     28  N   UNL     1      44.675   2.591  12.566  0.00  0.00    +0.000 N 
ATOM     29  C   UNL     1      45.498   3.684  12.698  0.00  0.00    +0.000 A 
ATOM     30  O   UNL     1      46.607   3.589  13.214  0.00  0.00    +0.000 OA
ATOM     31  C   UNL     1      44.949   4.919  12.172  0.00  0.00    +0.000 A 
ATOM     32  H   UNL     1      45.031   1.717  12.923  0.00  0.00    +0.000 HD
ENDBRANCH  19  22
ENDBRANCH  17  18
ENDBRANCH   4  17
TORSDOF 6
ENDMDL
