MODEL 1
REMARK VINA RESULT:    -8.073      0.000      0.000
REMARK INTER + INTRA:         -11.873
REMARK INTER:                 -11.141
REMARK INTRA:                  -0.732
REMARK UNBOUND:                -0.732
REMARK  Name = 
REMARK  7 active torsions:
REMARK  status: ('A' for Active; 'I' for Inactive)
REMARK    1  A    between atoms: N_1  and  C_2
REMARK    2  A    between atoms: C_2  and  C_3
REMARK    3  A    between atoms: C_2  and  C_19
REMARK    4  A    between atoms: C_3  and  C_4
REMARK    5  A    between atoms: C_7  and  S_8
REMARK    6  A    between atoms: S_8  and  N_11
REMARK    7  A    between atoms: N_11  and  C_12
REMARK                            x       y       z     vdW  Elec       q    Type
REMARK                         _______ _______ _______ _____ _____    ______ ____
ROOT
ATOM      1  C   UNL     1      47.522   7.354  13.793  0.00  0.00    +0.000 C 
ENDROOT
BRANCH   1   2
ATOM      2  C   UNL     1      46.628   6.450  12.965  0.00  0.00    +0.000 A 
ATOM      3  C   UNL     1      46.001   5.334  13.541  0.00  0.00    +0.000 A 
ATOM      4  C   UNL     1      45.217   4.479  12.762  0.00  0.00    +0.000 A 
ATOM      5  C   UNL     1      45.036   4.751  11.402  0.00  0.00    +0.000 A 
ATOM      6  C   UNL     1      45.629   5.872  10.820  0.00  0.00    +0.000 A 
ATOM      7  C   UNL     1      46.419   6.718  11.602  0.00  0.00    +0.000 A 
BRANCH   5   8
ATOM      8  S   UNL     1      44.112   3.629  10.384  0.00  0.00    +0.000 S 
ATOM      9  O   UNL     1      43.263   2.853  11.265  0.00  0.00    +0.000 OA
ATOM     10  O   UNL     1      43.573   4.346   9.251  0.00  0.00    +0.000 OA
BRANCH   8  11
ATOM     11  N   UNL     1      45.282   2.550   9.814  0.00  0.00    +0.000 NA
ATOM     12  H   UNL     1      45.216   1.671  10.328  0.00  0.00    +0.000 HD
BRANCH  11  13
ATOM     13  C   UNL     1      45.494   2.454   8.367  0.00  0.00    +0.000 C 
ATOM     14  C   UNL     1      46.467   1.326   8.031  0.00  0.00    +0.000 C 
ATOM     15  C   UNL     1      46.995   1.678   6.640  0.00  0.00    +0.000 C 
ATOM     16  C   UNL     1      46.722   3.169   6.449  0.00  0.00    +0.000 C 
ATOM     17  C   UNL     1      46.211   3.665   7.793  0.00  0.00    +0.000 C 
ENDBRANCH  11  13
ENDBRANCH   8  11
ENDBRANCH   5   8
ENDBRANCH   1   2
BRANCH   1  18
ATOM     18  C   UNL     1      48.737   6.652  14.453  0.00  0.00    +0.000 C 
BRANCH  18  19
ATOM     19  C   UNL     1      48.788   6.912  15.952  0.00  0.00    +0.000 A 
ATOM     20  C   UNL     1      48.953   8.149  16.559  0.00  0.00    +0.000 A 
ATOM     21  S   UNL     1      49.004   8.069  18.266  0.00  0.00    +0.000 S 
ATOM     22  C   UNL     1      48.764   6.384  18.254  0.00  0.00    +0.000 A 
ATOM     23  N   UNL     1      48.694   5.673  19.411  0.00  0.00    +0.000 NA
ATOM     24  C   UNL     1      48.499   4.407  19.243  0.00  0.00    +0.000 A 
ATOM     25  N   UNL     1      48.362   3.788  18.025  0.00  0.00    +0.000 N 
ATOM     26  C   UNL     1      48.404   4.466  16.830  0.00  0.00    +0.000 A 
ATOM     27  O   UNL     1      48.235   3.897  15.758  0.00  0.00    +0.000 OA
ATOM     28  C   UNL     1      48.648   5.892  16.967  0.00  0.00    +0.000 A 
ATOM     29  H   UNL     1      48.193   2.795  17.966  0.00  0.00    +0.000 HD
ENDBRANCH  18  19
BRANCH  18  30
ATOM     30  N   UNL     1      50.014   7.069  13.860  0.00  0.00    +0.000 NA
ATOM     31  H   UNL     1      50.758   6.455  14.183  0.00  0.00    +0.000 HD
ATOM     32  H   UNL     1      50.245   8.016  14.145  0.00  0.00    +0.000 HD
ENDBRANCH  18  30
ENDBRANCH   1  18
TORSDOF 7
ENDMDL
MODEL 2
REMARK VINA RESULT:    -7.893      2.145      2.891
REMARK INTER + INTRA:         -11.623
REMARK INTER:                 -11.395
REMARK INTRA:                  -0.228
REMARK UNBOUND:                -0.732
REMARK  Name = 
REMARK  7 active torsions:
REMARK  status: ('A' for Active; 'I' for Inactive)
REMARK    1  A    between atoms: N_1  and  C_2
REMARK    2  A    between atoms: C_2  and  C_3
REMARK    3  A    between atoms: C_2  and  C_19
REMARK    4  A    between atoms: C_3  and  C_4
REMARK    5  A    between atoms: C_7  and  S_8
REMARK    6  A    between atoms: S_8  and  N_11
REMARK    7  A    between atoms: N_11  and  C_12
REMARK                            x       y       z     vdW  Elec       q    Type
REMARK                         _______ _______ _______ _____ _____    ______ ____
ROOT
ATOM      1  C   UNL     1      48.098   4.875  14.981  0.00  0.00    +0.000 C 
ENDROOT
BRANCH   1   2
ATOM      2  C   UNL     1      46.925   4.724  14.031  0.00  0.00    +0.000 A 
ATOM      3  C   UNL     1      46.130   5.828  13.688  0.00  0.00    +0.000 A 
ATOM      4  C   UNL     1      45.023   5.673  12.850  0.00  0.00    +0.000 A 
ATOM      5  C   UNL     1      44.719   4.412  12.329  0.00  0.00    +0.000 A 
ATOM      6  C   UNL     1      45.516   3.308  12.637  0.00  0.00    +0.000 A 
ATOM      7  C   UNL     1      46.616   3.469  13.483  0.00  0.00    +0.000 A 
BRANCH   5   8
ATOM      8  S   UNL     1      43.269   4.185  11.331  0.00  0.00    +0.000 S 
ATOM      9  O   UNL     1      42.898   2.788  11.428  0.00  0.00    +0.000 OA
ATOM     10  O   UNL     1      42.323   5.241  11.617  0.00  0.00    +0.000 OA
BRANCH   8  11
ATOM     11  N   UNL     1      43.833   4.398   9.752  0.00  0.00    +0.000 NA
ATOM     12  H   UNL     1      43.756   5.382   9.492  0.00  0.00    +0.000 HD
BRANCH  11  13
ATOM     13  C   UNL     1      45.058   3.701   9.350  0.00  0.00    +0.000 C 
ATOM     14  C   UNL     1      45.621   4.288   8.057  0.00  0.00    +0.000 C 
ATOM     15  C   UNL     1      46.514   3.183   7.494  0.00  0.00    +0.000 C 
ATOM     16  C   UNL     1      46.061   1.888   8.166  0.00  0.00    +0.000 C 
ATOM     17  C   UNL     1      44.813   2.254   8.956  0.00  0.00    +0.000 C 
ENDBRANCH  11  13
ENDBRANCH   8  11
ENDBRANCH   5   8
ENDBRANCH   1   2
BRANCH   1  18
ATOM     18  C   UNL     1      47.747   4.749  16.486  0.00  0.00    +0.000 C 
BRANCH  18  19
ATOM     19  C   UNL     1      48.998   4.648  17.347  0.00  0.00    +0.000 A 
ATOM     20  C   UNL     1      49.441   5.598  18.257  0.00  0.00    +0.000 A 
ATOM     21  S   UNL     1      50.909   5.176  19.024  0.00  0.00    +0.000 S 
ATOM     22  C   UNL     1      50.983   3.690  18.198  0.00  0.00    +0.000 A 
ATOM     23  N   UNL     1      52.005   2.817  18.405  0.00  0.00    +0.000 NA
ATOM     24  C   UNL     1      51.919   1.728  17.715  0.00  0.00    +0.000 A 
ATOM     25  N   UNL     1      50.902   1.429  16.842  0.00  0.00    +0.000 N 
ATOM     26  C   UNL     1      49.837   2.268  16.616  0.00  0.00    +0.000 A 
ATOM     27  O   UNL     1      48.920   1.959  15.865  0.00  0.00    +0.000 OA
ATOM     28  C   UNL     1      49.904   3.520  17.350  0.00  0.00    +0.000 A 
ATOM     29  H   UNL     1      50.886   0.550  16.348  0.00  0.00    +0.000 HD
ENDBRANCH  18  19
BRANCH  18  30
ATOM     30  N   UNL     1      46.890   3.590  16.765  0.00  0.00    +0.000 NA
ATOM     31  H   UNL     1      47.312   3.019  17.494  0.00  0.00    +0.000 HD
ATOM     32  H   UNL     1      46.790   3.014  15.935  0.00  0.00    +0.000 HD
ENDBRANCH  18  30
ENDBRANCH   1  18
TORSDOF 7
ENDMDL
MODEL 3
REMARK VINA RESULT:    -7.842      1.468      1.990
REMARK INTER + INTRA:         -11.554
REMARK INTER:                 -10.367
REMARK INTRA:                  -1.187
REMARK UNBOUND:                -0.732
REMARK  Name = 
REMARK  7 active torsions:
REMARK  status: ('A' for Active; 'I' for Inactive)
REMARK    1  A    between atoms: N_1  and  C_2
REMARK    2  A    between atoms: C_2  and  C_3
REMARK    3  A    between atoms: C_2  and  C_19
REMARK    4  A    between atoms: C_3  and  C_4
REMARK    5  A    between atoms: C_7  and  S_8
REMARK    6  A    between atoms: S_8  and  N_11
REMARK    7  A    between atoms: N_11  and  C_12
REMARK                            x       y       z     vdW  Elec       q    Type
REMARK                         _______ _______ _______ _____ _____    ______ ____
ROOT
ATOM      1  C   UNL     1      48.508   7.599  13.429  0.00  0.00    +0.000 C 
ENDROOT
BRANCH   1   2
ATOM      2  C   UNL     1      47.293   6.745  13.117  0.00  0.00    +0.000 A 
ATOM      3  C   UNL     1      46.266   7.230  12.292  0.00  0.00    +0.000 A 
ATOM      4  C   UNL     1      45.128   6.457  12.046  0.00  0.00    +0.000 A 
ATOM      5  C   UNL     1      45.022   5.181  12.607  0.00  0.00    +0.000 A 
ATOM      6  C   UNL     1      46.048   4.672  13.406  0.00  0.00    +0.000 A 
ATOM      7  C   UNL     1      47.179   5.454  13.655  0.00  0.00    +0.000 A 
BRANCH   5   8
ATOM      8  S   UNL     1      43.548   4.223  12.371  0.00  0.00    +0.000 S 
ATOM      9  O   UNL     1      43.784   2.922  12.963  0.00  0.00    +0.000 OA
ATOM     10  O   UNL     1      42.397   5.021  12.732  0.00  0.00    +0.000 OA
BRANCH   8  11
ATOM     11  N   UNL     1      43.502   3.961  10.702  0.00  0.00    +0.000 NA
ATOM     12  H   UNL     1      43.007   4.730  10.249  0.00  0.00    +0.000 HD
BRANCH  11  13
ATOM     13  C   UNL     1      44.717   3.477  10.040  0.00  0.00    +0.000 C 
ATOM     14  C   UNL     1      45.039   4.319   8.806  0.00  0.00    +0.000 C 
ATOM     15  C   UNL     1      45.940   3.422   7.958  0.00  0.00    +0.000 C 
ATOM     16  C   UNL     1      45.703   1.995   8.450  0.00  0.00    +0.000 C 
ATOM     17  C   UNL     1      44.550   2.092   9.438  0.00  0.00    +0.000 C 
ENDBRANCH  11  13
ENDBRANCH   8  11
ENDBRANCH   5   8
ENDBRANCH   1   2
BRANCH   1  18
ATOM     18  C   UNL     1      49.372   7.103  14.617  0.00  0.00    +0.000 C 
BRANCH  18  19
ATOM     19  C   UNL     1      48.874   7.661  15.943  0.00  0.00    +0.000 A 
ATOM     20  C   UNL     1      48.542   8.985  16.197  0.00  0.00    +0.000 A 
ATOM     21  S   UNL     1      48.056   9.269  17.811  0.00  0.00    +0.000 S 
ATOM     22  C   UNL     1      48.231   7.625  18.216  0.00  0.00    +0.000 A 
ATOM     23  N   UNL     1      47.958   7.173  19.469  0.00  0.00    +0.000 NA
ATOM     24  C   UNL     1      48.127   5.901  19.622  0.00  0.00    +0.000 A 
ATOM     25  N   UNL     1      48.538   5.039  18.636  0.00  0.00    +0.000 N 
ATOM     26  C   UNL     1      48.805   5.444  17.349  0.00  0.00    +0.000 A 
ATOM     27  O   UNL     1      49.128   4.647  16.476  0.00  0.00    +0.000 OA
ATOM     28  C   UNL     1      48.654   6.873  17.136  0.00  0.00    +0.000 A 
ATOM     29  H   UNL     1      48.631   4.052  18.818  0.00  0.00    +0.000 HD
ENDBRANCH  18  19
BRANCH  18  30
ATOM     30  N   UNL     1      50.790   7.453  14.463  0.00  0.00    +0.000 NA
ATOM     31  H   UNL     1      51.353   6.887  15.093  0.00  0.00    +0.000 HD
ATOM     32  H   UNL     1      50.942   8.429  14.699  0.00  0.00    +0.000 HD
ENDBRANCH  18  30
ENDBRANCH   1  18
TORSDOF 7
ENDMDL
MODEL 4
REMARK VINA RESULT:    -7.552      2.325      2.907
REMARK INTER + INTRA:         -11.153
REMARK INTER:                 -10.282
REMARK INTRA:                  -0.871
REMARK UNBOUND:                -0.732
REMARK  Name = 
REMARK  7 active torsions:
REMARK  status: ('A' for Active; 'I' for Inactive)
REMARK    1  A    between atoms: N_1  and  C_2
REMARK    2  A    between atoms: C_2  and  C_3
REMARK    3  A    between atoms: C_2  and  C_19
REMARK    4  A    between atoms: C_3  and  C_4
REMARK    5  A    between atoms: C_7  and  S_8
REMARK    6  A    between atoms: S_8  and  N_11
REMARK    7  A    between atoms: N_11  and  C_12
REMARK                            x       y       z     vdW  Elec       q    Type
REMARK                         _______ _______ _______ _____ _____    ______ ____
ROOT
ATOM      1  C   UNL     1      48.677   6.969  12.940  0.00  0.00    +0.000 C 
ENDROOT
BRANCH   1   2
ATOM      2  C   UNL     1      47.335   6.327  12.639  0.00  0.00    +0.000 A 
ATOM      3  C   UNL     1      46.955   5.129  13.262  0.00  0.00    +0.000 A 
ATOM      4  C   UNL     1      45.739   4.518  12.945  0.00  0.00    +0.000 A 
ATOM      5  C   UNL     1      44.882   5.119  12.018  0.00  0.00    +0.000 A 
ATOM      6  C   UNL     1      45.232   6.327  11.410  0.00  0.00    +0.000 A 
ATOM      7  C   UNL     1      46.454   6.927  11.725  0.00  0.00    +0.000 A 
BRANCH   5   8
ATOM      8  S   UNL     1      43.374   4.313  11.544  0.00  0.00    +0.000 S 
ATOM      9  O   UNL     1      43.344   3.031  12.218  0.00  0.00    +0.000 OA
ATOM     10  O   UNL     1      42.278   5.250  11.652  0.00  0.00    +0.000 OA
BRANCH   8  11
ATOM     11  N   UNL     1      43.605   3.961   9.907  0.00  0.00    +0.000 NA
ATOM     12  H   UNL     1      43.253   4.732   9.339  0.00  0.00    +0.000 HD
BRANCH  11  13
ATOM     13  C   UNL     1      44.880   3.365   9.496  0.00  0.00    +0.000 C 
ATOM     14  C   UNL     1      45.375   3.983   8.190  0.00  0.00    +0.000 C 
ATOM     15  C   UNL     1      46.351   2.950   7.626  0.00  0.00    +0.000 C 
ATOM     16  C   UNL     1      46.017   1.630   8.318  0.00  0.00    +0.000 C 
ATOM     17  C   UNL     1      44.753   1.899   9.120  0.00  0.00    +0.000 C 
ENDBRANCH  11  13
ENDBRANCH   8  11
ENDBRANCH   5   8
ENDBRANCH   1   2
BRANCH   1  18
ATOM     18  C   UNL     1      48.736   7.783  14.259  0.00  0.00    +0.000 C 
BRANCH  18  19
ATOM     19  C   UNL     1      49.339   6.966  15.394  0.00  0.00    +0.000 A 
ATOM     20  C   UNL     1      48.646   6.112  16.241  0.00  0.00    +0.000 A 
ATOM     21  S   UNL     1      49.633   5.385  17.432  0.00  0.00    +0.000 S 
ATOM     22  C   UNL     1      51.028   6.153  16.830  0.00  0.00    +0.000 A 
ATOM     23  N   UNL     1      52.247   5.950  17.399  0.00  0.00    +0.000 NA
ATOM     24  C   UNL     1      53.211   6.592  16.827  0.00  0.00    +0.000 A 
ATOM     25  N   UNL     1      53.070   7.413  15.736  0.00  0.00    +0.000 N 
ATOM     26  C   UNL     1      51.864   7.633  15.113  0.00  0.00    +0.000 A 
ATOM     27  O   UNL     1      51.772   8.335  14.114  0.00  0.00    +0.000 OA
ATOM     28  C   UNL     1      50.743   6.952  15.738  0.00  0.00    +0.000 A 
ATOM     29  H   UNL     1      53.870   7.870  15.326  0.00  0.00    +0.000 HD
ENDBRANCH  18  19
BRANCH  18  30
ATOM     30  N   UNL     1      47.414   8.266  14.678  0.00  0.00    +0.000 NA
ATOM     31  H   UNL     1      47.472   8.649  15.619  0.00  0.00    +0.000 HD
ATOM     32  H   UNL     1      46.745   7.501  14.693  0.00  0.00    +0.000 HD
ENDBRANCH  18  30
ENDBRANCH   1  18
TORSDOF 7
ENDMDL
MODEL 5
REMARK VINA RESULT:    -7.547      2.144      2.926
REMARK INTER + INTRA:         -11.146
REMARK INTER:                 -10.278
REMARK INTRA:                  -0.868
REMARK UNBOUND:                -0.732
REMARK  Name = 
REMARK  7 active torsions:
REMARK  status: ('A' for Active; 'I' for Inactive)
REMARK    1  A    between atoms: N_1  and  C_2
REMARK    2  A    between atoms: C_2  and  C_3
REMARK    3  A    between atoms: C_2  and  C_19
REMARK    4  A    between atoms: C_3  and  C_4
REMARK    5  A    between atoms: C_7  and  S_8
REMARK    6  A    between atoms: S_8  and  N_11
REMARK    7  A    between atoms: N_11  and  C_12
REMARK                            x       y       z     vdW  Elec       q    Type
REMARK                         _______ _______ _______ _____ _____    ______ ____
ROOT
ATOM      1  C   UNL     1      48.684   6.917  13.430  0.00  0.00    +0.000 C 
ENDROOT
BRANCH   1   2
ATOM      2  C   UNL     1      47.407   6.381  12.811  0.00  0.00    +0.000 A 
ATOM      3  C   UNL     1      46.900   6.925  11.621  0.00  0.00    +0.000 A 
ATOM      4  C   UNL     1      45.698   6.458  11.082  0.00  0.00    +0.000 A 
ATOM      5  C   UNL     1      45.007   5.424  11.720  0.00  0.00    +0.000 A 
ATOM      6  C   UNL     1      45.512   4.851  12.890  0.00  0.00    +0.000 A 
ATOM      7  C   UNL     1      46.710   5.329  13.428  0.00  0.00    +0.000 A 
BRANCH   5   8
ATOM      8  S   UNL     1      43.439   4.879  11.094  0.00  0.00    +0.000 S 
ATOM      9  O   UNL     1      43.108   3.648  11.782  0.00  0.00    +0.000 OA
ATOM     10  O   UNL     1      42.523   5.997  11.061  0.00  0.00    +0.000 OA
BRANCH   8  11
ATOM     11  N   UNL     1      43.779   4.432   9.499  0.00  0.00    +0.000 NA
ATOM     12  H   UNL     1      43.625   5.229   8.881  0.00  0.00    +0.000 HD
BRANCH  11  13
ATOM     13  C   UNL     1      44.971   3.618   9.243  0.00  0.00    +0.000 C 
ATOM     14  C   UNL     1      45.573   3.945   7.878  0.00  0.00    +0.000 C 
ATOM     15  C   UNL     1      46.414   2.717   7.528  0.00  0.00    +0.000 C 
ATOM     16  C   UNL     1      45.890   1.581   8.405  0.00  0.00    +0.000 C 
ATOM     17  C   UNL     1      44.656   2.138   9.099  0.00  0.00    +0.000 C 
ENDBRANCH  11  13
ENDBRANCH   8  11
ENDBRANCH   5   8
ENDBRANCH   1   2
BRANCH   1  18
ATOM     18  C   UNL     1      48.483   8.002  14.519  0.00  0.00    +0.000 C 
BRANCH  18  19
ATOM     19  C   UNL     1      48.692   7.437  15.917  0.00  0.00    +0.000 A 
ATOM     20  C   UNL     1      48.840   6.095  16.241  0.00  0.00    +0.000 A 
ATOM     21  S   UNL     1      49.017   5.814  17.917  0.00  0.00    +0.000 S 
ATOM     22  C   UNL     1      48.946   7.478  18.265  0.00  0.00    +0.000 A 
ATOM     23  N   UNL     1      49.050   7.938  19.541  0.00  0.00    +0.000 NA
ATOM     24  C   UNL     1      48.989   9.224  19.647  0.00  0.00    +0.000 A 
ATOM     25  N   UNL     1      48.839  10.093  18.594  0.00  0.00    +0.000 N 
ATOM     26  C   UNL     1      48.752   9.678  17.286  0.00  0.00    +0.000 A 
ATOM     27  O   UNL     1      48.662  10.476  16.361  0.00  0.00    +0.000 OA
ATOM     28  C   UNL     1      48.789   8.236  17.119  0.00  0.00    +0.000 A 
ATOM     29  H   UNL     1      48.818  11.090  18.746  0.00  0.00    +0.000 HD
ENDBRANCH  18  19
BRANCH  18  30
ATOM     30  N   UNL     1      47.151   8.618  14.456  0.00  0.00    +0.000 NA
ATOM     31  H   UNL     1      46.896   8.977  15.373  0.00  0.00    +0.000 HD
ATOM     32  H   UNL     1      46.455   7.931  14.184  0.00  0.00    +0.000 HD
ENDBRANCH  18  30
ENDBRANCH   1  18
TORSDOF 7
ENDMDL
MODEL 6
REMARK VINA RESULT:    -7.500      2.734      4.022
REMARK INTER + INTRA:         -11.082
REMARK INTER:                 -10.562
REMARK INTRA:                  -0.521
REMARK UNBOUND:                -0.732
REMARK  Name = 
REMARK  7 active torsions:
REMARK  status: ('A' for Active; 'I' for Inactive)
REMARK    1  A    between atoms: N_1  and  C_2
REMARK    2  A    between atoms: C_2  and  C_3
REMARK    3  A    between atoms: C_2  and  C_19
REMARK    4  A    between atoms: C_3  and  C_4
REMARK    5  A    between atoms: C_7  and  S_8
REMARK    6  A    between atoms: S_8  and  N_11
REMARK    7  A    between atoms: N_11  and  C_12
REMARK                            x       y       z     vdW  Elec       q    Type
REMARK                         _______ _______ _______ _____ _____    ______ ____
ROOT
ATOM      1  C   UNL     1      47.866   6.404  14.324  0.00  0.00    +0.000 C 
ENDROOT
BRANCH   1   2
ATOM      2  C   UNL     1      46.966   5.673  13.345  0.00  0.00    +0.000 A 
ATOM      3  C   UNL     1      46.457   6.325  12.212  0.00  0.00    +0.000 A 
ATOM      4  C   UNL     1      45.590   5.661  11.339  0.00  0.00    +0.000 A 
ATOM      5  C   UNL     1      45.247   4.328  11.584  0.00  0.00    +0.000 A 
ATOM      6  C   UNL     1      45.768   3.656  12.692  0.00  0.00    +0.000 A 
ATOM      7  C   UNL     1      46.626   4.329  13.565  0.00  0.00    +0.000 A 
BRANCH   5   8
ATOM      8  S   UNL     1      44.084   3.499  10.532  0.00  0.00    +0.000 S 
ATOM      9  O   UNL     1      43.147   2.806  11.393  0.00  0.00    +0.000 OA
ATOM     10  O   UNL     1      43.635   4.411   9.504  0.00  0.00    +0.000 OA
BRANCH   8  11
ATOM     11  N   UNL     1      45.005   2.288   9.794  0.00  0.00    +0.000 NA
ATOM     12  H   UNL     1      44.671   1.373  10.097  0.00  0.00    +0.000 HD
BRANCH  11  13
ATOM     13  C   UNL     1      45.335   2.434   8.373  0.00  0.00    +0.000 C 
ATOM     14  C   UNL     1      46.394   1.417   7.952  0.00  0.00    +0.000 C 
ATOM     15  C   UNL     1      47.009   2.009   6.684  0.00  0.00    +0.000 C 
ATOM     16  C   UNL     1      46.667   3.498   6.703  0.00  0.00    +0.000 C 
ATOM     17  C   UNL     1      46.025   3.751   8.059  0.00  0.00    +0.000 C 
ENDBRANCH  11  13
ENDBRANCH   8  11
ENDBRANCH   5   8
ENDBRANCH   1   2
BRANCH   1  18
ATOM     18  C   UNL     1      48.118   7.899  13.997  0.00  0.00    +0.000 C 
BRANCH  18  19
ATOM     19  C   UNL     1      49.580   8.275  14.192  0.00  0.00    +0.000 A 
ATOM     20  C   UNL     1      50.182   8.612  15.397  0.00  0.00    +0.000 A 
ATOM     21  S   UNL     1      51.834   9.020  15.242  0.00  0.00    +0.000 S 
ATOM     22  C   UNL     1      51.814   8.720  13.567  0.00  0.00    +0.000 A 
ATOM     23  N   UNL     1      52.933   8.870  12.809  0.00  0.00    +0.000 NA
ATOM     24  C   UNL     1      52.765   8.596  11.557  0.00  0.00    +0.000 A 
ATOM     25  N   UNL     1      51.583   8.181  10.996  0.00  0.00    +0.000 N 
ATOM     26  C   UNL     1      50.432   7.994  11.723  0.00  0.00    +0.000 A 
ATOM     27  O   UNL     1      49.402   7.580  11.205  0.00  0.00    +0.000 OA
ATOM     28  C   UNL     1      50.565   8.316  13.133  0.00  0.00    +0.000 A 
ATOM     29  H   UNL     1      51.527   7.965  10.012  0.00  0.00    +0.000 HD
ENDBRANCH  18  19
BRANCH  18  30
ATOM     30  N   UNL     1      47.289   8.797  14.811  0.00  0.00    +0.000 NA
ATOM     31  H   UNL     1      47.273   9.723  14.390  0.00  0.00    +0.000 HD
ATOM     32  H   UNL     1      47.674   8.885  15.746  0.00  0.00    +0.000 HD
ENDBRANCH  18  30
ENDBRANCH   1  18
TORSDOF 7
ENDMDL
MODEL 7
REMARK VINA RESULT:    -7.178      2.586      8.595
REMARK INTER + INTRA:         -10.637
REMARK INTER:                 -10.155
REMARK INTRA:                  -0.482
REMARK UNBOUND:                -0.732
REMARK  Name = 
REMARK  7 active torsions:
REMARK  status: ('A' for Active; 'I' for Inactive)
REMARK    1  A    between atoms: N_1  and  C_2
REMARK    2  A    between atoms: C_2  and  C_3
REMARK    3  A    between atoms: C_2  and  C_19
REMARK    4  A    between atoms: C_3  and  C_4
REMARK    5  A    between atoms: C_7  and  S_8
REMARK    6  A    between atoms: S_8  and  N_11
REMARK    7  A    between atoms: N_11  and  C_12
REMARK                            x       y       z     vdW  Elec       q    Type
REMARK                         _______ _______ _______ _____ _____    ______ ____
ROOT
ATOM      1  C   UNL     1      46.699   6.316  12.057  0.00  0.00    +0.000 C 
ENDROOT
BRANCH   1   2
ATOM      2  C   UNL     1      47.271   6.101  13.445  0.00  0.00    +0.000 A 
ATOM      3  C   UNL     1      48.109   7.060  14.035  0.00  0.00    +0.000 A 
ATOM      4  C   UNL     1      48.671   6.834  15.295  0.00  0.00    +0.000 A 
ATOM      5  C   UNL     1      48.376   5.654  15.984  0.00  0.00    +0.000 A 
ATOM      6  C   UNL     1      47.521   4.702  15.424  0.00  0.00    +0.000 A 
ATOM      7  C   UNL     1      46.971   4.930  14.160  0.00  0.00    +0.000 A 
BRANCH   5   8
ATOM      8  S   UNL     1      49.147   5.317  17.546  0.00  0.00    +0.000 S 
ATOM      9  O   UNL     1      49.486   6.594  18.140  0.00  0.00    +0.000 OA
ATOM     10  O   UNL     1      48.366   4.333  18.262  0.00  0.00    +0.000 OA
BRANCH   8  11
ATOM     11  N   UNL     1      50.622   4.608  17.120  0.00  0.00    +0.000 NA
ATOM     12  H   UNL     1      51.330   5.334  17.009  0.00  0.00    +0.000 HD
BRANCH  11  13
ATOM     13  C   UNL     1      51.032   3.384  17.815  0.00  0.00    +0.000 C 
ATOM     14  C   UNL     1      52.554   3.302  17.922  0.00  0.00    +0.000 C 
ATOM     15  C   UNL     1      52.839   1.817  18.148  0.00  0.00    +0.000 C 
ATOM     16  C   UNL     1      51.593   1.069  17.678  0.00  0.00    +0.000 C 
ATOM     17  C   UNL     1      50.705   2.123  17.035  0.00  0.00    +0.000 C 
ENDBRANCH  11  13
ENDBRANCH   8  11
ENDBRANCH   5   8
ENDBRANCH   1   2
BRANCH   1  18
ATOM     18  C   UNL     1      45.151   6.317  11.976  0.00  0.00    +0.000 C 
BRANCH  18  19
ATOM     19  C   UNL     1      44.607   4.936  11.637  0.00  0.00    +0.000 A 
ATOM     20  C   UNL     1      43.793   4.158  12.450  0.00  0.00    +0.000 A 
ATOM     21  S   UNL     1      43.402   2.640  11.769  0.00  0.00    +0.000 S 
ATOM     22  C   UNL     1      44.270   2.987  10.347  0.00  0.00    +0.000 A 
ATOM     23  N   UNL     1      44.333   2.093   9.323  0.00  0.00    +0.000 NA
ATOM     24  C   UNL     1      45.019   2.501   8.307  0.00  0.00    +0.000 A 
ATOM     25  N   UNL     1      45.642   3.722   8.218  0.00  0.00    +0.000 N 
ATOM     26  C   UNL     1      45.589   4.666   9.216  0.00  0.00    +0.000 A 
ATOM     27  O   UNL     1      46.116   5.764   9.094  0.00  0.00    +0.000 OA
ATOM     28  C   UNL     1      44.849   4.241  10.392  0.00  0.00    +0.000 A 
ATOM     29  H   UNL     1      46.147   3.985   7.385  0.00  0.00    +0.000 HD
ENDBRANCH  18  19
BRANCH  18  30
ATOM     30  N   UNL     1      44.642   7.277  10.989  0.00  0.00    +0.000 NA
ATOM     31  H   UNL     1      43.974   6.817  10.375  0.00  0.00    +0.000 HD
ATOM     32  H   UNL     1      45.401   7.632  10.415  0.00  0.00    +0.000 HD
ENDBRANCH  18  30
ENDBRANCH   1  18
TORSDOF 7
ENDMDL
MODEL 8
REMARK VINA RESULT:    -6.683      2.122      9.103
REMARK INTER + INTRA:          -9.955
REMARK INTER:                  -9.411
REMARK INTRA:                  -0.544
REMARK UNBOUND:                -0.732
REMARK  Name = 
REMARK  7 active torsions:
REMARK  status: ('A' for Active; 'I' for Inactive)
REMARK    1  A    between atoms: N_1  and  C_2
REMARK    2  A    between atoms: C_2  and  C_3
REMARK    3  A    between atoms: C_2  and  C_19
REMARK    4  A    between atoms: C_3  and  C_4
REMARK    5  A    between atoms: C_7  and  S_8
REMARK    6  A    between atoms: S_8  and  N_11
REMARK    7  A    between atoms: N_11  and  C_12
REMARK                            x       y       z     vdW  Elec       q    Type
REMARK                         _______ _______ _______ _____ _____    ______ ____
ROOT
ATOM      1  C   UNL     1      46.713   6.380  12.050  0.00  0.00    +0.000 C 
ENDROOT
BRANCH   1   2
ATOM      2  C   UNL     1      47.213   6.022  13.437  0.00  0.00    +0.000 A 
ATOM      3  C   UNL     1      48.098   6.867  14.124  0.00  0.00    +0.000 A 
ATOM      4  C   UNL     1      48.592   6.509  15.381  0.00  0.00    +0.000 A 
ATOM      5  C   UNL     1      48.182   5.309  15.970  0.00  0.00    +0.000 A 
ATOM      6  C   UNL     1      47.280   4.470  15.314  0.00  0.00    +0.000 A 
ATOM      7  C   UNL     1      46.797   4.831  14.053  0.00  0.00    +0.000 A 
BRANCH   5   8
ATOM      8  S   UNL     1      48.865   4.802  17.527  0.00  0.00    +0.000 S 
ATOM      9  O   UNL     1      47.769   4.303  18.333  0.00  0.00    +0.000 OA
ATOM     10  O   UNL     1      50.053   4.012  17.293  0.00  0.00    +0.000 OA
BRANCH   8  11
ATOM     11  N   UNL     1      49.336   6.256  18.251  0.00  0.00    +0.000 NA
ATOM     12  H   UNL     1      49.783   6.854  17.555  0.00  0.00    +0.000 HD
BRANCH  11  13
ATOM     13  C   UNL     1      48.407   6.904  19.180  0.00  0.00    +0.000 C 
ATOM     14  C   UNL     1      47.785   8.149  18.551  0.00  0.00    +0.000 C 
ATOM     15  C   UNL     1      47.305   8.979  19.741  0.00  0.00    +0.000 C 
ATOM     16  C   UNL     1      48.078   8.465  20.955  0.00  0.00    +0.000 C 
ATOM     17  C   UNL     1      49.101   7.485  20.401  0.00  0.00    +0.000 C 
ENDBRANCH  11  13
ENDBRANCH   8  11
ENDBRANCH   5   8
ENDBRANCH   1   2
BRANCH   1  18
ATOM     18  C   UNL     1      45.170   6.432  11.900  0.00  0.00    +0.000 C 
BRANCH  18  19
ATOM     19  C   UNL     1      44.596   5.067  11.546  0.00  0.00    +0.000 A 
ATOM     20  C   UNL     1      43.742   4.311  12.337  0.00  0.00    +0.000 A 
ATOM     21  S   UNL     1      43.325   2.805  11.645  0.00  0.00    +0.000 S 
ATOM     22  C   UNL     1      44.236   3.129  10.244  0.00  0.00    +0.000 A 
ATOM     23  N   UNL     1      44.300   2.236   9.221  0.00  0.00    +0.000 NA
ATOM     24  C   UNL     1      45.021   2.625   8.222  0.00  0.00    +0.000 A 
ATOM     25  N   UNL     1      45.680   3.828   8.151  0.00  0.00    +0.000 N 
ATOM     26  C   UNL     1      45.629   4.772   9.149  0.00  0.00    +0.000 A 
ATOM     27  O   UNL     1      46.190   5.855   9.042  0.00  0.00    +0.000 OA
ATOM     28  C   UNL     1      44.850   4.367  10.306  0.00  0.00    +0.000 A 
ATOM     29  H   UNL     1      46.212   4.077   7.331  0.00  0.00    +0.000 HD
ENDBRANCH  18  19
BRANCH  18  30
ATOM     30  N   UNL     1      44.739   7.401  10.885  0.00  0.00    +0.000 NA
ATOM     31  H   UNL     1      45.422   8.152  10.816  0.00  0.00    +0.000 HD
ATOM     32  H   UNL     1      43.847   7.812  11.144  0.00  0.00    +0.000 HD
ENDBRANCH  18  30
ENDBRANCH   1  18
TORSDOF 7
ENDMDL
MODEL 9
REMARK VINA RESULT:    -6.635      2.739      8.327
REMARK INTER + INTRA:          -9.888
REMARK INTER:                  -9.193
REMARK INTRA:                  -0.695
REMARK UNBOUND:                -0.732
REMARK  Name = 
REMARK  7 active torsions:
REMARK  status: ('A' for Active; 'I' for Inactive)
REMARK    1  A    between atoms: N_1  and  C_2
REMARK    2  A    between atoms: C_2  and  C_3
REMARK    3  A    between atoms: C_2  and  C_19
REMARK    4  A    between atoms: C_3  and  C_4
REMARK    5  A    between atoms: C_7  and  S_8
REMARK    6  A    between atoms: S_8  and  N_11
REMARK    7  A    between atoms: N_11  and  C_12
REMARK                            x       y       z     vdW  Elec       q    Type
REMARK                         _______ _______ _______ _____ _____    ______ ____
ROOT
ATOM      1  C   UNL     1      46.781   6.915  12.167  0.00  0.00    +0.000 C 
ENDROOT
BRANCH   1   2
ATOM      2  C   UNL     1      47.236   6.362  13.504  0.00  0.00    +0.000 A 
ATOM      3  C   UNL     1      48.160   7.061  14.295  0.00  0.00    +0.000 A 
ATOM      4  C   UNL     1      48.612   6.524  15.504  0.00  0.00    +0.000 A 
ATOM      5  C   UNL     1      48.120   5.291  15.941  0.00  0.00    +0.000 A 
ATOM      6  C   UNL     1      47.178   4.595  15.180  0.00  0.00    +0.000 A 
ATOM      7  C   UNL     1      46.738   5.134  13.968  0.00  0.00    +0.000 A 
BRANCH   5   8
ATOM      8  S   UNL     1      48.745   4.558  17.431  0.00  0.00    +0.000 S 
ATOM      9  O   UNL     1      48.835   5.612  18.421  0.00  0.00    +0.000 OA
ATOM     10  O   UNL     1      48.030   3.330  17.696  0.00  0.00    +0.000 OA
BRANCH   8  11
ATOM     11  N   UNL     1      50.343   4.163  17.042  0.00  0.00    +0.000 NA
ATOM     12  H   UNL     1      50.881   5.018  16.900  0.00  0.00    +0.000 HD
BRANCH  11  13
ATOM     13  C   UNL     1      50.996   3.087  17.794  0.00  0.00    +0.000 C 
ATOM     14  C   UNL     1      52.490   3.362  17.952  0.00  0.00    +0.000 C 
ATOM     15  C   UNL     1      53.101   1.990  18.241  0.00  0.00    +0.000 C 
ATOM     16  C   UNL     1      52.080   0.962  17.759  0.00  0.00    +0.000 C 
ATOM     17  C   UNL     1      50.999   1.763  17.049  0.00  0.00    +0.000 C 
ENDBRANCH  11  13
ENDBRANCH   8  11
ENDBRANCH   5   8
ENDBRANCH   1   2
BRANCH   1  18
ATOM     18  C   UNL     1      45.315   6.584  11.783  0.00  0.00    +0.000 C 
BRANCH  18  19
ATOM     19  C   UNL     1      45.246   5.478  10.738  0.00  0.00    +0.000 A 
ATOM     20  C   UNL     1      45.811   5.519   9.470  0.00  0.00    +0.000 A 
ATOM     21  S   UNL     1      45.504   4.116   8.542  0.00  0.00    +0.000 S 
ATOM     22  C   UNL     1      44.642   3.389   9.817  0.00  0.00    +0.000 A 
ATOM     23  N   UNL     1      44.106   2.146   9.688  0.00  0.00    +0.000 NA
ATOM     24  C   UNL     1      43.490   1.723  10.743  0.00  0.00    +0.000 A 
ATOM     25  N   UNL     1      43.367   2.425  11.916  0.00  0.00    +0.000 N 
ATOM     26  C   UNL     1      43.910   3.675  12.102  0.00  0.00    +0.000 A 
ATOM     27  O   UNL     1      43.823   4.263  13.173  0.00  0.00    +0.000 OA
ATOM     28  C   UNL     1      44.590   4.205  10.933  0.00  0.00    +0.000 A 
ATOM     29  H   UNL     1      42.889   2.027  12.709  0.00  0.00    +0.000 HD
ENDBRANCH  18  19
BRANCH  18  30
ATOM     30  N   UNL     1      44.591   7.756  11.275  0.00  0.00    +0.000 NA
ATOM     31  H   UNL     1      43.745   7.455  10.797  0.00  0.00    +0.000 HD
ATOM     32  H   UNL     1      45.163   8.265  10.609  0.00  0.00    +0.000 HD
ENDBRANCH  18  30
ENDBRANCH   1  18
TORSDOF 7
ENDMDL
