MODEL 1
REMARK VINA RESULT:    -8.650      0.000      0.000
REMARK INTER + INTRA:         -12.072
REMARK INTER:                 -11.685
REMARK INTRA:                  -0.387
REMARK UNBOUND:                -0.387
REMARK  Name = 
REMARK  6 active torsions:
REMARK  status: ('A' for Active; 'I' for Inactive)
REMARK    1  A    between atoms: C_7  and  C_8
REMARK    2  A    between atoms: C_8  and  O_10
REMARK    3  A    between atoms: O_10  and  C_11
REMARK    4  A    between atoms: C_11  and  C_12
REMARK    5  A    between atoms: C_15  and  C_16
REMARK    6  A    between atoms: C_16  and  N_17
REMARK                            x       y       z     vdW  Elec       q    Type
REMARK                         _______ _______ _______ _____ _____    ______ ____
ROOT
ATOM      1  C   UNL     1      47.455   3.735  16.457  0.00  0.00    +0.000 C 
ATOM      2  O   UNL     1      46.407   3.368  16.981  0.00  0.00    +0.000 OA
ENDROOT
BRANCH   1   9
ATOM      3  N   UNL     1      53.741   2.506  18.496  0.00  0.00    +0.000 N 
ATOM      4  C   UNL     1      52.471   2.884  18.209  0.00  0.00    +0.000 A 
ATOM      5  N   UNL     1      51.994   3.999  18.667  0.00  0.00    +0.000 NA
ATOM      6  C   UNL     1      50.721   4.284  18.287  0.00  0.00    +0.000 A 
ATOM      7  S   UNL     1      49.974   5.722  18.808  0.00  0.00    +0.000 S 
ATOM      8  C   UNL     1      48.557   5.363  17.940  0.00  0.00    +0.000 A 
ATOM      9  C   UNL     1      48.611   4.158  17.252  0.00  0.00    +0.000 A 
ATOM     10  C   UNL     1      49.898   3.528  17.470  0.00  0.00    +0.000 A 
ATOM     11  C   UNL     1      50.467   2.285  16.978  0.00  0.00    +0.000 A 
ATOM     12  O   UNL     1      49.917   1.489  16.221  0.00  0.00    +0.000 OA
ATOM     13  N   UNL     1      51.748   2.033  17.422  0.00  0.00    +0.000 N 
ATOM     14  H   UNL     1      54.156   3.045  19.252  0.00  0.00    +0.000 HD
ATOM     15  H   UNL     1      53.960   1.522  18.529  0.00  0.00    +0.000 HD
ATOM     16  H   UNL     1      52.173   1.195  17.058  0.00  0.00    +0.000 HD
ENDBRANCH   1   9
BRANCH   1  17
ATOM     17  O   UNL     1      47.650   3.794  15.121  0.00  0.00    +0.000 OA
BRANCH  17  18
ATOM     18  C   UNL     1      47.318   5.042  14.497  0.00  0.00    +0.000 C 
BRANCH  18  19
ATOM     19  C   UNL     1      46.496   4.805  13.257  0.00  0.00    +0.000 A 
ATOM     20  C   UNL     1      46.394   5.789  12.264  0.00  0.00    +0.000 A 
ATOM     21  C   UNL     1      45.613   5.569  11.126  0.00  0.00    +0.000 A 
ATOM     22  C   UNL     1      44.921   4.363  10.963  0.00  0.00    +0.000 A 
ATOM     23  C   UNL     1      45.026   3.379  11.957  0.00  0.00    +0.000 A 
ATOM     24  C   UNL     1      45.807   3.598  13.093  0.00  0.00    +0.000 A 
BRANCH  22  25
ATOM     25  C   UNL     1      44.037   4.132   9.758  0.00  0.00    +0.000 C 
BRANCH  25  26
ATOM     26  N   UNL     1      44.685   3.424   8.630  0.00  0.00    +0.000 NA
ATOM     27  C   UNL     1      45.725   4.268   8.016  0.00  0.00    +0.000 C 
ATOM     28  C   UNL     1      46.574   3.527   6.981  0.00  0.00    +0.000 C 
ATOM     29  C   UNL     1      47.180   2.265   7.573  0.00  0.00    +0.000 C 
ATOM     30  C   UNL     1      46.068   1.384   8.120  0.00  0.00    +0.000 C 
ATOM     31  C   UNL     1      45.217   2.146   9.136  0.00  0.00    +0.000 C 
ENDBRANCH  25  26
ENDBRANCH  22  25
ENDBRANCH  18  19
ENDBRANCH  17  18
ENDBRANCH   1  17
TORSDOF 6
ENDMDL
MODEL 2
REMARK VINA RESULT:    -7.933      1.529      2.476
REMARK INTER + INTRA:         -11.103
REMARK INTER:                 -10.338
REMARK INTRA:                  -0.764
REMARK UNBOUND:                -0.387
REMARK  Name = 
REMARK  6 active torsions:
REMARK  status: ('A' for Active; 'I' for Inactive)
REMARK    1  A    between atoms: C_7  and  C_8
REMARK    2  A    between atoms: C_8  and  O_10
REMARK    3  A    between atoms: O_10  and  C_11
REMARK    4  A    between atoms: C_11  and  C_12
REMARK    5  A    between atoms: C_15  and  C_16
REMARK    6  A    between atoms: C_16  and  N_17
REMARK                            x       y       z     vdW  Elec       q    Type
REMARK                         _______ _______ _______ _____ _____    ______ ____
ROOT
ATOM      1  C   UNL     1      49.235   4.856  17.499  0.00  0.00    +0.000 C 
ATOM      2  O   UNL     1      48.290   5.139  18.231  0.00  0.00    +0.000 OA
ENDROOT
BRANCH   1   9
ATOM      3  N   UNL     1      53.589  -0.263  17.655  0.00  0.00    +0.000 N 
ATOM      4  C   UNL     1      52.803   0.837  17.763  0.00  0.00    +0.000 A 
ATOM      5  N   UNL     1      53.172   1.843  18.492  0.00  0.00    +0.000 NA
ATOM      6  C   UNL     1      52.316   2.898  18.498  0.00  0.00    +0.000 A 
ATOM      7  S   UNL     1      52.680   4.291  19.406  0.00  0.00    +0.000 S 
ATOM      8  C   UNL     1      51.261   5.068  18.883  0.00  0.00    +0.000 A 
ATOM      9  C   UNL     1      50.483   4.298  18.028  0.00  0.00    +0.000 A 
ATOM     10  C   UNL     1      51.118   3.014  17.812  0.00  0.00    +0.000 A 
ATOM     11  C   UNL     1      50.739   1.865  17.007  0.00  0.00    +0.000 A 
ATOM     12  O   UNL     1      49.737   1.777  16.303  0.00  0.00    +0.000 OA
ATOM     13  N   UNL     1      51.628   0.813  17.066  0.00  0.00    +0.000 N 
ATOM     14  H   UNL     1      54.328  -0.295  18.354  0.00  0.00    +0.000 HD
ATOM     15  H   UNL     1      53.154  -1.157  17.481  0.00  0.00    +0.000 HD
ATOM     16  H   UNL     1      51.401   0.025  16.482  0.00  0.00    +0.000 HD
ENDBRANCH   1   9
BRANCH   1  17
ATOM     17  O   UNL     1      49.230   5.030  16.159  0.00  0.00    +0.000 OA
BRANCH  17  18
ATOM     18  C   UNL     1      48.681   6.270  15.694  0.00  0.00    +0.000 C 
BRANCH  18  19
ATOM     19  C   UNL     1      47.682   6.021  14.595  0.00  0.00    +0.000 A 
ATOM     20  C   UNL     1      46.920   4.845  14.570  0.00  0.00    +0.000 A 
ATOM     21  C   UNL     1      46.009   4.612  13.535  0.00  0.00    +0.000 A 
ATOM     22  C   UNL     1      45.847   5.550  12.509  0.00  0.00    +0.000 A 
ATOM     23  C   UNL     1      46.610   6.727  12.537  0.00  0.00    +0.000 A 
ATOM     24  C   UNL     1      47.517   6.961  13.571  0.00  0.00    +0.000 A 
BRANCH  22  25
ATOM     25  C   UNL     1      44.898   5.288  11.360  0.00  0.00    +0.000 C 
BRANCH  25  26
ATOM     26  N   UNL     1      45.371   4.293  10.371  0.00  0.00    +0.000 NA
ATOM     27  C   UNL     1      44.371   3.227  10.188  0.00  0.00    +0.000 C 
ATOM     28  C   UNL     1      44.700   2.277   9.034  0.00  0.00    +0.000 C 
ATOM     29  C   UNL     1      44.916   3.045   7.740  0.00  0.00    +0.000 C 
ATOM     30  C   UNL     1      46.012   4.078   7.947  0.00  0.00    +0.000 C 
ATOM     31  C   UNL     1      45.678   5.003   9.116  0.00  0.00    +0.000 C 
ENDBRANCH  25  26
ENDBRANCH  22  25
ENDBRANCH  18  19
ENDBRANCH  17  18
ENDBRANCH   1  17
TORSDOF 6
ENDMDL
MODEL 3
REMARK VINA RESULT:    -7.311      1.916      2.395
REMARK INTER + INTRA:         -10.263
REMARK INTER:                  -9.823
REMARK INTRA:                  -0.440
REMARK UNBOUND:                -0.387
REMARK  Name = 
REMARK  6 active torsions:
REMARK  status: ('A' for Active; 'I' for Inactive)
REMARK    1  A    between atoms: C_7  and  C_8
REMARK    2  A    between atoms: C_8  and  O_10
REMARK    3  A    between atoms: O_10  and  C_11
REMARK    4  A    between atoms: C_11  and  C_12
REMARK    5  A    between atoms: C_15  and  C_16
REMARK    6  A    between atoms: C_16  and  N_17
REMARK                            x       y       z     vdW  Elec       q    Type
REMARK                         _______ _______ _______ _____ _____    ______ ____
ROOT
ATOM      1  C   UNL     1      49.330   6.672  16.031  0.00  0.00    +0.000 C 
ATOM      2  O   UNL     1      48.627   7.496  16.609  0.00  0.00    +0.000 OA
ENDROOT
BRANCH   1   9
ATOM      3  N   UNL     1      53.193   1.944  18.842  0.00  0.00    +0.000 N 
ATOM      4  C   UNL     1      52.550   3.011  18.307  0.00  0.00    +0.000 A 
ATOM      5  N   UNL     1      53.191   4.107  18.047  0.00  0.00    +0.000 NA
ATOM      6  C   UNL     1      52.447   5.095  17.486  0.00  0.00    +0.000 A 
ATOM      7  S   UNL     1      53.165   6.585  17.083  0.00  0.00    +0.000 S 
ATOM      8  C   UNL     1      51.701   7.181  16.456  0.00  0.00    +0.000 A 
ATOM      9  C   UNL     1      50.646   6.282  16.544  0.00  0.00    +0.000 A 
ATOM     10  C   UNL     1      51.101   5.052  17.160  0.00  0.00    +0.000 A 
ATOM     11  C   UNL     1      50.417   3.809  17.468  0.00  0.00    +0.000 A 
ATOM     12  O   UNL     1      49.238   3.556  17.233  0.00  0.00    +0.000 OA
ATOM     13  N   UNL     1      51.214   2.855  18.065  0.00  0.00    +0.000 N 
ATOM     14  H   UNL     1      54.114   2.176  19.208  0.00  0.00    +0.000 HD
ATOM     15  H   UNL     1      52.673   1.303  19.423  0.00  0.00    +0.000 HD
ATOM     16  H   UNL     1      50.765   1.972  18.249  0.00  0.00    +0.000 HD
ENDBRANCH   1   9
BRANCH   1  17
ATOM     17  O   UNL     1      48.978   6.054  14.882  0.00  0.00    +0.000 OA
BRANCH  17  18
ATOM     18  C   UNL     1      48.642   6.917  13.787  0.00  0.00    +0.000 C 
BRANCH  18  19
ATOM     19  C   UNL     1      47.390   6.434  13.104  0.00  0.00    +0.000 A 
ATOM     20  C   UNL     1      46.871   5.160  13.371  0.00  0.00    +0.000 A 
ATOM     21  C   UNL     1      45.720   4.712  12.718  0.00  0.00    +0.000 A 
ATOM     22  C   UNL     1      45.069   5.529  11.786  0.00  0.00    +0.000 A 
ATOM     23  C   UNL     1      45.589   6.805  11.522  0.00  0.00    +0.000 A 
ATOM     24  C   UNL     1      46.738   7.253  12.175  0.00  0.00    +0.000 A 
BRANCH  22  25
ATOM     25  C   UNL     1      43.849   5.037  11.039  0.00  0.00    +0.000 C 
BRANCH  25  26
ATOM     26  N   UNL     1      44.136   4.242   9.824  0.00  0.00    +0.000 NA
ATOM     27  C   UNL     1      45.388   4.693   9.191  0.00  0.00    +0.000 C 
ATOM     28  C   UNL     1      45.853   3.786   8.050  0.00  0.00    +0.000 C 
ATOM     29  C   UNL     1      45.970   2.343   8.513  0.00  0.00    +0.000 C 
ATOM     30  C   UNL     1      44.635   1.889   9.082  0.00  0.00    +0.000 C 
ATOM     31  C   UNL     1      44.176   2.818  10.205  0.00  0.00    +0.000 C 
ENDBRANCH  25  26
ENDBRANCH  22  25
ENDBRANCH  18  19
ENDBRANCH  17  18
ENDBRANCH   1  17
TORSDOF 6
ENDMDL
MODEL 4
REMARK VINA RESULT:    -7.138      3.276      8.850
REMARK INTER + INTRA:         -10.029
REMARK INTER:                  -9.146
REMARK INTRA:                  -0.883
REMARK UNBOUND:                -0.387
REMARK  Name = 
REMARK  6 active torsions:
REMARK  status: ('A' for Active; 'I' for Inactive)
REMARK    1  A    between atoms: C_7  and  C_8
REMARK    2  A    between atoms: C_8  and  O_10
REMARK    3  A    between atoms: O_10  and  C_11
REMARK    4  A    between atoms: C_11  and  C_12
REMARK    5  A    between atoms: C_15  and  C_16
REMARK    6  A    between atoms: C_16  and  N_17
REMARK                            x       y       z     vdW  Elec       q    Type
REMARK                         _______ _______ _______ _____ _____    ______ ____
ROOT
ATOM      1  C   UNL     1      45.404   7.390  11.597  0.00  0.00    +0.000 C 
ATOM      2  O   UNL     1      44.750   8.404  11.368  0.00  0.00    +0.000 OA
ENDROOT
BRANCH   1   9
ATOM      3  N   UNL     1      44.432   1.311   8.899  0.00  0.00    +0.000 N 
ATOM      4  C   UNL     1      44.498   2.493   9.559  0.00  0.00    +0.000 A 
ATOM      5  N   UNL     1      43.910   2.643  10.705  0.00  0.00    +0.000 NA
ATOM      6  C   UNL     1      44.072   3.862  11.284  0.00  0.00    +0.000 A 
ATOM      7  S   UNL     1      43.362   4.193  12.795  0.00  0.00    +0.000 S 
ATOM      8  C   UNL     1      44.020   5.761  12.820  0.00  0.00    +0.000 A 
ATOM      9  C   UNL     1      44.774   6.070  11.696  0.00  0.00    +0.000 A 
ATOM     10  C   UNL     1      44.793   4.937  10.792  0.00  0.00    +0.000 A 
ATOM     11  C   UNL     1      45.436   4.731   9.506  0.00  0.00    +0.000 A 
ATOM     12  O   UNL     1      46.142   5.542   8.913  0.00  0.00    +0.000 OA
ATOM     13  N   UNL     1      45.210   3.489   8.952  0.00  0.00    +0.000 N 
ATOM     14  H   UNL     1      43.720   0.686   9.269  0.00  0.00    +0.000 HD
ATOM     15  H   UNL     1      44.488   1.313   7.891  0.00  0.00    +0.000 HD
ATOM     16  H   UNL     1      45.682   3.314   8.079  0.00  0.00    +0.000 HD
ENDBRANCH   1   9
BRANCH   1  17
ATOM     17  O   UNL     1      46.742   7.381  11.786  0.00  0.00    +0.000 OA
BRANCH  17  18
ATOM     18  C   UNL     1      47.229   8.232  12.833  0.00  0.00    +0.000 C 
BRANCH  18  19
ATOM     19  C   UNL     1      47.767   7.405  13.971  0.00  0.00    +0.000 A 
ATOM     20  C   UNL     1      47.458   6.042  14.079  0.00  0.00    +0.000 A 
ATOM     21  C   UNL     1      47.945   5.287  15.149  0.00  0.00    +0.000 A 
ATOM     22  C   UNL     1      48.747   5.883  16.131  0.00  0.00    +0.000 A 
ATOM     23  C   UNL     1      49.055   7.247  16.021  0.00  0.00    +0.000 A 
ATOM     24  C   UNL     1      48.570   8.000  14.951  0.00  0.00    +0.000 A 
BRANCH  22  25
ATOM     25  C   UNL     1      49.241   5.087  17.318  0.00  0.00    +0.000 C 
BRANCH  25  26
ATOM     26  N   UNL     1      50.409   4.217  17.048  0.00  0.00    +0.000 NA
ATOM     27  C   UNL     1      51.588   4.685  17.798  0.00  0.00    +0.000 C 
ATOM     28  C   UNL     1      52.773   3.720  17.728  0.00  0.00    +0.000 C 
ATOM     29  C   UNL     1      52.367   2.324  18.174  0.00  0.00    +0.000 C 
ATOM     30  C   UNL     1      51.203   1.845  17.322  0.00  0.00    +0.000 C 
ATOM     31  C   UNL     1      50.037   2.831  17.385  0.00  0.00    +0.000 C 
ENDBRANCH  25  26
ENDBRANCH  22  25
ENDBRANCH  18  19
ENDBRANCH  17  18
ENDBRANCH   1  17
TORSDOF 6
ENDMDL
MODEL 5
REMARK VINA RESULT:    -7.124      2.652      3.530
REMARK INTER + INTRA:         -10.011
REMARK INTER:                  -9.445
REMARK INTRA:                  -0.566
REMARK UNBOUND:                -0.387
REMARK  Name = 
REMARK  6 active torsions:
REMARK  status: ('A' for Active; 'I' for Inactive)
REMARK    1  A    between atoms: C_7  and  C_8
REMARK    2  A    between atoms: C_8  and  O_10
REMARK    3  A    between atoms: O_10  and  C_11
REMARK    4  A    between atoms: C_11  and  C_12
REMARK    5  A    between atoms: C_15  and  C_16
REMARK    6  A    between atoms: C_16  and  N_17
REMARK                            x       y       z     vdW  Elec       q    Type
REMARK                         _______ _______ _______ _____ _____    ______ ____
ROOT
ATOM      1  C   UNL     1      48.965   8.533  15.707  0.00  0.00    +0.000 C 
ATOM      2  O   UNL     1      50.060   9.053  15.509  0.00  0.00    +0.000 OA
ENDROOT
BRANCH   1   9
ATOM      3  N   UNL     1      48.527   3.787  20.447  0.00  0.00    +0.000 N 
ATOM      4  C   UNL     1      48.504   4.841  19.593  0.00  0.00    +0.000 A 
ATOM      5  N   UNL     1      48.011   5.980  19.965  0.00  0.00    +0.000 NA
ATOM      6  C   UNL     1      48.070   6.968  19.034  0.00  0.00    +0.000 A 
ATOM      7  S   UNL     1      47.468   8.519  19.392  0.00  0.00    +0.000 S 
ATOM      8  C   UNL     1      47.921   9.106  17.861  0.00  0.00    +0.000 A 
ATOM      9  C   UNL     1      48.521   8.152  17.050  0.00  0.00    +0.000 A 
ATOM     10  C   UNL     1      48.599   6.889  17.756  0.00  0.00    +0.000 A 
ATOM     11  C   UNL     1      49.140   5.595  17.376  0.00  0.00    +0.000 A 
ATOM     12  O   UNL     1      49.679   5.324  16.307  0.00  0.00    +0.000 OA
ATOM     13  N   UNL     1      49.023   4.625  18.348  0.00  0.00    +0.000 N 
ATOM     14  H   UNL     1      47.938   3.923  21.265  0.00  0.00    +0.000 HD
ATOM     15  H   UNL     1      48.488   2.853  20.067  0.00  0.00    +0.000 HD
ATOM     16  H   UNL     1      49.430   3.732  18.117  0.00  0.00    +0.000 HD
ENDBRANCH   1   9
BRANCH   1  17
ATOM     17  O   UNL     1      48.075   8.255  14.729  0.00  0.00    +0.000 OA
BRANCH  17  18
ATOM     18  C   UNL     1      48.435   7.187  13.843  0.00  0.00    +0.000 C 
BRANCH  18  19
ATOM     19  C   UNL     1      47.204   6.595  13.209  0.00  0.00    +0.000 A 
ATOM     20  C   UNL     1      46.937   5.222  13.301  0.00  0.00    +0.000 A 
ATOM     21  C   UNL     1      45.803   4.678  12.692  0.00  0.00    +0.000 A 
ATOM     22  C   UNL     1      44.918   5.496  11.979  0.00  0.00    +0.000 A 
ATOM     23  C   UNL     1      45.187   6.870  11.889  0.00  0.00    +0.000 A 
ATOM     24  C   UNL     1      46.318   7.414  12.499  0.00  0.00    +0.000 A 
BRANCH  22  25
ATOM     25  C   UNL     1      43.714   4.911  11.278  0.00  0.00    +0.000 C 
BRANCH  25  26
ATOM     26  N   UNL     1      44.004   4.224   9.998  0.00  0.00    +0.000 NA
ATOM     27  C   UNL     1      45.196   4.806   9.355  0.00  0.00    +0.000 C 
ATOM     28  C   UNL     1      45.674   4.016   8.136  0.00  0.00    +0.000 C 
ATOM     29  C   UNL     1      45.909   2.556   8.490  0.00  0.00    +0.000 C 
ATOM     30  C   UNL     1      44.633   1.970   9.072  0.00  0.00    +0.000 C 
ATOM     31  C   UNL     1      44.157   2.784  10.275  0.00  0.00    +0.000 C 
ENDBRANCH  25  26
ENDBRANCH  22  25
ENDBRANCH  18  19
ENDBRANCH  17  18
ENDBRANCH   1  17
TORSDOF 6
ENDMDL
MODEL 6
REMARK VINA RESULT:    -7.041      2.321      3.361
REMARK INTER + INTRA:          -9.898
REMARK INTER:                  -9.539
REMARK INTRA:                  -0.358
REMARK UNBOUND:                -0.387
REMARK  Name = 
REMARK  6 active torsions:
REMARK  status: ('A' for Active; 'I' for Inactive)
REMARK    1  A    between atoms: C_7  and  C_8
REMARK    2  A    between atoms: C_8  and  O_10
REMARK    3  A    between atoms: O_10  and  C_11
REMARK    4  A    between atoms: C_11  and  C_12
REMARK    5  A    between atoms: C_15  and  C_16
REMARK    6  A    between atoms: C_16  and  N_17
REMARK                            x       y       z     vdW  Elec       q    Type
REMARK                         _______ _______ _______ _____ _____    ______ ____
ROOT
ATOM      1  C   UNL     1      49.504   5.611  16.742  0.00  0.00    +0.000 C 
ATOM      2  O   UNL     1      48.376   5.546  17.224  0.00  0.00    +0.000 OA
ENDROOT
BRANCH   1   9
ATOM      3  N   UNL     1      52.655  -0.159  18.143  0.00  0.00    +0.000 N 
ATOM      4  C   UNL     1      52.137   1.083  17.972  0.00  0.00    +0.000 A 
ATOM      5  N   UNL     1      52.781   2.129  18.384  0.00  0.00    +0.000 NA
ATOM      6  C   UNL     1      52.176   3.319  18.130  0.00  0.00    +0.000 A 
ATOM      7  S   UNL     1      52.916   4.775  18.607  0.00  0.00    +0.000 S 
ATOM      8  C   UNL     1      51.652   5.698  17.942  0.00  0.00    +0.000 A 
ATOM      9  C   UNL     1      50.648   4.935  17.359  0.00  0.00    +0.000 A 
ATOM     10  C   UNL     1      50.970   3.528  17.482  0.00  0.00    +0.000 A 
ATOM     11  C   UNL     1      50.278   2.330  17.037  0.00  0.00    +0.000 A 
ATOM     12  O   UNL     1      49.216   2.298  16.420  0.00  0.00    +0.000 OA
ATOM     13  N   UNL     1      50.923   1.153  17.351  0.00  0.00    +0.000 N 
ATOM     14  H   UNL     1      53.434  -0.180  18.797  0.00  0.00    +0.000 HD
ATOM     15  H   UNL     1      52.024  -0.941  18.236  0.00  0.00    +0.000 HD
ATOM     16  H   UNL     1      50.476   0.315  17.014  0.00  0.00    +0.000 HD
ENDBRANCH   1   9
BRANCH   1  17
ATOM     17  O   UNL     1      49.807   6.301  15.621  0.00  0.00    +0.000 OA
BRANCH  17  18
ATOM     18  C   UNL     1      49.109   7.541  15.445  0.00  0.00    +0.000 C 
BRANCH  18  19
ATOM     19  C   UNL     1      48.119   7.430  14.315  0.00  0.00    +0.000 A 
ATOM     20  C   UNL     1      47.222   8.471  14.040  0.00  0.00    +0.000 A 
ATOM     21  C   UNL     1      46.294   8.351  13.002  0.00  0.00    +0.000 A 
ATOM     22  C   UNL     1      46.244   7.188  12.225  0.00  0.00    +0.000 A 
ATOM     23  C   UNL     1      47.143   6.147  12.502  0.00  0.00    +0.000 A 
ATOM     24  C   UNL     1      48.072   6.267  13.537  0.00  0.00    +0.000 A 
BRANCH  22  25
ATOM     25  C   UNL     1      45.213   7.028  11.130  0.00  0.00    +0.000 C 
BRANCH  25  26
ATOM     26  N   UNL     1      44.246   5.926  11.335  0.00  0.00    +0.000 NA
ATOM     27  C   UNL     1      44.665   4.722  10.596  0.00  0.00    +0.000 C 
ATOM     28  C   UNL     1      43.826   3.486  10.923  0.00  0.00    +0.000 C 
ATOM     29  C   UNL     1      43.805   3.222  12.420  0.00  0.00    +0.000 C 
ATOM     30  C   UNL     1      43.288   4.457  13.140  0.00  0.00    +0.000 C 
ATOM     31  C   UNL     1      44.123   5.686  12.785  0.00  0.00    +0.000 C 
ENDBRANCH  25  26
ENDBRANCH  22  25
ENDBRANCH  18  19
ENDBRANCH  17  18
ENDBRANCH   1  17
TORSDOF 6
ENDMDL
MODEL 7
REMARK VINA RESULT:    -6.959      2.952      4.335
REMARK INTER + INTRA:          -9.787
REMARK INTER:                  -8.406
REMARK INTRA:                  -1.381
REMARK UNBOUND:                -0.387
REMARK  Name = 
REMARK  6 active torsions:
REMARK  status: ('A' for Active; 'I' for Inactive)
REMARK    1  A    between atoms: C_7  and  C_8
REMARK    2  A    between atoms: C_8  and  O_10
REMARK    3  A    between atoms: O_10  and  C_11
REMARK    4  A    between atoms: C_11  and  C_12
REMARK    5  A    between atoms: C_15  and  C_16
REMARK    6  A    between atoms: C_16  and  N_17
REMARK                            x       y       z     vdW  Elec       q    Type
REMARK                         _______ _______ _______ _____ _____    ______ ____
ROOT
ATOM      1  C   UNL     1      49.985   7.780  15.312  0.00  0.00    +0.000 C 
ATOM      2  O   UNL     1      50.886   7.469  14.537  0.00  0.00    +0.000 OA
ENDROOT
BRANCH   1   9
ATOM      3  N   UNL     1      46.622   2.513  17.787  0.00  0.00    +0.000 N 
ATOM      4  C   UNL     1      47.334   3.619  17.459  0.00  0.00    +0.000 A 
ATOM      5  N   UNL     1      48.056   4.227  18.347  0.00  0.00    +0.000 NA
ATOM      6  C   UNL     1      48.747   5.306  17.893  0.00  0.00    +0.000 A 
ATOM      7  S   UNL     1      49.743   6.192  18.951  0.00  0.00    +0.000 S 
ATOM      8  C   UNL     1      50.226   7.241  17.702  0.00  0.00    +0.000 A 
ATOM      9  C   UNL     1      49.645   6.954  16.474  0.00  0.00    +0.000 A 
ATOM     10  C   UNL     1      48.768   5.808  16.602  0.00  0.00    +0.000 A 
ATOM     11  C   UNL     1      47.946   5.101  15.636  0.00  0.00    +0.000 A 
ATOM     12  O   UNL     1      47.848   5.364  14.441  0.00  0.00    +0.000 OA
ATOM     13  N   UNL     1      47.243   4.037  16.161  0.00  0.00    +0.000 N 
ATOM     14  H   UNL     1      46.541   2.374  18.792  0.00  0.00    +0.000 HD
ATOM     15  H   UNL     1      45.775   2.311  17.278  0.00  0.00    +0.000 HD
ATOM     16  H   UNL     1      46.699   3.510  15.497  0.00  0.00    +0.000 HD
ENDBRANCH   1   9
BRANCH   1  17
ATOM     17  O   UNL     1      49.223   8.888  15.177  0.00  0.00    +0.000 OA
BRANCH  17  18
ATOM     18  C   UNL     1      49.081   9.388  13.841  0.00  0.00    +0.000 C 
BRANCH  18  19
ATOM     19  C   UNL     1      47.965   8.668  13.129  0.00  0.00    +0.000 A 
ATOM     20  C   UNL     1      46.632   8.840  13.525  0.00  0.00    +0.000 A 
ATOM     21  C   UNL     1      45.604   8.153  12.872  0.00  0.00    +0.000 A 
ATOM     22  C   UNL     1      45.893   7.282  11.814  0.00  0.00    +0.000 A 
ATOM     23  C   UNL     1      47.229   7.113  11.420  0.00  0.00    +0.000 A 
ATOM     24  C   UNL     1      48.254   7.800  12.070  0.00  0.00    +0.000 A 
BRANCH  22  25
ATOM     25  C   UNL     1      44.795   6.499  11.132  0.00  0.00    +0.000 C 
BRANCH  25  26
ATOM     26  N   UNL     1      44.828   5.037  11.366  0.00  0.00    +0.000 NA
ATOM     27  C   UNL     1      43.997   4.679  12.529  0.00  0.00    +0.000 C 
ATOM     28  C   UNL     1      43.820   3.169  12.706  0.00  0.00    +0.000 C 
ATOM     29  C   UNL     1      43.279   2.531  11.437  0.00  0.00    +0.000 C 
ATOM     30  C   UNL     1      44.208   2.854  10.278  0.00  0.00    +0.000 C 
ATOM     31  C   UNL     1      44.391   4.364  10.129  0.00  0.00    +0.000 C 
ENDBRANCH  25  26
ENDBRANCH  22  25
ENDBRANCH  18  19
ENDBRANCH  17  18
ENDBRANCH   1  17
TORSDOF 6
ENDMDL
MODEL 8
REMARK VINA RESULT:    -6.831      4.069      8.649
REMARK INTER + INTRA:          -9.614
REMARK INTER:                  -8.514
REMARK INTRA:                  -1.100
REMARK UNBOUND:                -0.387
REMARK  Name = 
REMARK  6 active torsions:
REMARK  status: ('A' for Active; 'I' for Inactive)
REMARK    1  A    between atoms: C_7  and  C_8
REMARK    2  A    between atoms: C_8  and  O_10
REMARK    3  A    between atoms: O_10  and  C_11
REMARK    4  A    between atoms: C_11  and  C_12
REMARK    5  A    between atoms: C_15  and  C_16
REMARK    6  A    between atoms: C_16  and  N_17
REMARK                            x       y       z     vdW  Elec       q    Type
REMARK                         _______ _______ _______ _____ _____    ______ ____
ROOT
ATOM      1  C   UNL     1      48.115   7.964  12.304  0.00  0.00    +0.000 C 
ATOM      2  O   UNL     1      48.972   7.866  11.430  0.00  0.00    +0.000 OA
ENDROOT
BRANCH   1   9
ATOM      3  N   UNL     1      41.908   5.458  11.692  0.00  0.00    +0.000 N 
ATOM      4  C   UNL     1      43.189   5.831  11.934  0.00  0.00    +0.000 A 
ATOM      5  N   UNL     1      43.998   5.042  12.569  0.00  0.00    +0.000 NA
ATOM      6  C   UNL     1      45.263   5.513  12.725  0.00  0.00    +0.000 A 
ATOM      7  S   UNL     1      46.432   4.575  13.531  0.00  0.00    +0.000 S 
ATOM      8  C   UNL     1      47.630   5.755  13.278  0.00  0.00    +0.000 A 
ATOM      9  C   UNL     1      47.178   6.876  12.594  0.00  0.00    +0.000 A 
ATOM     10  C   UNL     1      45.772   6.720  12.276  0.00  0.00    +0.000 A 
ATOM     11  C   UNL     1      44.835   7.577  11.571  0.00  0.00    +0.000 A 
ATOM     12  O   UNL     1      45.091   8.669  11.070  0.00  0.00    +0.000 OA
ATOM     13  N   UNL     1      43.560   7.062  11.472  0.00  0.00    +0.000 N 
ATOM     14  H   UNL     1      41.618   4.651  12.239  0.00  0.00    +0.000 HD
ATOM     15  H   UNL     1      41.200   6.173  11.613  0.00  0.00    +0.000 HD
ATOM     16  H   UNL     1      42.907   7.626  10.951  0.00  0.00    +0.000 HD
ENDBRANCH   1   9
BRANCH   1  17
ATOM     17  O   UNL     1      47.943   9.063  13.072  0.00  0.00    +0.000 OA
BRANCH  17  18
ATOM     18  C   UNL     1      49.095   9.495  13.809  0.00  0.00    +0.000 C 
BRANCH  18  19
ATOM     19  C   UNL     1      49.299   8.622  15.019  0.00  0.00    +0.000 A 
ATOM     20  C   UNL     1      50.283   7.624  15.028  0.00  0.00    +0.000 A 
ATOM     21  C   UNL     1      50.453   6.805  16.148  0.00  0.00    +0.000 A 
ATOM     22  C   UNL     1      49.640   6.969  17.276  0.00  0.00    +0.000 A 
ATOM     23  C   UNL     1      48.656   7.969  17.265  0.00  0.00    +0.000 A 
ATOM     24  C   UNL     1      48.488   8.788  16.148  0.00  0.00    +0.000 A 
BRANCH  22  25
ATOM     25  C   UNL     1      49.784   6.059  18.475  0.00  0.00    +0.000 C 
BRANCH  25  26
ATOM     26  N   UNL     1      49.180   4.716  18.319  0.00  0.00    +0.000 NA
ATOM     27  C   UNL     1      47.912   4.799  17.574  0.00  0.00    +0.000 C 
ATOM     28  C   UNL     1      47.337   3.432  17.199  0.00  0.00    +0.000 C 
ATOM     29  C   UNL     1      48.357   2.601  16.438  0.00  0.00    +0.000 C 
ATOM     30  C   UNL     1      49.619   2.468  17.275  0.00  0.00    +0.000 C 
ATOM     31  C   UNL     1      50.168   3.842  17.660  0.00  0.00    +0.000 C 
ENDBRANCH  25  26
ENDBRANCH  22  25
ENDBRANCH  18  19
ENDBRANCH  17  18
ENDBRANCH   1  17
TORSDOF 6
ENDMDL
MODEL 9
REMARK VINA RESULT:    -6.697      2.957      3.993
REMARK INTER + INTRA:          -9.434
REMARK INTER:                  -8.561
REMARK INTRA:                  -0.873
REMARK UNBOUND:                -0.387
REMARK  Name = 
REMARK  6 active torsions:
REMARK  status: ('A' for Active; 'I' for Inactive)
REMARK    1  A    between atoms: C_7  and  C_8
REMARK    2  A    between atoms: C_8  and  O_10
REMARK    3  A    between atoms: O_10  and  C_11
REMARK    4  A    between atoms: C_11  and  C_12
REMARK    5  A    between atoms: C_15  and  C_16
REMARK    6  A    between atoms: C_16  and  N_17
REMARK                            x       y       z     vdW  Elec       q    Type
REMARK                         _______ _______ _______ _____ _____    ______ ____
ROOT
ATOM      1  C   UNL     1      49.098   6.835  17.534  0.00  0.00    +0.000 C 
ATOM      2  O   UNL     1      48.745   7.424  18.552  0.00  0.00    +0.000 OA
ENDROOT
BRANCH   1   9
ATOM      3  N   UNL     1      51.818   0.691  17.370  0.00  0.00    +0.000 N 
ATOM      4  C   UNL     1      51.120   1.853  17.341  0.00  0.00    +0.000 A 
ATOM      5  N   UNL     1      49.834   1.846  17.183  0.00  0.00    +0.000 NA
ATOM      6  C   UNL     1      49.242   3.068  17.200  0.00  0.00    +0.000 A 
ATOM      7  S   UNL     1      47.555   3.206  17.015  0.00  0.00    +0.000 S 
ATOM      8  C   UNL     1      47.621   4.897  17.181  0.00  0.00    +0.000 A 
ATOM      9  C   UNL     1      48.905   5.392  17.369  0.00  0.00    +0.000 A 
ATOM     10  C   UNL     1      49.855   4.298  17.374  0.00  0.00    +0.000 A 
ATOM     11  C   UNL     1      51.297   4.264  17.545  0.00  0.00    +0.000 A 
ATOM     12  O   UNL     1      52.024   5.235  17.742  0.00  0.00    +0.000 OA
ATOM     13  N   UNL     1      51.846   3.001  17.487  0.00  0.00    +0.000 N 
ATOM     14  H   UNL     1      51.281  -0.107  17.038  0.00  0.00    +0.000 HD
ATOM     15  H   UNL     1      52.779   0.692  17.060  0.00  0.00    +0.000 HD
ATOM     16  H   UNL     1      52.840   2.955  17.644  0.00  0.00    +0.000 HD
ENDBRANCH   1   9
BRANCH   1  17
ATOM     17  O   UNL     1      49.696   7.438  16.483  0.00  0.00    +0.000 OA
BRANCH  17  18
ATOM     18  C   UNL     1      48.926   8.456  15.829  0.00  0.00    +0.000 C 
BRANCH  18  19
ATOM     19  C   UNL     1      48.252   7.898  14.603  0.00  0.00    +0.000 A 
ATOM     20  C   UNL     1      48.721   6.725  13.997  0.00  0.00    +0.000 A 
ATOM     21  C   UNL     1      48.103   6.224  12.848  0.00  0.00    +0.000 A 
ATOM     22  C   UNL     1      47.006   6.889  12.285  0.00  0.00    +0.000 A 
ATOM     23  C   UNL     1      46.538   8.062  12.895  0.00  0.00    +0.000 A 
ATOM     24  C   UNL     1      47.154   8.561  14.043  0.00  0.00    +0.000 A 
BRANCH  22  25
ATOM     25  C   UNL     1      46.358   6.382  11.017  0.00  0.00    +0.000 C 
BRANCH  25  26
ATOM     26  N   UNL     1      45.194   5.490  11.220  0.00  0.00    +0.000 NA
ATOM     27  C   UNL     1      45.416   4.602  12.375  0.00  0.00    +0.000 C 
ATOM     28  C   UNL     1      44.175   3.797  12.769  0.00  0.00    +0.000 C 
ATOM     29  C   UNL     1      42.985   4.711  13.009  0.00  0.00    +0.000 C 
ATOM     30  C   UNL     1      42.738   5.550  11.765  0.00  0.00    +0.000 C 
ATOM     31  C   UNL     1      43.992   6.330  11.374  0.00  0.00    +0.000 C 
ENDBRANCH  25  26
ENDBRANCH  22  25
ENDBRANCH  18  19
ENDBRANCH  17  18
ENDBRANCH   1  17
TORSDOF 6
ENDMDL
