MODEL 1
REMARK VINA RESULT:    -7.488      0.000      0.000
REMARK INTER + INTRA:         -11.429
REMARK INTER:                 -10.772
REMARK INTRA:                  -0.657
REMARK UNBOUND:                -0.657
REMARK  Name = 
REMARK  8 active torsions:
REMARK  status: ('A' for Active; 'I' for Inactive)
REMARK    1  A    between atoms: N_1  and  C_2
REMARK    2  A    between atoms: C_2  and  C_3
REMARK    3  A    between atoms: C_2  and  C_18
REMARK    4  A    between atoms: C_3  and  C_4
REMARK    5  A    between atoms: C_7  and  C_8
REMARK    6  A    between atoms: C_8  and  N_9
REMARK    7  A    between atoms: N_9  and  C_10
REMARK    8  A    between atoms: C_10  and  C_11
REMARK                            x       y       z     vdW  Elec       q    Type
REMARK                         _______ _______ _______ _____ _____    ______ ____
ROOT
ATOM      1  C   UNL     1      47.912   5.453  15.236  0.00  0.00    +0.000 C 
ENDROOT
BRANCH   1   2
ATOM      2  C   UNL     1      46.910   5.080  14.171  0.00  0.00    +0.000 A 
ATOM      3  C   UNL     1      46.165   6.060  13.511  0.00  0.00    +0.000 A 
ATOM      4  C   UNL     1      45.237   5.693  12.542  0.00  0.00    +0.000 A 
ATOM      5  C   UNL     1      45.075   4.344  12.245  0.00  0.00    +0.000 A 
ATOM      6  N   UNL     1      45.781   3.369  12.878  0.00  0.00    +0.000 NA
ATOM      7  C   UNL     1      46.674   3.756  13.821  0.00  0.00    +0.000 A 
BRANCH   5   8
ATOM      8  C   UNL     1      44.053   3.915  11.206  0.00  0.00    +0.000 C 
BRANCH   8   9
ATOM      9  N   UNL     1      44.079   4.709   9.969  0.00  0.00    +0.000 NA
ATOM     10  H   UNL     1      44.128   5.691  10.255  0.00  0.00    +0.000 HD
BRANCH   9  11
ATOM     11  C   UNL     1      45.264   4.413   9.146  0.00  0.00    +0.000 C 
BRANCH  11  12
ATOM     12  C   UNL     1      44.885   3.483   7.968  0.00  0.00    +0.000 C 
ATOM     13  C   UNL     1      45.986   3.366   6.928  0.00  0.00    +0.000 C 
ATOM     14  C   UNL     1      46.908   2.307   7.502  0.00  0.00    +0.000 C 
ATOM     15  C   UNL     1      46.005   1.437   8.368  0.00  0.00    +0.000 C 
ATOM     16  N   UNL     1      44.692   2.087   8.400  0.00  0.00    +0.000 NA
ATOM     17  H   UNL     1      44.319   2.100   9.353  0.00  0.00    +0.000 HD
ENDBRANCH  11  12
ENDBRANCH   9  11
ENDBRANCH   8   9
ENDBRANCH   5   8
ENDBRANCH   1   2
BRANCH   1  18
ATOM     18  C   UNL     1      47.963   4.467  16.428  0.00  0.00    +0.000 C 
BRANCH  18  19
ATOM     19  C   UNL     1      49.296   4.519  17.152  0.00  0.00    +0.000 A 
ATOM     20  C   UNL     1      49.820   5.610  17.830  0.00  0.00    +0.000 A 
ATOM     21  S   UNL     1      51.301   5.275  18.616  0.00  0.00    +0.000 S 
ATOM     22  C   UNL     1      51.298   3.666  18.063  0.00  0.00    +0.000 A 
ATOM     23  N   UNL     1      52.278   2.791  18.414  0.00  0.00    +0.000 NA
ATOM     24  C   UNL     1      52.130   1.605  17.922  0.00  0.00    +0.000 A 
ATOM     25  N   UNL     1      51.109   1.221  17.088  0.00  0.00    +0.000 N 
ATOM     26  C   UNL     1      50.128   2.086  16.661  0.00  0.00    +0.000 A 
ATOM     27  O   UNL     1      49.292   1.756  15.825  0.00  0.00    +0.000 OA
ATOM     28  C   UNL     1      50.210   3.408  17.252  0.00  0.00    +0.000 A 
ATOM     29  H   UNL     1      51.081   0.289  16.705  0.00  0.00    +0.000 HD
ENDBRANCH  18  19
BRANCH  18  30
ATOM     30  N   UNL     1      46.904   4.704  17.422  0.00  0.00    +0.000 NA
ATOM     31  H   UNL     1      47.221   4.341  18.321  0.00  0.00    +0.000 HD
ATOM     32  H   UNL     1      46.083   4.157  17.176  0.00  0.00    +0.000 HD
ENDBRANCH  18  30
ENDBRANCH   1  18
TORSDOF 8
ENDMDL
MODEL 2
REMARK VINA RESULT:    -7.242      1.174      1.656
REMARK INTER + INTRA:         -11.074
REMARK INTER:                 -10.525
REMARK INTRA:                  -0.549
REMARK UNBOUND:                -0.657
REMARK  Name = 
REMARK  8 active torsions:
REMARK  status: ('A' for Active; 'I' for Inactive)
REMARK    1  A    between atoms: N_1  and  C_2
REMARK    2  A    between atoms: C_2  and  C_3
REMARK    3  A    between atoms: C_2  and  C_18
REMARK    4  A    between atoms: C_3  and  C_4
REMARK    5  A    between atoms: C_7  and  C_8
REMARK    6  A    between atoms: C_8  and  N_9
REMARK    7  A    between atoms: N_9  and  C_10
REMARK    8  A    between atoms: C_10  and  C_11
REMARK                            x       y       z     vdW  Elec       q    Type
REMARK                         _______ _______ _______ _____ _____    ______ ____
ROOT
ATOM      1  C   UNL     1      48.700   5.806  16.672  0.00  0.00    +0.000 C 
ENDROOT
BRANCH   1   2
ATOM      2  C   UNL     1      47.993   5.760  15.339  0.00  0.00    +0.000 A 
ATOM      3  C   UNL     1      48.238   6.727  14.363  0.00  0.00    +0.000 A 
ATOM      4  C   UNL     1      47.564   6.674  13.147  0.00  0.00    +0.000 A 
ATOM      5  C   UNL     1      46.659   5.642  12.926  0.00  0.00    +0.000 A 
ATOM      6  N   UNL     1      46.396   4.692  13.863  0.00  0.00    +0.000 NA
ATOM      7  C   UNL     1      47.062   4.772  15.040  0.00  0.00    +0.000 A 
BRANCH   5   8
ATOM      8  C   UNL     1      45.895   5.573  11.615  0.00  0.00    +0.000 C 
BRANCH   8   9
ATOM      9  N   UNL     1      44.720   4.689  11.645  0.00  0.00    +0.000 NA
ATOM     10  H   UNL     1      44.035   5.097  11.001  0.00  0.00    +0.000 HD
BRANCH   9  11
ATOM     11  C   UNL     1      45.036   3.331  11.175  0.00  0.00    +0.000 C 
BRANCH  11  12
ATOM     12  C   UNL     1      44.239   3.005   9.889  0.00  0.00    +0.000 C 
ATOM     13  C   UNL     1      44.496   3.996   8.766  0.00  0.00    +0.000 C 
ATOM     14  C   UNL     1      45.778   3.492   8.131  0.00  0.00    +0.000 C 
ATOM     15  C   UNL     1      45.780   1.993   8.406  0.00  0.00    +0.000 C 
ATOM     16  N   UNL     1      44.645   1.721   9.290  0.00  0.00    +0.000 NA
ATOM     17  H   UNL     1      44.921   1.093  10.051  0.00  0.00    +0.000 HD
ENDBRANCH  11  12
ENDBRANCH   9  11
ENDBRANCH   8   9
ENDBRANCH   5   8
ENDBRANCH   1   2
BRANCH   1  18
ATOM     18  C   UNL     1      48.849   4.425  17.355  0.00  0.00    +0.000 C 
BRANCH  18  19
ATOM     19  C   UNL     1      50.247   4.214  17.909  0.00  0.00    +0.000 A 
ATOM     20  C   UNL     1      50.969   5.114  18.680  0.00  0.00    +0.000 A 
ATOM     21  S   UNL     1      52.471   4.498  19.216  0.00  0.00    +0.000 S 
ATOM     22  C   UNL     1      52.212   3.015  18.424  0.00  0.00    +0.000 A 
ATOM     23  N   UNL     1      53.108   1.996  18.511  0.00  0.00    +0.000 NA
ATOM     24  C   UNL     1      52.764   0.932  17.862  0.00  0.00    +0.000 A 
ATOM     25  N   UNL     1      51.623   0.803  17.110  0.00  0.00    +0.000 N 
ATOM     26  C   UNL     1      50.717   1.826  16.946  0.00  0.00    +0.000 A 
ATOM     27  O   UNL     1      49.764   1.732  16.179  0.00  0.00    +0.000 OA
ATOM     28  C   UNL     1      51.023   3.013  17.721  0.00  0.00    +0.000 A 
ATOM     29  H   UNL     1      51.440  -0.043  16.592  0.00  0.00    +0.000 HD
ENDBRANCH  18  19
BRANCH  18  30
ATOM     30  N   UNL     1      47.895   4.217  18.456  0.00  0.00    +0.000 NA
ATOM     31  H   UNL     1      47.173   3.571  18.137  0.00  0.00    +0.000 HD
ATOM     32  H   UNL     1      47.416   5.091  18.655  0.00  0.00    +0.000 HD
ENDBRANCH  18  30
ENDBRANCH   1  18
TORSDOF 8
ENDMDL
MODEL 3
REMARK VINA RESULT:    -7.028      1.920      2.552
REMARK INTER + INTRA:         -10.767
REMARK INTER:                 -10.193
REMARK INTRA:                  -0.574
REMARK UNBOUND:                -0.657
REMARK  Name = 
REMARK  8 active torsions:
REMARK  status: ('A' for Active; 'I' for Inactive)
REMARK    1  A    between atoms: N_1  and  C_2
REMARK    2  A    between atoms: C_2  and  C_3
REMARK    3  A    between atoms: C_2  and  C_18
REMARK    4  A    between atoms: C_3  and  C_4
REMARK    5  A    between atoms: C_7  and  C_8
REMARK    6  A    between atoms: C_8  and  N_9
REMARK    7  A    between atoms: N_9  and  C_10
REMARK    8  A    between atoms: C_10  and  C_11
REMARK                            x       y       z     vdW  Elec       q    Type
REMARK                         _______ _______ _______ _____ _____    ______ ____
ROOT
ATOM      1  C   UNL     1      48.243   6.659  13.368  0.00  0.00    +0.000 C 
ENDROOT
BRANCH   1   2
ATOM      2  C   UNL     1      47.158   6.035  12.524  0.00  0.00    +0.000 A 
ATOM      3  C   UNL     1      46.783   6.601  11.304  0.00  0.00    +0.000 A 
ATOM      4  C   UNL     1      45.770   6.018  10.549  0.00  0.00    +0.000 A 
ATOM      5  C   UNL     1      45.153   4.868  11.029  0.00  0.00    +0.000 A 
ATOM      6  N   UNL     1      45.493   4.301  12.217  0.00  0.00    +0.000 NA
ATOM      7  C   UNL     1      46.479   4.893  12.934  0.00  0.00    +0.000 A 
BRANCH   5   8
ATOM      8  C   UNL     1      44.030   4.224  10.235  0.00  0.00    +0.000 C 
BRANCH   8   9
ATOM      9  N   UNL     1      44.129   4.419   8.780  0.00  0.00    +0.000 NA
ATOM     10  H   UNL     1      44.790   5.188   8.636  0.00  0.00    +0.000 HD
BRANCH   9  11
ATOM     11  C   UNL     1      44.657   3.228   8.096  0.00  0.00    +0.000 C 
BRANCH  11  12
ATOM     12  C   UNL     1      46.205   3.262   8.072  0.00  0.00    +0.000 C 
ATOM     13  C   UNL     1      46.822   1.919   7.718  0.00  0.00    +0.000 C 
ATOM     14  C   UNL     1      46.772   1.892   6.202  0.00  0.00    +0.000 C 
ATOM     15  C   UNL     1      46.819   3.358   5.789  0.00  0.00    +0.000 C 
ATOM     16  N   UNL     1      46.727   4.150   7.018  0.00  0.00    +0.000 NA
ATOM     17  H   UNL     1      46.067   4.923   6.902  0.00  0.00    +0.000 HD
ENDBRANCH  11  12
ENDBRANCH   9  11
ENDBRANCH   8   9
ENDBRANCH   5   8
ENDBRANCH   1   2
BRANCH   1  18
ATOM     18  C   UNL     1      47.839   6.895  14.843  0.00  0.00    +0.000 C 
BRANCH  18  19
ATOM     19  C   UNL     1      48.852   6.311  15.810  0.00  0.00    +0.000 A 
ATOM     20  C   UNL     1      50.131   6.794  16.050  0.00  0.00    +0.000 A 
ATOM     21  S   UNL     1      50.957   5.947  17.284  0.00  0.00    +0.000 S 
ATOM     22  C   UNL     1      49.639   4.899  17.528  0.00  0.00    +0.000 A 
ATOM     23  N   UNL     1      49.662   3.939  18.491  0.00  0.00    +0.000 NA
ATOM     24  C   UNL     1      48.582   3.231  18.559  0.00  0.00    +0.000 A 
ATOM     25  N   UNL     1      47.495   3.374  17.733  0.00  0.00    +0.000 N 
ATOM     26  C   UNL     1      47.450   4.291  16.709  0.00  0.00    +0.000 A 
ATOM     27  O   UNL     1      46.519   4.327  15.909  0.00  0.00    +0.000 OA
ATOM     28  C   UNL     1      48.608   5.162  16.647  0.00  0.00    +0.000 A 
ATOM     29  H   UNL     1      46.702   2.755  17.813  0.00  0.00    +0.000 HD
ENDBRANCH  18  19
BRANCH  18  30
ATOM     30  N   UNL     1      47.670   8.319  15.176  0.00  0.00    +0.000 NA
ATOM     31  H   UNL     1      48.431   8.595  15.795  0.00  0.00    +0.000 HD
ATOM     32  H   UNL     1      46.816   8.439  15.715  0.00  0.00    +0.000 HD
ENDBRANCH  18  30
ENDBRANCH   1  18
TORSDOF 8
ENDMDL
MODEL 4
REMARK VINA RESULT:    -6.836      3.174      8.383
REMARK INTER + INTRA:         -10.490
REMARK INTER:                  -9.884
REMARK INTRA:                  -0.607
REMARK UNBOUND:                -0.657
REMARK  Name = 
REMARK  8 active torsions:
REMARK  status: ('A' for Active; 'I' for Inactive)
REMARK    1  A    between atoms: N_1  and  C_2
REMARK    2  A    between atoms: C_2  and  C_3
REMARK    3  A    between atoms: C_2  and  C_18
REMARK    4  A    between atoms: C_3  and  C_4
REMARK    5  A    between atoms: C_7  and  C_8
REMARK    6  A    between atoms: C_8  and  N_9
REMARK    7  A    between atoms: N_9  and  C_10
REMARK    8  A    between atoms: C_10  and  C_11
REMARK                            x       y       z     vdW  Elec       q    Type
REMARK                         _______ _______ _______ _____ _____    ______ ____
ROOT
ATOM      1  C   UNL     1      46.815   6.987  11.381  0.00  0.00    +0.000 C 
ENDROOT
BRANCH   1   2
ATOM      2  C   UNL     1      47.409   7.083  12.765  0.00  0.00    +0.000 A 
ATOM      3  C   UNL     1      47.676   8.324  13.347  0.00  0.00    +0.000 A 
ATOM      4  C   UNL     1      48.237   8.390  14.618  0.00  0.00    +0.000 A 
ATOM      5  C   UNL     1      48.516   7.205  15.290  0.00  0.00    +0.000 A 
ATOM      6  N   UNL     1      48.275   5.984  14.743  0.00  0.00    +0.000 NA
ATOM      7  C   UNL     1      47.733   5.950  13.502  0.00  0.00    +0.000 A 
BRANCH   5   8
ATOM      8  C   UNL     1      49.149   7.249  16.670  0.00  0.00    +0.000 C 
BRANCH   8   9
ATOM      9  N   UNL     1      48.538   6.333  17.646  0.00  0.00    +0.000 NA
ATOM     10  H   UNL     1      47.731   5.909  17.179  0.00  0.00    +0.000 HD
BRANCH   9  11
ATOM     11  C   UNL     1      49.457   5.252  18.041  0.00  0.00    +0.000 C 
BRANCH  11  12
ATOM     12  C   UNL     1      48.660   3.995  18.466  0.00  0.00    +0.000 C 
ATOM     13  C   UNL     1      47.458   3.726  17.575  0.00  0.00    +0.000 C 
ATOM     14  C   UNL     1      48.050   2.984  16.392  0.00  0.00    +0.000 C 
ATOM     15  C   UNL     1      49.284   2.286  16.953  0.00  0.00    +0.000 C 
ATOM     16  N   UNL     1      49.451   2.760  18.329  0.00  0.00    +0.000 NA
ATOM     17  H   UNL     1      50.431   2.991  18.514  0.00  0.00    +0.000 HD
ENDBRANCH  11  12
ENDBRANCH   9  11
ENDBRANCH   8   9
ENDBRANCH   5   8
ENDBRANCH   1   2
BRANCH   1  18
ATOM     18  C   UNL     1      45.270   6.889  11.364  0.00  0.00    +0.000 C 
BRANCH  18  19
ATOM     19  C   UNL     1      44.790   5.459  11.536  0.00  0.00    +0.000 A 
ATOM     20  C   UNL     1      44.223   4.916  12.681  0.00  0.00    +0.000 A 
ATOM     21  S   UNL     1      43.704   3.299  12.481  0.00  0.00    +0.000 S 
ATOM     22  C   UNL     1      44.233   3.267  10.864  0.00  0.00    +0.000 A 
ATOM     23  N   UNL     1      44.050   2.173  10.077  0.00  0.00    +0.000 NA
ATOM     24  C   UNL     1      44.497   2.308   8.871  0.00  0.00    +0.000 A 
ATOM     25  N   UNL     1      45.137   3.423   8.389  0.00  0.00    +0.000 N 
ATOM     26  C   UNL     1      45.396   4.530   9.165  0.00  0.00    +0.000 A 
ATOM     27  O   UNL     1      46.069   5.469   8.752  0.00  0.00    +0.000 OA
ATOM     28  C   UNL     1      44.840   4.454  10.502  0.00  0.00    +0.000 A 
ATOM     29  H   UNL     1      45.501   3.442   7.449  0.00  0.00    +0.000 HD
ENDBRANCH  18  19
BRANCH  18  30
ATOM     30  N   UNL     1      44.626   7.706  12.404  0.00  0.00    +0.000 NA
ATOM     31  H   UNL     1      45.306   8.386  12.744  0.00  0.00    +0.000 HD
ATOM     32  H   UNL     1      44.400   7.117  13.202  0.00  0.00    +0.000 HD
ENDBRANCH  18  30
ENDBRANCH   1  18
TORSDOF 8
ENDMDL
MODEL 5
REMARK VINA RESULT:    -6.821      1.620      1.902
REMARK INTER + INTRA:         -10.468
REMARK INTER:                  -9.793
REMARK INTRA:                  -0.675
REMARK UNBOUND:                -0.657
REMARK  Name = 
REMARK  8 active torsions:
REMARK  status: ('A' for Active; 'I' for Inactive)
REMARK    1  A    between atoms: N_1  and  C_2
REMARK    2  A    between atoms: C_2  and  C_3
REMARK    3  A    between atoms: C_2  and  C_18
REMARK    4  A    between atoms: C_3  and  C_4
REMARK    5  A    between atoms: C_7  and  C_8
REMARK    6  A    between atoms: C_8  and  N_9
REMARK    7  A    between atoms: N_9  and  C_10
REMARK    8  A    between atoms: C_10  and  C_11
REMARK                            x       y       z     vdW  Elec       q    Type
REMARK                         _______ _______ _______ _____ _____    ______ ____
ROOT
ATOM      1  C   UNL     1      48.739   6.617  14.491  0.00  0.00    +0.000 C 
ENDROOT
BRANCH   1   2
ATOM      2  C   UNL     1      47.473   5.984  13.965  0.00  0.00    +0.000 A 
ATOM      3  C   UNL     1      46.599   6.701  13.146  0.00  0.00    +0.000 A 
ATOM      4  C   UNL     1      45.430   6.103  12.685  0.00  0.00    +0.000 A 
ATOM      5  C   UNL     1      45.161   4.787  13.048  0.00  0.00    +0.000 A 
ATOM      6  N   UNL     1      45.991   4.070  13.851  0.00  0.00    +0.000 NA
ATOM      7  C   UNL     1      47.119   4.680  14.290  0.00  0.00    +0.000 A 
BRANCH   5   8
ATOM      8  C   UNL     1      43.883   4.118  12.574  0.00  0.00    +0.000 C 
BRANCH   8   9
ATOM      9  N   UNL     1      44.095   2.887  11.799  0.00  0.00    +0.000 NA
ATOM     10  H   UNL     1      43.185   2.633  11.404  0.00  0.00    +0.000 HD
BRANCH   9  11
ATOM     11  C   UNL     1      45.035   3.090  10.684  0.00  0.00    +0.000 C 
BRANCH  11  12
ATOM     12  C   UNL     1      44.456   2.500   9.375  0.00  0.00    +0.000 C 
ATOM     13  C   UNL     1      44.605   3.436   8.187  0.00  0.00    +0.000 C 
ATOM     14  C   UNL     1      46.021   3.179   7.707  0.00  0.00    +0.000 C 
ATOM     15  C   UNL     1      46.316   1.743   8.123  0.00  0.00    +0.000 C 
ATOM     16  N   UNL     1      45.183   1.296   8.937  0.00  0.00    +0.000 NA
ATOM     17  H   UNL     1      45.510   0.804   9.773  0.00  0.00    +0.000 HD
ENDBRANCH  11  12
ENDBRANCH   9  11
ENDBRANCH   8   9
ENDBRANCH   5   8
ENDBRANCH   1   2
BRANCH   1  18
ATOM     18  C   UNL     1      48.877   6.567  16.031  0.00  0.00    +0.000 C 
BRANCH  18  19
ATOM     19  C   UNL     1      50.326   6.446  16.468  0.00  0.00    +0.000 A 
ATOM     20  C   UNL     1      51.300   7.429  16.360  0.00  0.00    +0.000 A 
ATOM     21  S   UNL     1      52.797   6.980  17.051  0.00  0.00    +0.000 S 
ATOM     22  C   UNL     1      52.198   5.453  17.504  0.00  0.00    +0.000 A 
ATOM     23  N   UNL     1      52.963   4.563  18.191  0.00  0.00    +0.000 NA
ATOM     24  C   UNL     1      52.362   3.453  18.470  0.00  0.00    +0.000 A 
ATOM     25  N   UNL     1      51.078   3.139  18.100  0.00  0.00    +0.000 N 
ATOM     26  C   UNL     1      50.287   3.984  17.356  0.00  0.00    +0.000 A 
ATOM     27  O   UNL     1      49.186   3.641  16.936  0.00  0.00    +0.000 OA
ATOM     28  C   UNL     1      50.893   5.274  17.088  0.00  0.00    +0.000 A 
ATOM     29  H   UNL     1      50.687   2.234  18.313  0.00  0.00    +0.000 HD
ENDBRANCH  18  19
BRANCH  18  30
ATOM     30  N   UNL     1      48.303   7.743  16.703  0.00  0.00    +0.000 NA
ATOM     31  H   UNL     1      48.148   8.469  16.003  0.00  0.00    +0.000 HD
ATOM     32  H   UNL     1      48.986   8.126  17.352  0.00  0.00    +0.000 HD
ENDBRANCH  18  30
ENDBRANCH   1  18
TORSDOF 8
ENDMDL
MODEL 6
REMARK VINA RESULT:    -6.650      3.868      8.607
REMARK INTER + INTRA:         -10.223
REMARK INTER:                  -9.376
REMARK INTRA:                  -0.846
REMARK UNBOUND:                -0.657
REMARK  Name = 
REMARK  8 active torsions:
REMARK  status: ('A' for Active; 'I' for Inactive)
REMARK    1  A    between atoms: N_1  and  C_2
REMARK    2  A    between atoms: C_2  and  C_3
REMARK    3  A    between atoms: C_2  and  C_18
REMARK    4  A    between atoms: C_3  and  C_4
REMARK    5  A    between atoms: C_7  and  C_8
REMARK    6  A    between atoms: C_8  and  N_9
REMARK    7  A    between atoms: N_9  and  C_10
REMARK    8  A    between atoms: C_10  and  C_11
REMARK                            x       y       z     vdW  Elec       q    Type
REMARK                         _______ _______ _______ _____ _____    ______ ____
ROOT
ATOM      1  C   UNL     1      44.908   6.894  12.747  0.00  0.00    +0.000 C 
ENDROOT
BRANCH   1   2
ATOM      2  C   UNL     1      46.393   7.144  12.641  0.00  0.00    +0.000 A 
ATOM      3  C   UNL     1      46.884   8.371  12.194  0.00  0.00    +0.000 A 
ATOM      4  C   UNL     1      48.257   8.575  12.091  0.00  0.00    +0.000 A 
ATOM      5  C   UNL     1      49.117   7.542  12.447  0.00  0.00    +0.000 A 
ATOM      6  N   UNL     1      48.665   6.334  12.877  0.00  0.00    +0.000 NA
ATOM      7  C   UNL     1      47.324   6.162  12.963  0.00  0.00    +0.000 A 
BRANCH   5   8
ATOM      8  C   UNL     1      50.619   7.731  12.323  0.00  0.00    +0.000 C 
BRANCH   8   9
ATOM      9  N   UNL     1      51.303   7.989  13.599  0.00  0.00    +0.000 NA
ATOM     10  H   UNL     1      51.774   8.893  13.498  0.00  0.00    +0.000 HD
BRANCH   9  11
ATOM     11  C   UNL     1      50.359   8.089  14.724  0.00  0.00    +0.000 C 
BRANCH  11  12
ATOM     12  C   UNL     1      50.703   7.045  15.813  0.00  0.00    +0.000 C 
ATOM     13  C   UNL     1      50.653   7.617  17.220  0.00  0.00    +0.000 C 
ATOM     14  C   UNL     1      49.181   7.546  17.581  0.00  0.00    +0.000 C 
ATOM     15  C   UNL     1      48.637   6.384  16.759  0.00  0.00    +0.000 C 
ATOM     16  N   UNL     1      49.718   5.951  15.869  0.00  0.00    +0.000 NA
ATOM     17  H   UNL     1      49.365   5.796  14.920  0.00  0.00    +0.000 HD
ENDBRANCH  11  12
ENDBRANCH   9  11
ENDBRANCH   8   9
ENDBRANCH   5   8
ENDBRANCH   1   2
BRANCH   1  18
ATOM     18  C   UNL     1      44.236   6.508  11.407  0.00  0.00    +0.000 C 
BRANCH  18  19
ATOM     19  C   UNL     1      44.089   5.004  11.259  0.00  0.00    +0.000 A 
ATOM     20  C   UNL     1      43.372   4.163  12.098  0.00  0.00    +0.000 A 
ATOM     21  S   UNL     1      43.339   2.539  11.565  0.00  0.00    +0.000 S 
ATOM     22  C   UNL     1      44.292   2.904  10.204  0.00  0.00    +0.000 A 
ATOM     23  N   UNL     1      44.609   1.956   9.282  0.00  0.00    +0.000 NA
ATOM     24  C   UNL     1      45.330   2.391   8.301  0.00  0.00    +0.000 A 
ATOM     25  N   UNL     1      45.789   3.679   8.174  0.00  0.00    +0.000 N 
ATOM     26  C   UNL     1      45.543   4.656   9.110  0.00  0.00    +0.000 A 
ATOM     27  O   UNL     1      46.057   5.768   9.038  0.00  0.00    +0.000 OA
ATOM     28  C   UNL     1      44.670   4.233  10.187  0.00  0.00    +0.000 A 
ATOM     29  H   UNL     1      46.387   3.939   7.404  0.00  0.00    +0.000 HD
ENDBRANCH  18  19
BRANCH  18  30
ATOM     30  N   UNL     1      42.904   7.108  11.233  0.00  0.00    +0.000 NA
ATOM     31  H   UNL     1      43.010   7.979  10.714  0.00  0.00    +0.000 HD
ATOM     32  H   UNL     1      42.532   7.371  12.142  0.00  0.00    +0.000 HD
ENDBRANCH  18  30
ENDBRANCH   1  18
TORSDOF 8
ENDMDL
MODEL 7
REMARK VINA RESULT:    -6.631      5.435      8.287
REMARK INTER + INTRA:         -10.196
REMARK INTER:                  -9.319
REMARK INTRA:                  -0.877
REMARK UNBOUND:                -0.657
REMARK  Name = 
REMARK  8 active torsions:
REMARK  status: ('A' for Active; 'I' for Inactive)
REMARK    1  A    between atoms: N_1  and  C_2
REMARK    2  A    between atoms: C_2  and  C_3
REMARK    3  A    between atoms: C_2  and  C_18
REMARK    4  A    between atoms: C_3  and  C_4
REMARK    5  A    between atoms: C_7  and  C_8
REMARK    6  A    between atoms: C_8  and  N_9
REMARK    7  A    between atoms: N_9  and  C_10
REMARK    8  A    between atoms: C_10  and  C_11
REMARK                            x       y       z     vdW  Elec       q    Type
REMARK                         _______ _______ _______ _____ _____    ______ ____
ROOT
ATOM      1  C   UNL     1      45.363   7.428  12.577  0.00  0.00    +0.000 C 
ENDROOT
BRANCH   1   2
ATOM      2  C   UNL     1      46.819   7.755  12.348  0.00  0.00    +0.000 A 
ATOM      3  C   UNL     1      47.780   6.744  12.280  0.00  0.00    +0.000 A 
ATOM      4  C   UNL     1      49.118   7.069  12.083  0.00  0.00    +0.000 A 
ATOM      5  C   UNL     1      49.471   8.408  11.949  0.00  0.00    +0.000 A 
ATOM      6  N   UNL     1      48.557   9.412  12.020  0.00  0.00    +0.000 NA
ATOM      7  C   UNL     1      47.262   9.066  12.218  0.00  0.00    +0.000 A 
BRANCH   5   8
ATOM      8  C   UNL     1      50.928   8.790  11.754  0.00  0.00    +0.000 C 
BRANCH   8   9
ATOM      9  N   UNL     1      51.827   7.650  11.525  0.00  0.00    +0.000 NA
ATOM     10  H   UNL     1      51.228   6.831  11.388  0.00  0.00    +0.000 HD
BRANCH   9  11
ATOM     11  C   UNL     1      52.646   7.824  10.314  0.00  0.00    +0.000 C 
BRANCH  11  12
ATOM     12  C   UNL     1      52.762   6.487   9.544  0.00  0.00    +0.000 C 
ATOM     13  C   UNL     1      53.671   6.579   8.329  0.00  0.00    +0.000 C 
ATOM     14  C   UNL     1      55.061   6.397   8.909  0.00  0.00    +0.000 C 
ATOM     15  C   UNL     1      54.849   5.558  10.163  0.00  0.00    +0.000 C 
ATOM     16  N   UNL     1      53.402   5.432  10.351  0.00  0.00    +0.000 NA
ATOM     17  H   UNL     1      53.149   5.589  11.331  0.00  0.00    +0.000 HD
ENDBRANCH  11  12
ENDBRANCH   9  11
ENDBRANCH   8   9
ENDBRANCH   5   8
ENDBRANCH   1   2
BRANCH   1  18
ATOM     18  C   UNL     1      44.632   6.895  11.322  0.00  0.00    +0.000 C 
BRANCH  18  19
ATOM     19  C   UNL     1      44.374   5.401  11.406  0.00  0.00    +0.000 A 
ATOM     20  C   UNL     1      43.736   4.735  12.444  0.00  0.00    +0.000 A 
ATOM     21  S   UNL     1      43.529   3.064  12.153  0.00  0.00    +0.000 S 
ATOM     22  C   UNL     1      44.297   3.172  10.638  0.00  0.00    +0.000 A 
ATOM     23  N   UNL     1      44.420   2.090   9.824  0.00  0.00    +0.000 NA
ATOM     24  C   UNL     1      45.018   2.335   8.704  0.00  0.00    +0.000 A 
ATOM     25  N   UNL     1      45.531   3.555   8.337  0.00  0.00    +0.000 N 
ATOM     26  C   UNL     1      45.481   4.662   9.152  0.00  0.00    +0.000 A 
ATOM     27  O   UNL     1      46.045   5.711   8.857  0.00  0.00    +0.000 OA
ATOM     28  C   UNL     1      44.748   4.453  10.385  0.00  0.00    +0.000 A 
ATOM     29  H   UNL     1      46.026   3.664   7.465  0.00  0.00    +0.000 HD
ENDBRANCH  18  19
BRANCH  18  30
ATOM     30  N   UNL     1      43.342   7.559  11.078  0.00  0.00    +0.000 NA
ATOM     31  H   UNL     1      43.525   8.512  10.765  0.00  0.00    +0.000 HD
ATOM     32  H   UNL     1      42.838   7.648  11.957  0.00  0.00    +0.000 HD
ENDBRANCH  18  30
ENDBRANCH   1  18
TORSDOF 8
ENDMDL
MODEL 8
REMARK VINA RESULT:    -6.516      2.555      3.243
REMARK INTER + INTRA:         -10.031
REMARK INTER:                  -9.010
REMARK INTRA:                  -1.021
REMARK UNBOUND:                -0.657
REMARK  Name = 
REMARK  8 active torsions:
REMARK  status: ('A' for Active; 'I' for Inactive)
REMARK    1  A    between atoms: N_1  and  C_2
REMARK    2  A    between atoms: C_2  and  C_3
REMARK    3  A    between atoms: C_2  and  C_18
REMARK    4  A    between atoms: C_3  and  C_4
REMARK    5  A    between atoms: C_7  and  C_8
REMARK    6  A    between atoms: C_8  and  N_9
REMARK    7  A    between atoms: N_9  and  C_10
REMARK    8  A    between atoms: C_10  and  C_11
REMARK                            x       y       z     vdW  Elec       q    Type
REMARK                         _______ _______ _______ _____ _____    ______ ____
ROOT
ATOM      1  C   UNL     1      49.236   6.066  17.148  0.00  0.00    +0.000 C 
ENDROOT
BRANCH   1   2
ATOM      2  C   UNL     1      48.723   6.324  15.753  0.00  0.00    +0.000 A 
ATOM      3  C   UNL     1      49.003   7.524  15.096  0.00  0.00    +0.000 A 
ATOM      4  C   UNL     1      48.507   7.748  13.815  0.00  0.00    +0.000 A 
ATOM      5  C   UNL     1      47.744   6.756  13.209  0.00  0.00    +0.000 A 
ATOM      6  N   UNL     1      47.450   5.582  13.829  0.00  0.00    +0.000 NA
ATOM      7  C   UNL     1      47.941   5.394  15.078  0.00  0.00    +0.000 A 
BRANCH   5   8
ATOM      8  C   UNL     1      47.174   6.983  11.819  0.00  0.00    +0.000 C 
BRANCH   8   9
ATOM      9  N   UNL     1      46.249   5.934  11.365  0.00  0.00    +0.000 NA
ATOM     10  H   UNL     1      46.336   5.162  12.033  0.00  0.00    +0.000 HD
BRANCH   9  11
ATOM     11  C   UNL     1      44.849   6.390  11.374  0.00  0.00    +0.000 C 
BRANCH  11  12
ATOM     12  C   UNL     1      44.067   5.705  12.521  0.00  0.00    +0.000 C 
ATOM     13  C   UNL     1      42.745   5.110  12.064  0.00  0.00    +0.000 C 
ATOM     14  C   UNL     1      43.140   3.761  11.493  0.00  0.00    +0.000 C 
ATOM     15  C   UNL     1      44.409   3.380  12.246  0.00  0.00    +0.000 C 
ATOM     16  N   UNL     1      44.781   4.537  13.065  0.00  0.00    +0.000 NA
ATOM     17  H   UNL     1      45.786   4.721  12.994  0.00  0.00    +0.000 HD
ENDBRANCH  11  12
ENDBRANCH   9  11
ENDBRANCH   8   9
ENDBRANCH   5   8
ENDBRANCH   1   2
BRANCH   1  18
ATOM     18  C   UNL     1      49.347   4.566  17.512  0.00  0.00    +0.000 C 
BRANCH  18  19
ATOM     19  C   UNL     1      50.733   4.203  18.014  0.00  0.00    +0.000 A 
ATOM     20  C   UNL     1      51.573   5.016  18.763  0.00  0.00    +0.000 A 
ATOM     21  S   UNL     1      53.020   4.240  19.240  0.00  0.00    +0.000 S 
ATOM     22  C   UNL     1      52.578   2.799  18.450  0.00  0.00    +0.000 A 
ATOM     23  N   UNL     1      53.364   1.691  18.499  0.00  0.00    +0.000 NA
ATOM     24  C   UNL     1      52.887   0.675  17.858  0.00  0.00    +0.000 A 
ATOM     25  N   UNL     1      51.712   0.674  17.148  0.00  0.00    +0.000 N 
ATOM     26  C   UNL     1      50.914   1.788  17.022  0.00  0.00    +0.000 A 
ATOM     27  O   UNL     1      49.929   1.801  16.289  0.00  0.00    +0.000 OA
ATOM     28  C   UNL     1      51.370   2.929  17.792  0.00  0.00    +0.000 A 
ATOM     29  H   UNL     1      51.422  -0.143  16.632  0.00  0.00    +0.000 HD
ENDBRANCH  18  19
BRANCH  18  30
ATOM     30  N   UNL     1      48.377   4.145  18.535  0.00  0.00    +0.000 NA
ATOM     31  H   UNL     1      47.587   4.789  18.513  0.00  0.00    +0.000 HD
ATOM     32  H   UNL     1      48.793   4.250  19.457  0.00  0.00    +0.000 HD
ENDBRANCH  18  30
ENDBRANCH   1  18
TORSDOF 8
ENDMDL
MODEL 9
REMARK VINA RESULT:    -6.385      3.555      8.782
REMARK INTER + INTRA:          -9.842
REMARK INTER:                  -8.406
REMARK INTRA:                  -1.436
REMARK UNBOUND:                -0.657
REMARK  Name = 
REMARK  8 active torsions:
REMARK  status: ('A' for Active; 'I' for Inactive)
REMARK    1  A    between atoms: N_1  and  C_2
REMARK    2  A    between atoms: C_2  and  C_3
REMARK    3  A    between atoms: C_2  and  C_18
REMARK    4  A    between atoms: C_3  and  C_4
REMARK    5  A    between atoms: C_7  and  C_8
REMARK    6  A    between atoms: C_8  and  N_9
REMARK    7  A    between atoms: N_9  and  C_10
REMARK    8  A    between atoms: C_10  and  C_11
REMARK                            x       y       z     vdW  Elec       q    Type
REMARK                         _______ _______ _______ _____ _____    ______ ____
ROOT
ATOM      1  C   UNL     1      48.266   8.065  14.392  0.00  0.00    +0.000 C 
ENDROOT
BRANCH   1   2
ATOM      2  C   UNL     1      48.818   8.082  15.797  0.00  0.00    +0.000 A 
ATOM      3  C   UNL     1      48.252   8.894  16.781  0.00  0.00    +0.000 A 
ATOM      4  C   UNL     1      48.786   8.905  18.066  0.00  0.00    +0.000 A 
ATOM      5  C   UNL     1      49.879   8.091  18.345  0.00  0.00    +0.000 A 
ATOM      6  N   UNL     1      50.454   7.298  17.403  0.00  0.00    +0.000 NA
ATOM      7  C   UNL     1      49.917   7.311  16.160  0.00  0.00    +0.000 A 
BRANCH   5   8
ATOM      8  C   UNL     1      50.493   8.101  19.734  0.00  0.00    +0.000 C 
BRANCH   8   9
ATOM      9  N   UNL     1      49.733   7.341  20.737  0.00  0.00    +0.000 NA
ATOM     10  H   UNL     1      48.745   7.565  20.583  0.00  0.00    +0.000 HD
BRANCH   9  11
ATOM     11  C   UNL     1      49.902   5.888  20.577  0.00  0.00    +0.000 C 
BRANCH  11  12
ATOM     12  C   UNL     1      48.535   5.170  20.683  0.00  0.00    +0.000 C 
ATOM     13  C   UNL     1      47.448   5.840  19.858  0.00  0.00    +0.000 C 
ATOM     14  C   UNL     1      47.664   5.281  18.464  0.00  0.00    +0.000 C 
ATOM     15  C   UNL     1      48.301   3.916  18.690  0.00  0.00    +0.000 C 
ATOM     16  N   UNL     1      48.575   3.807  20.125  0.00  0.00    +0.000 NA
ATOM     17  H   UNL     1      49.512   3.428  20.287  0.00  0.00    +0.000 HD
ENDBRANCH  11  12
ENDBRANCH   9  11
ENDBRANCH   8   9
ENDBRANCH   5   8
ENDBRANCH   1   2
BRANCH   1  18
ATOM     18  C   UNL     1      48.085   6.646  13.803  0.00  0.00    +0.000 C 
BRANCH  18  19
ATOM     19  C   UNL     1      46.753   6.492  13.090  0.00  0.00    +0.000 A 
ATOM     20  C   UNL     1      45.982   7.518  12.562  0.00  0.00    +0.000 A 
ATOM     21  S   UNL     1      44.590   6.966  11.736  0.00  0.00    +0.000 S 
ATOM     22  C   UNL     1      44.965   5.340  12.070  0.00  0.00    +0.000 A 
ATOM     23  N   UNL     1      44.193   4.322  11.604  0.00  0.00    +0.000 NA
ATOM     24  C   UNL     1      44.615   3.145  11.934  0.00  0.00    +0.000 A 
ATOM     25  N   UNL     1      45.718   2.894  12.711  0.00  0.00    +0.000 N 
ATOM     26  C   UNL     1      46.495   3.892  13.252  0.00  0.00    +0.000 A 
ATOM     27  O   UNL     1      47.407   3.652  14.037  0.00  0.00    +0.000 OA
ATOM     28  C   UNL     1      46.105   5.228  12.842  0.00  0.00    +0.000 A 
ATOM     29  H   UNL     1      45.963   1.949  12.967  0.00  0.00    +0.000 HD
ENDBRANCH  18  19
BRANCH  18  30
ATOM     30  N   UNL     1      49.146   6.273  12.854  0.00  0.00    +0.000 NA
ATOM     31  H   UNL     1      50.019   6.698  13.165  0.00  0.00    +0.000 HD
ATOM     32  H   UNL     1      48.945   6.686  11.946  0.00  0.00    +0.000 HD
ENDBRANCH  18  30
ENDBRANCH   1  18
TORSDOF 8
ENDMDL
