MODEL 1
REMARK VINA RESULT:    -8.198      0.000      0.000
REMARK INTER + INTRA:         -13.229
REMARK INTER:                 -12.032
REMARK INTRA:                  -1.197
REMARK UNBOUND:                -1.197
REMARK  Name = 
REMARK  9 active torsions:
REMARK  status: ('A' for Active; 'I' for Inactive)
REMARK    1  A    between atoms: C_1  and  O_2
REMARK    2  A    between atoms: O_2  and  C_3
REMARK    3  A    between atoms: C_10  and  C_11
REMARK    4  A    between atoms: N_13  and  C_14
REMARK    5  A    between atoms: C_14  and  C_15
REMARK    6  A    between atoms: C_18  and  C_19
REMARK    7  A    between atoms: C_19  and  O_20
REMARK    8  A    between atoms: O_20  and  C_21
REMARK    9  A    between atoms: C_21  and  C_22
REMARK                            x       y       z     vdW  Elec       q    Type
REMARK                         _______ _______ _______ _____ _____    ______ ____
ROOT
ATOM      1  C   UNL     1      48.031   6.893  13.142  0.00  0.00    +0.000 C 
ENDROOT
BRANCH   1   2
ATOM      2  C   UNL     1      46.909   6.058  12.573  0.00  0.00    +0.000 A 
ATOM      3  C   UNL     1      46.378   6.342  11.308  0.00  0.00    +0.000 A 
ATOM      4  C   UNL     1      45.304   5.600  10.801  0.00  0.00    +0.000 A 
ATOM      5  C   UNL     1      44.725   4.569  11.553  0.00  0.00    +0.000 A 
ATOM      6  C   UNL     1      45.260   4.282  12.815  0.00  0.00    +0.000 A 
ATOM      7  C   UNL     1      46.337   5.020  13.321  0.00  0.00    +0.000 A 
BRANCH   5   8
ATOM      8  C   UNL     1      43.540   3.800  11.020  0.00  0.00    +0.000 C 
BRANCH   8   9
ATOM      9  O   UNL     1      43.827   3.387   9.691  0.00  0.00    +0.000 OA
BRANCH   9  10
ATOM     10  C   UNL     1      44.611   2.191   9.653  0.00  0.00    +0.000 C 
BRANCH  10  11
ATOM     11  C   UNL     1      45.589   2.243   8.499  0.00  0.00    +0.000 A 
ATOM     12  C   UNL     1      45.784   3.428   7.788  0.00  0.00    +0.000 A 
ATOM     13  C   UNL     1      46.685   3.445   6.731  0.00  0.00    +0.000 A 
ATOM     14  C   UNL     1      47.385   2.288   6.417  0.00  0.00    +0.000 A 
ATOM     15  C   UNL     1      47.156   1.158   7.184  0.00  0.00    +0.000 A 
ATOM     16  N   UNL     1      46.283   1.109   8.217  0.00  0.00    +0.000 NA
ENDBRANCH  10  11
ENDBRANCH   9  10
ENDBRANCH   8   9
ENDBRANCH   5   8
ENDBRANCH   1   2
BRANCH   1  19
ATOM     17  C   UNL     1      49.048   6.999  15.394  0.00  0.00    +0.000 C 
ATOM     18  O   UNL     1      50.184   6.987  14.925  0.00  0.00    +0.000 OA
ATOM     19  N   UNL     1      47.946   6.955  14.583  0.00  0.00    +0.000 N 
ATOM     20  H   UNL     1      47.022   7.001  14.985  0.00  0.00    +0.000 HD
BRANCH  17  28
ATOM     21  C   UNL     1      48.916   4.594  17.855  0.00  0.00    +0.000 A 
ATOM     22  N   UNL     1      48.880   3.882  19.000  0.00  0.00    +0.000 NA
ATOM     23  C   UNL     1      48.700   4.543  20.146  0.00  0.00    +0.000 A 
ATOM     24  N   UNL     1      48.537   5.855  20.297  0.00  0.00    +0.000 NA
ATOM     25  C   UNL     1      48.588   6.527  19.135  0.00  0.00    +0.000 A 
ATOM     26  S   UNL     1      48.390   8.212  19.133  0.00  0.00    +0.000 S 
ATOM     27  C   UNL     1      48.595   8.285  17.447  0.00  0.00    +0.000 A 
ATOM     28  C   UNL     1      48.817   7.047  16.851  0.00  0.00    +0.000 A 
ATOM     29  C   UNL     1      48.787   5.994  17.864  0.00  0.00    +0.000 A 
BRANCH  21  31
ATOM     30  C   UNL     1      48.016   2.985  16.389  0.00  0.00    +0.000 C 
ATOM     31  O   UNL     1      49.058   3.918  16.663  0.00  0.00    +0.000 OA
ENDBRANCH  21  31
ENDBRANCH  17  28
ENDBRANCH   1  19
TORSDOF 8
ENDMDL
MODEL 2
REMARK VINA RESULT:    -7.720      1.732      3.000
REMARK INTER + INTRA:         -12.527
REMARK INTER:                 -11.201
REMARK INTRA:                  -1.327
REMARK UNBOUND:                -1.197
REMARK  Name = 
REMARK  9 active torsions:
REMARK  status: ('A' for Active; 'I' for Inactive)
REMARK    1  A    between atoms: C_1  and  O_2
REMARK    2  A    between atoms: O_2  and  C_3
REMARK    3  A    between atoms: C_10  and  C_11
REMARK    4  A    between atoms: N_13  and  C_14
REMARK    5  A    between atoms: C_14  and  C_15
REMARK    6  A    between atoms: C_18  and  C_19
REMARK    7  A    between atoms: C_19  and  O_20
REMARK    8  A    between atoms: O_20  and  C_21
REMARK    9  A    between atoms: C_21  and  C_22
REMARK                            x       y       z     vdW  Elec       q    Type
REMARK                         _______ _______ _______ _____ _____    ______ ____
ROOT
ATOM      1  C   UNL     1      48.377   6.729  13.651  0.00  0.00    +0.000 C 
ENDROOT
BRANCH   1   2
ATOM      2  C   UNL     1      47.138   6.185  12.981  0.00  0.00    +0.000 A 
ATOM      3  C   UNL     1      46.342   5.226  13.622  0.00  0.00    +0.000 A 
ATOM      4  C   UNL     1      45.221   4.684  12.981  0.00  0.00    +0.000 A 
ATOM      5  C   UNL     1      44.880   5.075  11.678  0.00  0.00    +0.000 A 
ATOM      6  C   UNL     1      45.673   6.037  11.041  0.00  0.00    +0.000 A 
ATOM      7  C   UNL     1      46.791   6.584  11.683  0.00  0.00    +0.000 A 
BRANCH   5   8
ATOM      8  C   UNL     1      43.696   4.457  10.975  0.00  0.00    +0.000 C 
BRANCH   8   9
ATOM      9  O   UNL     1      44.109   4.018   9.688  0.00  0.00    +0.000 OA
BRANCH   9  10
ATOM     10  C   UNL     1      44.574   2.666   9.701  0.00  0.00    +0.000 C 
BRANCH  10  11
ATOM     11  C   UNL     1      45.549   2.436   8.567  0.00  0.00    +0.000 A 
ATOM     12  C   UNL     1      45.911   3.486   7.721  0.00  0.00    +0.000 A 
ATOM     13  C   UNL     1      46.806   3.245   6.685  0.00  0.00    +0.000 A 
ATOM     14  C   UNL     1      47.334   1.971   6.526  0.00  0.00    +0.000 A 
ATOM     15  C   UNL     1      46.946   0.988   7.421  0.00  0.00    +0.000 A 
ATOM     16  N   UNL     1      46.075   1.190   8.437  0.00  0.00    +0.000 NA
ENDBRANCH  10  11
ENDBRANCH   9  10
ENDBRANCH   8   9
ENDBRANCH   5   8
ENDBRANCH   1   2
BRANCH   1  19
ATOM     17  C   UNL     1      48.827   6.613  16.080  0.00  0.00    +0.000 C 
ATOM     18  O   UNL     1      49.763   5.835  15.909  0.00  0.00    +0.000 OA
ATOM     19  N   UNL     1      48.103   7.092  15.022  0.00  0.00    +0.000 N 
ATOM     20  H   UNL     1      47.361   7.757  15.180  0.00  0.00    +0.000 HD
BRANCH  17  28
ATOM     21  C   UNL     1      48.007   9.675  17.426  0.00  0.00    +0.000 A 
ATOM     22  N   UNL     1      47.590  10.714  18.177  0.00  0.00    +0.000 NA
ATOM     23  C   UNL     1      47.256  10.476  19.448  0.00  0.00    +0.000 A 
ATOM     24  N   UNL     1      47.297   9.307  20.082  0.00  0.00    +0.000 NA
ATOM     25  C   UNL     1      47.710   8.298  19.295  0.00  0.00    +0.000 A 
ATOM     26  S   UNL     1      47.835   6.732  19.938  0.00  0.00    +0.000 S 
ATOM     27  C   UNL     1      48.344   6.105  18.442  0.00  0.00    +0.000 A 
ATOM     28  C   UNL     1      48.431   7.056  17.430  0.00  0.00    +0.000 A 
ATOM     29  C   UNL     1      48.074   8.374  17.954  0.00  0.00    +0.000 A 
BRANCH  21  31
ATOM     30  C   UNL     1      49.761  10.299  15.981  0.00  0.00    +0.000 C 
ATOM     31  O   UNL     1      48.395   9.917  16.125  0.00  0.00    +0.000 OA
ENDBRANCH  21  31
ENDBRANCH  17  28
ENDBRANCH   1  19
TORSDOF 8
ENDMDL
MODEL 3
REMARK VINA RESULT:    -6.905      2.480      3.152
REMARK INTER + INTRA:         -11.332
REMARK INTER:                 -10.278
REMARK INTRA:                  -1.054
REMARK UNBOUND:                -1.197
REMARK  Name = 
REMARK  9 active torsions:
REMARK  status: ('A' for Active; 'I' for Inactive)
REMARK    1  A    between atoms: C_1  and  O_2
REMARK    2  A    between atoms: O_2  and  C_3
REMARK    3  A    between atoms: C_10  and  C_11
REMARK    4  A    between atoms: N_13  and  C_14
REMARK    5  A    between atoms: C_14  and  C_15
REMARK    6  A    between atoms: C_18  and  C_19
REMARK    7  A    between atoms: C_19  and  O_20
REMARK    8  A    between atoms: O_20  and  C_21
REMARK    9  A    between atoms: C_21  and  C_22
REMARK                            x       y       z     vdW  Elec       q    Type
REMARK                         _______ _______ _______ _____ _____    ______ ____
ROOT
ATOM      1  C   UNL     1      49.185   7.278  15.097  0.00  0.00    +0.000 C 
ENDROOT
BRANCH   1   2
ATOM      2  C   UNL     1      48.127   6.541  14.312  0.00  0.00    +0.000 A 
ATOM      3  C   UNL     1      47.464   5.437  14.865  0.00  0.00    +0.000 A 
ATOM      4  C   UNL     1      46.520   4.723  14.119  0.00  0.00    +0.000 A 
ATOM      5  C   UNL     1      46.226   5.085  12.797  0.00  0.00    +0.000 A 
ATOM      6  C   UNL     1      46.884   6.191  12.246  0.00  0.00    +0.000 A 
ATOM      7  C   UNL     1      47.826   6.910  12.993  0.00  0.00    +0.000 A 
BRANCH   5   8
ATOM      8  C   UNL     1      45.238   4.285  11.981  0.00  0.00    +0.000 C 
BRANCH   8   9
ATOM      9  O   UNL     1      44.595   5.158  11.063  0.00  0.00    +0.000 OA
BRANCH   9  10
ATOM     10  C   UNL     1      43.868   4.446  10.058  0.00  0.00    +0.000 C 
BRANCH  10  11
ATOM     11  C   UNL     1      44.821   3.673   9.172  0.00  0.00    +0.000 A 
ATOM     12  C   UNL     1      45.658   4.343   8.278  0.00  0.00    +0.000 A 
ATOM     13  C   UNL     1      46.520   3.607   7.474  0.00  0.00    +0.000 A 
ATOM     14  C   UNL     1      46.543   2.224   7.590  0.00  0.00    +0.000 A 
ATOM     15  C   UNL     1      45.701   1.633   8.518  0.00  0.00    +0.000 A 
ATOM     16  N   UNL     1      44.849   2.322   9.312  0.00  0.00    +0.000 NA
ENDBRANCH  10  11
ENDBRANCH   9  10
ENDBRANCH   8   9
ENDBRANCH   5   8
ENDBRANCH   1   2
BRANCH   1  19
ATOM     17  C   UNL     1      50.441   6.406  17.040  0.00  0.00    +0.000 C 
ATOM     18  O   UNL     1      49.965   7.261  17.783  0.00  0.00    +0.000 OA
ATOM     19  N   UNL     1      50.106   6.352  15.714  0.00  0.00    +0.000 N 
ATOM     20  H   UNL     1      50.480   5.621  15.129  0.00  0.00    +0.000 HD
BRANCH  17  28
ATOM     21  C   UNL     1      50.455   2.963  17.124  0.00  0.00    +0.000 A 
ATOM     22  N   UNL     1      50.743   1.649  17.222  0.00  0.00    +0.000 NA
ATOM     23  C   UNL     1      51.925   1.302  17.739  0.00  0.00    +0.000 A 
ATOM     24  N   UNL     1      52.872   2.119  18.192  0.00  0.00    +0.000 NA
ATOM     25  C   UNL     1      52.548   3.418  18.068  0.00  0.00    +0.000 A 
ATOM     26  S   UNL     1      53.635   4.606  18.604  0.00  0.00    +0.000 S 
ATOM     27  C   UNL     1      52.590   5.854  18.113  0.00  0.00    +0.000 A 
ATOM     28  C   UNL     1      51.405   5.405  17.538  0.00  0.00    +0.000 A 
ATOM     29  C   UNL     1      51.375   3.943  17.536  0.00  0.00    +0.000 A 
BRANCH  21  31
ATOM     30  C   UNL     1      48.123   2.643  17.222  0.00  0.00    +0.000 C 
ATOM     31  O   UNL     1      49.222   3.331  16.630  0.00  0.00    +0.000 OA
ENDBRANCH  21  31
ENDBRANCH  17  28
ENDBRANCH   1  19
TORSDOF 8
ENDMDL
MODEL 4
REMARK VINA RESULT:    -6.758      4.637      9.417
REMARK INTER + INTRA:         -11.116
REMARK INTER:                 -10.202
REMARK INTRA:                  -0.914
REMARK UNBOUND:                -1.197
REMARK  Name = 
REMARK  9 active torsions:
REMARK  status: ('A' for Active; 'I' for Inactive)
REMARK    1  A    between atoms: C_1  and  O_2
REMARK    2  A    between atoms: O_2  and  C_3
REMARK    3  A    between atoms: C_10  and  C_11
REMARK    4  A    between atoms: N_13  and  C_14
REMARK    5  A    between atoms: C_14  and  C_15
REMARK    6  A    between atoms: C_18  and  C_19
REMARK    7  A    between atoms: C_19  and  O_20
REMARK    8  A    between atoms: O_20  and  C_21
REMARK    9  A    between atoms: C_21  and  C_22
REMARK                            x       y       z     vdW  Elec       q    Type
REMARK                         _______ _______ _______ _____ _____    ______ ____
ROOT
ATOM      1  C   UNL     1      47.168   3.377  16.891  0.00  0.00    +0.000 C 
ENDROOT
BRANCH   1   2
ATOM      2  C   UNL     1      48.635   3.312  17.242  0.00  0.00    +0.000 A 
ATOM      3  C   UNL     1      49.292   4.428  17.776  0.00  0.00    +0.000 A 
ATOM      4  C   UNL     1      50.663   4.385  18.055  0.00  0.00    +0.000 A 
ATOM      5  C   UNL     1      51.414   3.230  17.791  0.00  0.00    +0.000 A 
ATOM      6  C   UNL     1      50.755   2.113  17.263  0.00  0.00    +0.000 A 
ATOM      7  C   UNL     1      49.382   2.154  16.988  0.00  0.00    +0.000 A 
BRANCH   5   8
ATOM      8  C   UNL     1      52.900   3.202  18.054  0.00  0.00    +0.000 C 
BRANCH   8   9
ATOM      9  O   UNL     1      53.221   1.990  18.723  0.00  0.00    +0.000 OA
BRANCH   9  10
ATOM     10  C   UNL     1      54.566   1.573  18.472  0.00  0.00    +0.000 C 
BRANCH  10  11
ATOM     11  C   UNL     1      54.619   0.076  18.258  0.00  0.00    +0.000 A 
ATOM     12  C   UNL     1      55.020  -0.450  17.029  0.00  0.00    +0.000 A 
ATOM     13  C   UNL     1      55.055  -1.829  16.860  0.00  0.00    +0.000 A 
ATOM     14  C   UNL     1      54.708  -2.652  17.922  0.00  0.00    +0.000 A 
ATOM     15  C   UNL     1      54.345  -2.056  19.118  0.00  0.00    +0.000 A 
ATOM     16  N   UNL     1      54.298  -0.718  19.313  0.00  0.00    +0.000 NA
ENDBRANCH  10  11
ENDBRANCH   9  10
ENDBRANCH   8   9
ENDBRANCH   5   8
ENDBRANCH   1   2
BRANCH   1  19
ATOM     17  C   UNL     1      46.965   4.159  14.554  0.00  0.00    +0.000 C 
ATOM     18  O   UNL     1      47.221   3.039  14.115  0.00  0.00    +0.000 OA
ATOM     19  N   UNL     1      46.921   4.399  15.900  0.00  0.00    +0.000 N 
ATOM     20  H   UNL     1      46.674   5.316  16.241  0.00  0.00    +0.000 HD
BRANCH  17  28
ATOM     21  C   UNL     1      44.233   5.141  12.701  0.00  0.00    +0.000 A 
ATOM     22  N   UNL     1      43.311   5.776  11.949  0.00  0.00    +0.000 NA
ATOM     23  C   UNL     1      43.656   6.933  11.377  0.00  0.00    +0.000 A 
ATOM     24  N   UNL     1      44.835   7.545  11.454  0.00  0.00    +0.000 NA
ATOM     25  C   UNL     1      45.721   6.883  12.218  0.00  0.00    +0.000 A 
ATOM     26  S   UNL     1      47.284   7.511  12.422  0.00  0.00    +0.000 S 
ATOM     27  C   UNL     1      47.722   6.223  13.442  0.00  0.00    +0.000 A 
ATOM     28  C   UNL     1      46.705   5.297  13.652  0.00  0.00    +0.000 A 
ATOM     29  C   UNL     1      45.515   5.684  12.895  0.00  0.00    +0.000 A 
BRANCH  21  31
ATOM     30  C   UNL     1      43.768   2.863  12.321  0.00  0.00    +0.000 C 
ATOM     31  O   UNL     1      43.903   3.926  13.261  0.00  0.00    +0.000 OA
ENDBRANCH  21  31
ENDBRANCH  17  28
ENDBRANCH   1  19
TORSDOF 8
ENDMDL
MODEL 5
REMARK VINA RESULT:    -6.519      3.934      8.928
REMARK INTER + INTRA:         -10.764
REMARK INTER:                  -9.510
REMARK INTRA:                  -1.254
REMARK UNBOUND:                -1.197
REMARK  Name = 
REMARK  9 active torsions:
REMARK  status: ('A' for Active; 'I' for Inactive)
REMARK    1  A    between atoms: C_1  and  O_2
REMARK    2  A    between atoms: O_2  and  C_3
REMARK    3  A    between atoms: C_10  and  C_11
REMARK    4  A    between atoms: N_13  and  C_14
REMARK    5  A    between atoms: C_14  and  C_15
REMARK    6  A    between atoms: C_18  and  C_19
REMARK    7  A    between atoms: C_19  and  O_20
REMARK    8  A    between atoms: O_20  and  C_21
REMARK    9  A    between atoms: C_21  and  C_22
REMARK                            x       y       z     vdW  Elec       q    Type
REMARK                         _______ _______ _______ _____ _____    ______ ____
ROOT
ATOM      1  C   UNL     1      47.399   3.390  16.941  0.00  0.00    +0.000 C 
ENDROOT
BRANCH   1   2
ATOM      2  C   UNL     1      48.875   3.315  17.250  0.00  0.00    +0.000 A 
ATOM      3  C   UNL     1      49.570   4.446  17.699  0.00  0.00    +0.000 A 
ATOM      4  C   UNL     1      50.949   4.390  17.938  0.00  0.00    +0.000 A 
ATOM      5  C   UNL     1      51.668   3.207  17.718  0.00  0.00    +0.000 A 
ATOM      6  C   UNL     1      50.972   2.075  17.275  0.00  0.00    +0.000 A 
ATOM      7  C   UNL     1      49.592   2.129  17.041  0.00  0.00    +0.000 A 
BRANCH   5   8
ATOM      8  C   UNL     1      53.161   3.163  17.936  0.00  0.00    +0.000 C 
BRANCH   8   9
ATOM      9  O   UNL     1      53.567   4.378  18.552  0.00  0.00    +0.000 OA
BRANCH   9  10
ATOM     10  C   UNL     1      54.859   4.804  18.108  0.00  0.00    +0.000 C 
BRANCH  10  11
ATOM     11  C   UNL     1      54.745   5.529  16.785  0.00  0.00    +0.000 A 
ATOM     12  C   UNL     1      53.802   6.544  16.613  0.00  0.00    +0.000 A 
ATOM     13  C   UNL     1      53.718   7.190  15.386  0.00  0.00    +0.000 A 
ATOM     14  C   UNL     1      54.585   6.825  14.365  0.00  0.00    +0.000 A 
ATOM     15  C   UNL     1      55.510   5.827  14.621  0.00  0.00    +0.000 A 
ATOM     16  N   UNL     1      55.615   5.177  15.803  0.00  0.00    +0.000 NA
ENDBRANCH  10  11
ENDBRANCH   9  10
ENDBRANCH   8   9
ENDBRANCH   5   8
ENDBRANCH   1   2
BRANCH   1  19
ATOM     17  C   UNL     1      47.077   4.180  14.620  0.00  0.00    +0.000 C 
ATOM     18  O   UNL     1      47.259   3.052  14.169  0.00  0.00    +0.000 OA
ATOM     19  N   UNL     1      47.130   4.422  15.966  0.00  0.00    +0.000 N 
ATOM     20  H   UNL     1      46.943   5.348  16.320  0.00  0.00    +0.000 HD
BRANCH  17  28
ATOM     21  C   UNL     1      44.367   5.113  12.711  0.00  0.00    +0.000 A 
ATOM     22  N   UNL     1      43.446   5.734  11.947  0.00  0.00    +0.000 NA
ATOM     23  C   UNL     1      43.768   6.913  11.408  0.00  0.00    +0.000 A 
ATOM     24  N   UNL     1      44.924   7.561  11.530  0.00  0.00    +0.000 NA
ATOM     25  C   UNL     1      45.809   6.912  12.306  0.00  0.00    +0.000 A 
ATOM     26  S   UNL     1      47.345   7.585  12.566  0.00  0.00    +0.000 S 
ATOM     27  C   UNL     1      47.797   6.291  13.572  0.00  0.00    +0.000 A 
ATOM     28  C   UNL     1      46.805   5.329  13.734  0.00  0.00    +0.000 A 
ATOM     29  C   UNL     1      45.625   5.693  12.953  0.00  0.00    +0.000 A 
BRANCH  21  31
ATOM     30  C   UNL     1      43.644   2.914  12.271  0.00  0.00    +0.000 C 
ATOM     31  O   UNL     1      44.061   3.877  13.237  0.00  0.00    +0.000 OA
ENDBRANCH  21  31
ENDBRANCH  17  28
ENDBRANCH   1  19
TORSDOF 8
ENDMDL
MODEL 6
REMARK VINA RESULT:    -6.395      1.748      3.070
REMARK INTER + INTRA:         -10.583
REMARK INTER:                  -9.442
REMARK INTRA:                  -1.141
REMARK UNBOUND:                -1.197
REMARK  Name = 
REMARK  9 active torsions:
REMARK  status: ('A' for Active; 'I' for Inactive)
REMARK    1  A    between atoms: C_1  and  O_2
REMARK    2  A    between atoms: O_2  and  C_3
REMARK    3  A    between atoms: C_10  and  C_11
REMARK    4  A    between atoms: N_13  and  C_14
REMARK    5  A    between atoms: C_14  and  C_15
REMARK    6  A    between atoms: C_18  and  C_19
REMARK    7  A    between atoms: C_19  and  O_20
REMARK    8  A    between atoms: O_20  and  C_21
REMARK    9  A    between atoms: C_21  and  C_22
REMARK                            x       y       z     vdW  Elec       q    Type
REMARK                         _______ _______ _______ _____ _____    ______ ____
ROOT
ATOM      1  C   UNL     1      47.435   3.898  15.422  0.00  0.00    +0.000 C 
ENDROOT
BRANCH   1   2
ATOM      2  C   UNL     1      46.772   4.377  14.152  0.00  0.00    +0.000 A 
ATOM      3  C   UNL     1      46.068   3.484  13.333  0.00  0.00    +0.000 A 
ATOM      4  C   UNL     1      45.496   3.916  12.131  0.00  0.00    +0.000 A 
ATOM      5  C   UNL     1      45.628   5.247  11.711  0.00  0.00    +0.000 A 
ATOM      6  C   UNL     1      46.327   6.140  12.532  0.00  0.00    +0.000 A 
ATOM      7  C   UNL     1      46.895   5.710  13.737  0.00  0.00    +0.000 A 
BRANCH   5   8
ATOM      8  C   UNL     1      45.046   5.699  10.393  0.00  0.00    +0.000 C 
BRANCH   8   9
ATOM      9  O   UNL     1      44.910   4.567   9.544  0.00  0.00    +0.000 OA
BRANCH   9  10
ATOM     10  C   UNL     1      45.702   4.682   8.359  0.00  0.00    +0.000 C 
BRANCH  10  11
ATOM     11  C   UNL     1      46.248   3.327   7.961  0.00  0.00    +0.000 A 
ATOM     12  C   UNL     1      45.692   2.158   8.484  0.00  0.00    +0.000 A 
ATOM     13  C   UNL     1      46.216   0.929   8.103  0.00  0.00    +0.000 A 
ATOM     14  C   UNL     1      47.268   0.890   7.198  0.00  0.00    +0.000 A 
ATOM     15  C   UNL     1      47.748   2.091   6.704  0.00  0.00    +0.000 A 
ATOM     16  N   UNL     1      47.262   3.303   7.057  0.00  0.00    +0.000 NA
ENDBRANCH  10  11
ENDBRANCH   9  10
ENDBRANCH   8   9
ENDBRANCH   5   8
ENDBRANCH   1   2
BRANCH   1  19
ATOM     17  C   UNL     1      48.798   5.173  17.044  0.00  0.00    +0.000 C 
ATOM     18  O   UNL     1      49.741   4.393  16.926  0.00  0.00    +0.000 OA
ATOM     19  N   UNL     1      47.638   4.994  16.340  0.00  0.00    +0.000 N 
ATOM     20  H   UNL     1      46.889   5.665  16.425  0.00  0.00    +0.000 HD
BRANCH  17  28
ATOM     21  C   UNL     1      50.495   8.168  16.959  0.00  0.00    +0.000 A 
ATOM     22  N   UNL     1      50.979   9.413  17.143  0.00  0.00    +0.000 NA
ATOM     23  C   UNL     1      50.590  10.084  18.230  0.00  0.00    +0.000 A 
ATOM     24  N   UNL     1      49.768   9.655  19.185  0.00  0.00    +0.000 NA
ATOM     25  C   UNL     1      49.303   8.414  18.958  0.00  0.00    +0.000 A 
ATOM     26  S   UNL     1      48.248   7.699  20.078  0.00  0.00    +0.000 S 
ATOM     27  C   UNL     1      48.121   6.291  19.134  0.00  0.00    +0.000 A 
ATOM     28  C   UNL     1      48.866   6.329  17.959  0.00  0.00    +0.000 A 
ATOM     29  C   UNL     1      49.593   7.594  17.872  0.00  0.00    +0.000 A 
BRANCH  21  31
ATOM     30  C   UNL     1      50.174   7.692  14.673  0.00  0.00    +0.000 C 
ATOM     31  O   UNL     1      50.923   7.451  15.862  0.00  0.00    +0.000 OA
ENDBRANCH  21  31
ENDBRANCH  17  28
ENDBRANCH   1  19
TORSDOF 8
ENDMDL
MODEL 7
REMARK VINA RESULT:    -5.847      1.528      2.181
REMARK INTER + INTRA:          -9.778
REMARK INTER:                  -9.374
REMARK INTRA:                  -0.403
REMARK UNBOUND:                -1.197
REMARK  Name = 
REMARK  9 active torsions:
REMARK  status: ('A' for Active; 'I' for Inactive)
REMARK    1  A    between atoms: C_1  and  O_2
REMARK    2  A    between atoms: O_2  and  C_3
REMARK    3  A    between atoms: C_10  and  C_11
REMARK    4  A    between atoms: N_13  and  C_14
REMARK    5  A    between atoms: C_14  and  C_15
REMARK    6  A    between atoms: C_18  and  C_19
REMARK    7  A    between atoms: C_19  and  O_20
REMARK    8  A    between atoms: O_20  and  C_21
REMARK    9  A    between atoms: C_21  and  C_22
REMARK                            x       y       z     vdW  Elec       q    Type
REMARK                         _______ _______ _______ _____ _____    ______ ____
ROOT
ATOM      1  C   UNL     1      48.467   8.407  13.957  0.00  0.00    +0.000 C 
ENDROOT
BRANCH   1   2
ATOM      2  C   UNL     1      47.607   7.327  13.345  0.00  0.00    +0.000 A 
ATOM      3  C   UNL     1      47.557   6.046  13.912  0.00  0.00    +0.000 A 
ATOM      4  C   UNL     1      46.799   5.031  13.317  0.00  0.00    +0.000 A 
ATOM      5  C   UNL     1      46.086   5.266  12.133  0.00  0.00    +0.000 A 
ATOM      6  C   UNL     1      46.132   6.548  11.570  0.00  0.00    +0.000 A 
ATOM      7  C   UNL     1      46.886   7.566  12.167  0.00  0.00    +0.000 A 
BRANCH   5   8
ATOM      8  C   UNL     1      45.305   4.156  11.472  0.00  0.00    +0.000 C 
BRANCH   8   9
ATOM      9  O   UNL     1      43.989   4.622  11.207  0.00  0.00    +0.000 OA
BRANCH   9  10
ATOM     10  C   UNL     1      43.539   4.258   9.899  0.00  0.00    +0.000 C 
BRANCH  10  11
ATOM     11  C   UNL     1      44.672   3.642   9.108  0.00  0.00    +0.000 A 
ATOM     12  C   UNL     1      44.887   2.263   9.135  0.00  0.00    +0.000 A 
ATOM     13  C   UNL     1      45.938   1.725   8.402  0.00  0.00    +0.000 A 
ATOM     14  C   UNL     1      46.739   2.569   7.645  0.00  0.00    +0.000 A 
ATOM     15  C   UNL     1      46.448   3.923   7.649  0.00  0.00    +0.000 A 
ATOM     16  N   UNL     1      45.434   4.477   8.354  0.00  0.00    +0.000 NA
ENDBRANCH  10  11
ENDBRANCH   9  10
ENDBRANCH   8   9
ENDBRANCH   5   8
ENDBRANCH   1   2
BRANCH   1  19
ATOM     17  C   UNL     1      49.041   8.255  16.357  0.00  0.00    +0.000 C 
ATOM     18  O   UNL     1      50.154   7.800  16.103  0.00  0.00    +0.000 OA
ATOM     19  N   UNL     1      48.162   8.576  15.358  0.00  0.00    +0.000 N 
ATOM     20  H   UNL     1      47.266   8.981  15.586  0.00  0.00    +0.000 HD
BRANCH  17  28
ATOM     21  C   UNL     1      47.936   6.140  18.840  0.00  0.00    +0.000 A 
ATOM     22  N   UNL     1      47.544   5.544  19.984  0.00  0.00    +0.000 NA
ATOM     23  C   UNL     1      47.344   6.314  21.057  0.00  0.00    +0.000 A 
ATOM     24  N   UNL     1      47.480   7.635  21.131  0.00  0.00    +0.000 NA
ATOM     25  C   UNL     1      47.879   8.188  19.973  0.00  0.00    +0.000 A 
ATOM     26  S   UNL     1      48.096   9.868  19.877  0.00  0.00    +0.000 S 
ATOM     27  C   UNL     1      48.583   9.763  18.252  0.00  0.00    +0.000 A 
ATOM     28  C   UNL     1      48.595   8.466  17.748  0.00  0.00    +0.000 A 
ATOM     29  C   UNL     1      48.148   7.528  18.777  0.00  0.00    +0.000 A 
BRANCH  21  31
ATOM     30  C   UNL     1      47.322   4.168  17.705  0.00  0.00    +0.000 C 
ATOM     31  O   UNL     1      48.104   5.361  17.715  0.00  0.00    +0.000 OA
ENDBRANCH  21  31
ENDBRANCH  17  28
ENDBRANCH   1  19
TORSDOF 8
ENDMDL
MODEL 8
REMARK VINA RESULT:    -5.788      3.588      8.335
REMARK INTER + INTRA:          -9.691
REMARK INTER:                  -8.263
REMARK INTRA:                  -1.428
REMARK UNBOUND:                -1.197
REMARK  Name = 
REMARK  9 active torsions:
REMARK  status: ('A' for Active; 'I' for Inactive)
REMARK    1  A    between atoms: C_1  and  O_2
REMARK    2  A    between atoms: O_2  and  C_3
REMARK    3  A    between atoms: C_10  and  C_11
REMARK    4  A    between atoms: N_13  and  C_14
REMARK    5  A    between atoms: C_14  and  C_15
REMARK    6  A    between atoms: C_18  and  C_19
REMARK    7  A    between atoms: C_19  and  O_20
REMARK    8  A    between atoms: O_20  and  C_21
REMARK    9  A    between atoms: C_21  and  C_22
REMARK                            x       y       z     vdW  Elec       q    Type
REMARK                         _______ _______ _______ _____ _____    ______ ____
ROOT
ATOM      1  C   UNL     1      48.086   9.450  14.695  0.00  0.00    +0.000 C 
ENDROOT
BRANCH   1   2
ATOM      2  C   UNL     1      48.365   8.946  16.091  0.00  0.00    +0.000 A 
ATOM      3  C   UNL     1      47.814   9.591  17.207  0.00  0.00    +0.000 A 
ATOM      4  C   UNL     1      48.112   9.156  18.503  0.00  0.00    +0.000 A 
ATOM      5  C   UNL     1      48.981   8.075  18.716  0.00  0.00    +0.000 A 
ATOM      6  C   UNL     1      49.526   7.428  17.601  0.00  0.00    +0.000 A 
ATOM      7  C   UNL     1      49.224   7.860  16.303  0.00  0.00    +0.000 A 
BRANCH   5   8
ATOM      8  C   UNL     1      49.333   7.636  20.117  0.00  0.00    +0.000 C 
BRANCH   8   9
ATOM      9  O   UNL     1      50.188   6.504  20.037  0.00  0.00    +0.000 OA
BRANCH   9  10
ATOM     10  C   UNL     1      49.496   5.283  20.314  0.00  0.00    +0.000 C 
BRANCH  10  11
ATOM     11  C   UNL     1      49.725   4.286  19.199  0.00  0.00    +0.000 A 
ATOM     12  C   UNL     1      48.666   3.525  18.701  0.00  0.00    +0.000 A 
ATOM     13  C   UNL     1      48.907   2.614  17.679  0.00  0.00    +0.000 A 
ATOM     14  C   UNL     1      50.191   2.495  17.165  0.00  0.00    +0.000 A 
ATOM     15  C   UNL     1      51.184   3.302  17.694  0.00  0.00    +0.000 A 
ATOM     16  N   UNL     1      50.982   4.196  18.690  0.00  0.00    +0.000 NA
ENDBRANCH  10  11
ENDBRANCH   9  10
ENDBRANCH   8   9
ENDBRANCH   5   8
ENDBRANCH   1   2
BRANCH   1  19
ATOM     17  C   UNL     1      47.266   7.718  13.133  0.00  0.00    +0.000 C 
ATOM     18  O   UNL     1      48.408   7.452  12.765  0.00  0.00    +0.000 OA
ATOM     19  N   UNL     1      47.031   8.684  14.073  0.00  0.00    +0.000 N 
ATOM     20  H   UNL     1      46.089   8.864  14.387  0.00  0.00    +0.000 HD
BRANCH  17  28
ATOM     21  C   UNL     1      46.204   4.443  13.187  0.00  0.00    +0.000 A 
ATOM     22  N   UNL     1      45.537   3.273  13.110  0.00  0.00    +0.000 NA
ATOM     23  C   UNL     1      44.362   3.260  12.475  0.00  0.00    +0.000 A 
ATOM     24  N   UNL     1      43.760   4.289  11.884  0.00  0.00    +0.000 NA
ATOM     25  C   UNL     1      44.453   5.436  11.991  0.00  0.00    +0.000 A 
ATOM     26  S   UNL     1      43.841   6.853  11.287  0.00  0.00    +0.000 S 
ATOM     27  C   UNL     1      45.166   7.761  11.843  0.00  0.00    +0.000 A 
ATOM     28  C   UNL     1      46.094   7.021  12.569  0.00  0.00    +0.000 A 
ATOM     29  C   UNL     1      45.674   5.622  12.633  0.00  0.00    +0.000 A 
BRANCH  21  31
ATOM     30  C   UNL     1      47.386   4.674  15.212  0.00  0.00    +0.000 C 
ATOM     31  O   UNL     1      47.436   4.459  13.803  0.00  0.00    +0.000 OA
ENDBRANCH  21  31
ENDBRANCH  17  28
ENDBRANCH   1  19
TORSDOF 8
ENDMDL
MODEL 9
REMARK VINA RESULT:    -5.779      3.505      8.777
REMARK INTER + INTRA:          -9.679
REMARK INTER:                  -7.824
REMARK INTRA:                  -1.856
REMARK UNBOUND:                -1.197
REMARK  Name = 
REMARK  9 active torsions:
REMARK  status: ('A' for Active; 'I' for Inactive)
REMARK    1  A    between atoms: C_1  and  O_2
REMARK    2  A    between atoms: O_2  and  C_3
REMARK    3  A    between atoms: C_10  and  C_11
REMARK    4  A    between atoms: N_13  and  C_14
REMARK    5  A    between atoms: C_14  and  C_15
REMARK    6  A    between atoms: C_18  and  C_19
REMARK    7  A    between atoms: C_19  and  O_20
REMARK    8  A    between atoms: O_20  and  C_21
REMARK    9  A    between atoms: C_21  and  C_22
REMARK                            x       y       z     vdW  Elec       q    Type
REMARK                         _______ _______ _______ _____ _____    ______ ____
ROOT
ATOM      1  C   UNL     1      47.527   3.887  15.875  0.00  0.00    +0.000 C 
ENDROOT
BRANCH   1   2
ATOM      2  C   UNL     1      47.966   4.704  17.067  0.00  0.00    +0.000 A 
ATOM      3  C   UNL     1      47.033   5.138  18.019  0.00  0.00    +0.000 A 
ATOM      4  C   UNL     1      47.432   5.938  19.097  0.00  0.00    +0.000 A 
ATOM      5  C   UNL     1      48.769   6.336  19.240  0.00  0.00    +0.000 A 
ATOM      6  C   UNL     1      49.701   5.897  18.292  0.00  0.00    +0.000 A 
ATOM      7  C   UNL     1      49.304   5.093  17.216  0.00  0.00    +0.000 A 
BRANCH   5   8
ATOM      8  C   UNL     1      49.186   7.233  20.380  0.00  0.00    +0.000 C 
BRANCH   8   9
ATOM      9  O   UNL     1      48.627   8.523  20.172  0.00  0.00    +0.000 OA
BRANCH   9  10
ATOM     10  C   UNL     1      49.561   9.428  19.579  0.00  0.00    +0.000 C 
BRANCH  10  11
ATOM     11  C   UNL     1      49.456   9.375  18.070  0.00  0.00    +0.000 A 
ATOM     12  C   UNL     1      48.212   9.237  17.451  0.00  0.00    +0.000 A 
ATOM     13  C   UNL     1      48.146   9.187  16.064  0.00  0.00    +0.000 A 
ATOM     14  C   UNL     1      49.316   9.294  15.325  0.00  0.00    +0.000 A 
ATOM     15  C   UNL     1      50.509   9.455  16.010  0.00  0.00    +0.000 A 
ATOM     16  N   UNL     1      50.606   9.504  17.358  0.00  0.00    +0.000 NA
ENDBRANCH  10  11
ENDBRANCH   9  10
ENDBRANCH   8   9
ENDBRANCH   5   8
ENDBRANCH   1   2
BRANCH   1  19
ATOM     17  C   UNL     1      47.179   5.506  14.039  0.00  0.00    +0.000 C 
ATOM     18  O   UNL     1      48.390   5.637  13.872  0.00  0.00    +0.000 OA
ATOM     19  N   UNL     1      46.683   4.668  15.000  0.00  0.00    +0.000 N 
ATOM     20  H   UNL     1      45.686   4.548  15.098  0.00  0.00    +0.000 HD
BRANCH  17  28
ATOM     21  C   UNL     1      44.144   4.692  12.631  0.00  0.00    +0.000 A 
ATOM     22  N   UNL     1      42.931   4.662  12.041  0.00  0.00    +0.000 NA
ATOM     23  C   UNL     1      42.485   5.781  11.464  0.00  0.00    +0.000 A 
ATOM     24  N   UNL     1      43.116   6.950  11.390  0.00  0.00    +0.000 NA
ATOM     25  C   UNL     1      44.315   6.939  11.997  0.00  0.00    +0.000 A 
ATOM     26  S   UNL     1      45.268   8.343  11.994  0.00  0.00    +0.000 S 
ATOM     27  C   UNL     1      46.487   7.578  12.898  0.00  0.00    +0.000 A 
ATOM     28  C   UNL     1      46.205   6.254  13.221  0.00  0.00    +0.000 A 
ATOM     29  C   UNL     1      44.912   5.869  12.657  0.00  0.00    +0.000 A 
BRANCH  21  31
ATOM     30  C   UNL     1      45.386   2.718  12.297  0.00  0.00    +0.000 C 
ATOM     31  O   UNL     1      44.632   3.532  13.192  0.00  0.00    +0.000 OA
ENDBRANCH  21  31
ENDBRANCH  17  28
ENDBRANCH   1  19
TORSDOF 8
ENDMDL
