MODEL 1
REMARK VINA RESULT:    -8.616      0.000      0.000
REMARK INTER + INTRA:         -12.931
REMARK INTER:                 -12.142
REMARK INTRA:                  -0.790
REMARK UNBOUND:                -0.790
REMARK  Name = 
REMARK  8 active torsions:
REMARK  status: ('A' for Active; 'I' for Inactive)
REMARK    1  A    between atoms: C_1  and  N_2
REMARK    2  A    between atoms: C_4  and  O_5
REMARK    3  A    between atoms: O_5  and  C_6
REMARK    4  A    between atoms: C_10  and  C_11
REMARK    5  A    between atoms: C_11  and  C_12
REMARK    6  A    between atoms: C_12  and  N_13
REMARK    7  A    between atoms: N_13  and  C_14
REMARK    8  A    between atoms: C_17  and  C_18
REMARK                            x       y       z     vdW  Elec       q    Type
REMARK                         _______ _______ _______ _____ _____    ______ ____
ROOT
ATOM      1  C   UNL     1      43.267   4.442  11.182  0.00  0.00    +0.000 C 
ENDROOT
BRANCH   1   2
ATOM      2  N   UNL     1      43.683   4.875   9.848  0.00  0.00    +0.000 N 
ATOM      3  H   UNL     1      44.102   5.806   9.857  0.00  0.00    +0.000 HD
BRANCH   2   4
ATOM      4  C   UNL     1      44.490   3.946   9.165  0.00  0.00    +0.000 A 
ATOM      5  C   UNL     1      45.456   4.333   8.228  0.00  0.00    +0.000 A 
ATOM      6  C   UNL     1      46.285   3.400   7.627  0.00  0.00    +0.000 A 
ATOM      7  C   UNL     1      46.161   2.069   8.003  0.00  0.00    +0.000 A 
ATOM      8  N   UNL     1      45.257   1.630   8.924  0.00  0.00    +0.000 NA
ATOM      9  C   UNL     1      44.468   2.581   9.483  0.00  0.00    +0.000 A 
BRANCH   7  10
ATOM     10  C   UNL     1      47.079   1.051   7.413  0.00  0.00    +0.000 C 
ATOM     11  N   UNL     1      46.788  -0.248   7.694  0.00  0.00    +0.000 N 
ATOM     12  O   UNL     1      48.052   1.353   6.720  0.00  0.00    +0.000 OA
ATOM     13  H   UNL     1      45.999  -0.466   8.297  0.00  0.00    +0.000 HD
ATOM     14  H   UNL     1      47.400  -0.982   7.366  0.00  0.00    +0.000 HD
ENDBRANCH   7  10
ENDBRANCH   2   4
ENDBRANCH   1   2
BRANCH   1  15
ATOM     15  C   UNL     1      43.494   5.514  12.259  0.00  0.00    +0.000 C 
BRANCH  15  20
ATOM     16  C   UNL     1      46.953   4.823  13.751  0.00  0.00    +0.000 A 
ATOM     17  C   UNL     1      47.713   5.830  13.162  0.00  0.00    +0.000 A 
ATOM     18  C   UNL     1      47.103   6.788  12.363  0.00  0.00    +0.000 A 
ATOM     19  C   UNL     1      45.725   6.724  12.108  0.00  0.00    +0.000 A 
ATOM     20  C   UNL     1      44.954   5.677  12.650  0.00  0.00    +0.000 A 
ATOM     21  C   UNL     1      45.589   4.760  13.502  0.00  0.00    +0.000 A 
BRANCH  16  22
ATOM     22  O   UNL     1      47.498   3.809  14.506  0.00  0.00    +0.000 OA
BRANCH  22  26
ATOM     23  C   UNL     1      49.855   4.054  18.200  0.00  0.00    +0.000 C 
ATOM     24  N   UNL     1      49.270   3.985  16.869  0.00  0.00    +0.000 NA
ATOM     25  C   UNL     1      48.169   4.969  16.733  0.00  0.00    +0.000 C 
ATOM     26  C   UNL     1      47.371   3.885  15.946  0.00  0.00    +0.000 C 
ATOM     27  C   UNL     1      48.274   2.897  16.744  0.00  0.00    +0.000 C 
ENDBRANCH  22  26
ENDBRANCH  16  22
ENDBRANCH  15  20
ENDBRANCH   1  15
TORSDOF 7
ENDMDL
MODEL 2
REMARK VINA RESULT:    -7.012      2.051      7.271
REMARK INTER + INTRA:         -10.671
REMARK INTER:                  -9.781
REMARK INTRA:                  -0.890
REMARK UNBOUND:                -0.790
REMARK  Name = 
REMARK  8 active torsions:
REMARK  status: ('A' for Active; 'I' for Inactive)
REMARK    1  A    between atoms: C_1  and  N_2
REMARK    2  A    between atoms: C_4  and  O_5
REMARK    3  A    between atoms: O_5  and  C_6
REMARK    4  A    between atoms: C_10  and  C_11
REMARK    5  A    between atoms: C_11  and  C_12
REMARK    6  A    between atoms: C_12  and  N_13
REMARK    7  A    between atoms: N_13  and  C_14
REMARK    8  A    between atoms: C_17  and  C_18
REMARK                            x       y       z     vdW  Elec       q    Type
REMARK                         _______ _______ _______ _____ _____    ______ ____
ROOT
ATOM      1  C   UNL     1      46.071   7.786  12.841  0.00  0.00    +0.000 C 
ENDROOT
BRANCH   1   2
ATOM      2  N   UNL     1      47.385   7.153  12.944  0.00  0.00    +0.000 N 
ATOM      3  H   UNL     1      48.135   7.836  13.063  0.00  0.00    +0.000 HD
BRANCH   2   4
ATOM      4  C   UNL     1      47.458   6.127  13.905  0.00  0.00    +0.000 A 
ATOM      5  C   UNL     1      46.835   4.885  13.728  0.00  0.00    +0.000 A 
ATOM      6  C   UNL     1      46.986   3.869  14.658  0.00  0.00    +0.000 A 
ATOM      7  C   UNL     1      47.803   4.099  15.757  0.00  0.00    +0.000 A 
ATOM      8  N   UNL     1      48.455   5.276  15.976  0.00  0.00    +0.000 NA
ATOM      9  C   UNL     1      48.274   6.239  15.039  0.00  0.00    +0.000 A 
BRANCH   7  10
ATOM     10  C   UNL     1      48.029   3.002  16.745  0.00  0.00    +0.000 C 
ATOM     11  N   UNL     1      47.036   2.807  17.655  0.00  0.00    +0.000 N 
ATOM     12  O   UNL     1      49.051   2.315  16.755  0.00  0.00    +0.000 OA
ATOM     13  H   UNL     1      46.219   3.413  17.644  0.00  0.00    +0.000 HD
ATOM     14  H   UNL     1      47.150   2.114  18.381  0.00  0.00    +0.000 HD
ENDBRANCH   7  10
ENDBRANCH   2   4
ENDBRANCH   1   2
BRANCH   1  15
ATOM     15  C   UNL     1      45.434   7.626  11.453  0.00  0.00    +0.000 C 
BRANCH  15  20
ATOM     16  C   UNL     1      44.567   3.964  10.735  0.00  0.00    +0.000 A 
ATOM     17  C   UNL     1      43.275   3.883  11.247  0.00  0.00    +0.000 A 
ATOM     18  C   UNL     1      42.644   5.019  11.734  0.00  0.00    +0.000 A 
ATOM     19  C   UNL     1      43.318   6.249  11.756  0.00  0.00    +0.000 A 
ATOM     20  C   UNL     1      44.647   6.334  11.295  0.00  0.00    +0.000 A 
ATOM     21  C   UNL     1      45.235   5.182  10.753  0.00  0.00    +0.000 A 
BRANCH  16  22
ATOM     22  O   UNL     1      45.275   2.871  10.290  0.00  0.00    +0.000 OA
BRANCH  22  26
ATOM     23  C   UNL     1      46.942   2.489   6.248  0.00  0.00    +0.000 C 
ATOM     24  N   UNL     1      46.587   2.706   7.642  0.00  0.00    +0.000 NA
ATOM     25  C   UNL     1      46.028   1.467   8.236  0.00  0.00    +0.000 C 
ATOM     26  C   UNL     1      44.979   2.357   8.969  0.00  0.00    +0.000 C 
ATOM     27  C   UNL     1      45.259   3.343   7.796  0.00  0.00    +0.000 C 
ENDBRANCH  22  26
ENDBRANCH  16  22
ENDBRANCH  15  20
ENDBRANCH   1  15
TORSDOF 7
ENDMDL
MODEL 3
REMARK VINA RESULT:    -6.963      2.856      3.609
REMARK INTER + INTRA:         -10.602
REMARK INTER:                 -10.076
REMARK INTRA:                  -0.526
REMARK UNBOUND:                -0.790
REMARK  Name = 
REMARK  8 active torsions:
REMARK  status: ('A' for Active; 'I' for Inactive)
REMARK    1  A    between atoms: C_1  and  N_2
REMARK    2  A    between atoms: C_4  and  O_5
REMARK    3  A    between atoms: O_5  and  C_6
REMARK    4  A    between atoms: C_10  and  C_11
REMARK    5  A    between atoms: C_11  and  C_12
REMARK    6  A    between atoms: C_12  and  N_13
REMARK    7  A    between atoms: N_13  and  C_14
REMARK    8  A    between atoms: C_17  and  C_18
REMARK                            x       y       z     vdW  Elec       q    Type
REMARK                         _______ _______ _______ _____ _____    ______ ____
ROOT
ATOM      1  C   UNL     1      43.866   4.693  11.406  0.00  0.00    +0.000 C 
ENDROOT
BRANCH   1   2
ATOM      2  N   UNL     1      43.742   4.755   9.950  0.00  0.00    +0.000 N 
ATOM      3  H   UNL     1      43.697   5.715   9.606  0.00  0.00    +0.000 HD
BRANCH   2   4
ATOM      4  C   UNL     1      44.703   3.997   9.255  0.00  0.00    +0.000 A 
ATOM      5  C   UNL     1      44.753   2.598   9.325  0.00  0.00    +0.000 A 
ATOM      6  C   UNL     1      45.665   1.876   8.571  0.00  0.00    +0.000 A 
ATOM      7  C   UNL     1      46.507   2.571   7.714  0.00  0.00    +0.000 A 
ATOM      8  N   UNL     1      46.494   3.928   7.583  0.00  0.00    +0.000 NA
ATOM      9  C   UNL     1      45.586   4.589   8.342  0.00  0.00    +0.000 A 
BRANCH   7  10
ATOM     10  C   UNL     1      47.460   1.813   6.849  0.00  0.00    +0.000 C 
ATOM     11  N   UNL     1      48.532   2.514   6.389  0.00  0.00    +0.000 N 
ATOM     12  O   UNL     1      47.294   0.629   6.554  0.00  0.00    +0.000 OA
ATOM     13  H   UNL     1      48.624   3.500   6.620  0.00  0.00    +0.000 HD
ATOM     14  H   UNL     1      49.186   2.072   5.758  0.00  0.00    +0.000 HD
ENDBRANCH   7  10
ENDBRANCH   2   4
ENDBRANCH   1   2
BRANCH   1  15
ATOM     15  C   UNL     1      45.314   4.857  11.893  0.00  0.00    +0.000 C 
BRANCH  15  20
ATOM     16  C   UNL     1      47.153   7.857  13.404  0.00  0.00    +0.000 A 
ATOM     17  C   UNL     1      46.424   8.920  12.878  0.00  0.00    +0.000 A 
ATOM     18  C   UNL     1      45.288   8.678  12.118  0.00  0.00    +0.000 A 
ATOM     19  C   UNL     1      44.890   7.363  11.838  0.00  0.00    +0.000 A 
ATOM     20  C   UNL     1      45.651   6.278  12.315  0.00  0.00    +0.000 A 
ATOM     21  C   UNL     1      46.759   6.554  13.130  0.00  0.00    +0.000 A 
BRANCH  16  22
ATOM     22  O   UNL     1      48.320   8.019  14.116  0.00  0.00    +0.000 OA
BRANCH  22  26
ATOM     23  C   UNL     1      51.871   9.211  11.827  0.00  0.00    +0.000 C 
ATOM     24  N   UNL     1      50.640   9.033  12.582  0.00  0.00    +0.000 NA
ATOM     25  C   UNL     1      50.892   8.242  13.811  0.00  0.00    +0.000 C 
ATOM     26  C   UNL     1      49.546   7.501  13.545  0.00  0.00    +0.000 C 
ATOM     27  C   UNL     1      49.816   7.916  12.067  0.00  0.00    +0.000 C 
ENDBRANCH  22  26
ENDBRANCH  16  22
ENDBRANCH  15  20
ENDBRANCH   1  15
TORSDOF 7
ENDMDL
MODEL 4
REMARK VINA RESULT:    -6.502      2.244      8.069
REMARK INTER + INTRA:          -9.953
REMARK INTER:                  -9.419
REMARK INTRA:                  -0.534
REMARK UNBOUND:                -0.790
REMARK  Name = 
REMARK  8 active torsions:
REMARK  status: ('A' for Active; 'I' for Inactive)
REMARK    1  A    between atoms: C_1  and  N_2
REMARK    2  A    between atoms: C_4  and  O_5
REMARK    3  A    between atoms: O_5  and  C_6
REMARK    4  A    between atoms: C_10  and  C_11
REMARK    5  A    between atoms: C_11  and  C_12
REMARK    6  A    between atoms: C_12  and  N_13
REMARK    7  A    between atoms: N_13  and  C_14
REMARK    8  A    between atoms: C_17  and  C_18
REMARK                            x       y       z     vdW  Elec       q    Type
REMARK                         _______ _______ _______ _____ _____    ______ ____
ROOT
ATOM      1  C   UNL     1      46.795   5.210  14.853  0.00  0.00    +0.000 C 
ENDROOT
BRANCH   1   2
ATOM      2  N   UNL     1      46.709   4.229  15.934  0.00  0.00    +0.000 N 
ATOM      3  H   UNL     1      46.018   3.502  15.743  0.00  0.00    +0.000 HD
BRANCH   2   4
ATOM      4  C   UNL     1      47.948   3.684  16.319  0.00  0.00    +0.000 A 
ATOM      5  C   UNL     1      48.811   4.332  17.211  0.00  0.00    +0.000 A 
ATOM      6  C   UNL     1      49.991   3.735  17.628  0.00  0.00    +0.000 A 
ATOM      7  C   UNL     1      50.281   2.458  17.167  0.00  0.00    +0.000 A 
ATOM      8  N   UNL     1      49.472   1.764  16.316  0.00  0.00    +0.000 NA
ATOM      9  C   UNL     1      48.331   2.391  15.937  0.00  0.00    +0.000 A 
BRANCH   7  10
ATOM     10  C   UNL     1      51.516   1.769  17.644  0.00  0.00    +0.000 C 
ATOM     11  N   UNL     1      52.264   2.450  18.554  0.00  0.00    +0.000 N 
ATOM     12  O   UNL     1      51.856   0.656  17.240  0.00  0.00    +0.000 OA
ATOM     13  H   UNL     1      51.977   3.382  18.842  0.00  0.00    +0.000 HD
ATOM     14  H   UNL     1      53.138   2.060  18.878  0.00  0.00    +0.000 HD
ENDBRANCH   7  10
ENDBRANCH   2   4
ENDBRANCH   1   2
BRANCH   1  15
ATOM     15  C   UNL     1      46.933   4.564  13.466  0.00  0.00    +0.000 C 
BRANCH  15  20
ATOM     16  C   UNL     1      44.649   4.787  10.399  0.00  0.00    +0.000 A 
ATOM     17  C   UNL     1      43.390   4.750  10.992  0.00  0.00    +0.000 A 
ATOM     18  C   UNL     1      43.269   4.751  12.375  0.00  0.00    +0.000 A 
ATOM     19  C   UNL     1      44.413   4.744  13.186  0.00  0.00    +0.000 A 
ATOM     20  C   UNL     1      45.694   4.722  12.600  0.00  0.00    +0.000 A 
ATOM     21  C   UNL     1      45.783   4.783  11.201  0.00  0.00    +0.000 A 
BRANCH  16  22
ATOM     22  O   UNL     1      44.847   4.730   9.038  0.00  0.00    +0.000 OA
BRANCH  22  26
ATOM     23  C   UNL     1      46.830   1.095   7.583  0.00  0.00    +0.000 C 
ATOM     24  N   UNL     1      46.374   2.356   8.147  0.00  0.00    +0.000 NA
ATOM     25  C   UNL     1      45.154   2.150   8.965  0.00  0.00    +0.000 C 
ATOM     26  C   UNL     1      44.592   3.474   8.364  0.00  0.00    +0.000 C 
ATOM     27  C   UNL     1      45.563   3.143   7.190  0.00  0.00    +0.000 C 
ENDBRANCH  22  26
ENDBRANCH  16  22
ENDBRANCH  15  20
ENDBRANCH   1  15
TORSDOF 7
ENDMDL
MODEL 5
REMARK VINA RESULT:    -6.373      2.258      8.487
REMARK INTER + INTRA:          -9.770
REMARK INTER:                  -9.199
REMARK INTRA:                  -0.571
REMARK UNBOUND:                -0.790
REMARK  Name = 
REMARK  8 active torsions:
REMARK  status: ('A' for Active; 'I' for Inactive)
REMARK    1  A    between atoms: C_1  and  N_2
REMARK    2  A    between atoms: C_4  and  O_5
REMARK    3  A    between atoms: O_5  and  C_6
REMARK    4  A    between atoms: C_10  and  C_11
REMARK    5  A    between atoms: C_11  and  C_12
REMARK    6  A    between atoms: C_12  and  N_13
REMARK    7  A    between atoms: N_13  and  C_14
REMARK    8  A    between atoms: C_17  and  C_18
REMARK                            x       y       z     vdW  Elec       q    Type
REMARK                         _______ _______ _______ _____ _____    ______ ____
ROOT
ATOM      1  C   UNL     1      47.479   5.974  13.349  0.00  0.00    +0.000 C 
ENDROOT
BRANCH   1   2
ATOM      2  N   UNL     1      47.254   4.727  14.080  0.00  0.00    +0.000 N 
ATOM      3  H   UNL     1      47.737   3.936  13.652  0.00  0.00    +0.000 HD
BRANCH   2   4
ATOM      4  C   UNL     1      47.512   4.812  15.461  0.00  0.00    +0.000 A 
ATOM      5  C   UNL     1      47.091   3.831  16.368  0.00  0.00    +0.000 A 
ATOM      6  C   UNL     1      47.425   3.906  17.710  0.00  0.00    +0.000 A 
ATOM      7  C   UNL     1      48.220   4.963  18.133  0.00  0.00    +0.000 A 
ATOM      8  N   UNL     1      48.680   5.938  17.298  0.00  0.00    +0.000 NA
ATOM      9  C   UNL     1      48.326   5.820  15.995  0.00  0.00    +0.000 A 
BRANCH   7  10
ATOM     10  C   UNL     1      48.641   5.038  19.563  0.00  0.00    +0.000 C 
ATOM     11  N   UNL     1      49.441   4.028  20.002  0.00  0.00    +0.000 N 
ATOM     12  O   UNL     1      48.286   5.946  20.316  0.00  0.00    +0.000 OA
ATOM     13  H   UNL     1      49.689   3.273  19.368  0.00  0.00    +0.000 HD
ATOM     14  H   UNL     1      49.719   3.994  20.973  0.00  0.00    +0.000 HD
ENDBRANCH   7  10
ENDBRANCH   2   4
ENDBRANCH   1   2
BRANCH   1  15
ATOM     15  C   UNL     1      46.179   6.728  13.034  0.00  0.00    +0.000 C 
BRANCH  15  20
ATOM     16  C   UNL     1      45.017   5.039   9.798  0.00  0.00    +0.000 A 
ATOM     17  C   UNL     1      43.801   4.492  10.196  0.00  0.00    +0.000 A 
ATOM     18  C   UNL     1      43.305   4.742  11.468  0.00  0.00    +0.000 A 
ATOM     19  C   UNL     1      44.045   5.510  12.378  0.00  0.00    +0.000 A 
ATOM     20  C   UNL     1      45.305   6.022  12.009  0.00  0.00    +0.000 A 
ATOM     21  C   UNL     1      45.750   5.803  10.696  0.00  0.00    +0.000 A 
BRANCH  16  22
ATOM     22  O   UNL     1      45.597   4.787   8.575  0.00  0.00    +0.000 OA
BRANCH  22  26
ATOM     23  C   UNL     1      47.349   1.084   7.000  0.00  0.00    +0.000 C 
ATOM     24  N   UNL     1      46.974   2.358   7.595  0.00  0.00    +0.000 NA
ATOM     25  C   UNL     1      45.784   2.197   8.464  0.00  0.00    +0.000 C 
ATOM     26  C   UNL     1      45.256   3.551   7.901  0.00  0.00    +0.000 C 
ATOM     27  C   UNL     1      46.159   3.191   6.683  0.00  0.00    +0.000 C 
ENDBRANCH  22  26
ENDBRANCH  16  22
ENDBRANCH  15  20
ENDBRANCH   1  15
TORSDOF 7
ENDMDL
MODEL 6
REMARK VINA RESULT:    -6.349      1.957      3.120
REMARK INTER + INTRA:          -9.737
REMARK INTER:                  -8.632
REMARK INTRA:                  -1.105
REMARK UNBOUND:                -0.790
REMARK  Name = 
REMARK  8 active torsions:
REMARK  status: ('A' for Active; 'I' for Inactive)
REMARK    1  A    between atoms: C_1  and  N_2
REMARK    2  A    between atoms: C_4  and  O_5
REMARK    3  A    between atoms: O_5  and  C_6
REMARK    4  A    between atoms: C_10  and  C_11
REMARK    5  A    between atoms: C_11  and  C_12
REMARK    6  A    between atoms: C_12  and  N_13
REMARK    7  A    between atoms: N_13  and  C_14
REMARK    8  A    between atoms: C_17  and  C_18
REMARK                            x       y       z     vdW  Elec       q    Type
REMARK                         _______ _______ _______ _____ _____    ______ ____
ROOT
ATOM      1  C   UNL     1      44.864   8.692  11.845  0.00  0.00    +0.000 C 
ENDROOT
BRANCH   1   2
ATOM      2  N   UNL     1      44.254   7.423  12.241  0.00  0.00    +0.000 N 
ATOM      3  H   UNL     1      43.276   7.532  12.512  0.00  0.00    +0.000 HD
BRANCH   2   4
ATOM      4  C   UNL     1      44.424   6.384  11.306  0.00  0.00    +0.000 A 
ATOM      5  C   UNL     1      45.603   6.222  10.567  0.00  0.00    +0.000 A 
ATOM      6  C   UNL     1      45.768   5.147   9.709  0.00  0.00    +0.000 A 
ATOM      7  C   UNL     1      44.748   4.209   9.624  0.00  0.00    +0.000 A 
ATOM      8  N   UNL     1      43.586   4.296  10.333  0.00  0.00    +0.000 NA
ATOM      9  C   UNL     1      43.472   5.367  11.157  0.00  0.00    +0.000 A 
BRANCH   7  10
ATOM     10  C   UNL     1      44.923   3.011   8.750  0.00  0.00    +0.000 C 
ATOM     11  N   UNL     1      44.642   1.810   9.323  0.00  0.00    +0.000 N 
ATOM     12  O   UNL     1      45.307   3.089   7.583  0.00  0.00    +0.000 OA
ATOM     13  H   UNL     1      44.360   1.774  10.300  0.00  0.00    +0.000 HD
ATOM     14  H   UNL     1      44.788   0.957   8.801  0.00  0.00    +0.000 HD
ENDBRANCH   7  10
ENDBRANCH   2   4
ENDBRANCH   1   2
BRANCH   1  15
ATOM     15  C   UNL     1      45.798   9.270  12.918  0.00  0.00    +0.000 C 
BRANCH  15  20
ATOM     16  C   UNL     1      48.888   7.152  13.721  0.00  0.00    +0.000 A 
ATOM     17  C   UNL     1      49.704   7.432  12.628  0.00  0.00    +0.000 A 
ATOM     18  C   UNL     1      49.309   8.369  11.684  0.00  0.00    +0.000 A 
ATOM     19  C   UNL     1      48.066   9.010  11.798  0.00  0.00    +0.000 A 
ATOM     20  C   UNL     1      47.205   8.694  12.867  0.00  0.00    +0.000 A 
ATOM     21  C   UNL     1      47.658   7.788  13.838  0.00  0.00    +0.000 A 
BRANCH  16  22
ATOM     22  O   UNL     1      49.187   6.195  14.663  0.00  0.00    +0.000 OA
BRANCH  22  26
ATOM     23  C   UNL     1      47.880   3.128  17.518  0.00  0.00    +0.000 C 
ATOM     24  N   UNL     1      48.476   4.001  16.518  0.00  0.00    +0.000 NA
ATOM     25  C   UNL     1      48.692   5.358  17.074  0.00  0.00    +0.000 C 
ATOM     26  C   UNL     1      48.216   5.935  15.706  0.00  0.00    +0.000 C 
ATOM     27  C   UNL     1      47.471   4.572  15.593  0.00  0.00    +0.000 C 
ENDBRANCH  22  26
ENDBRANCH  16  22
ENDBRANCH  15  20
ENDBRANCH   1  15
TORSDOF 7
ENDMDL
MODEL 7
REMARK VINA RESULT:    -6.312      2.427      2.995
REMARK INTER + INTRA:          -9.685
REMARK INTER:                  -9.861
REMARK INTRA:                   0.176
REMARK UNBOUND:                -0.790
REMARK  Name = 
REMARK  8 active torsions:
REMARK  status: ('A' for Active; 'I' for Inactive)
REMARK    1  A    between atoms: C_1  and  N_2
REMARK    2  A    between atoms: C_4  and  O_5
REMARK    3  A    between atoms: O_5  and  C_6
REMARK    4  A    between atoms: C_10  and  C_11
REMARK    5  A    between atoms: C_11  and  C_12
REMARK    6  A    between atoms: C_12  and  N_13
REMARK    7  A    between atoms: N_13  and  C_14
REMARK    8  A    between atoms: C_17  and  C_18
REMARK                            x       y       z     vdW  Elec       q    Type
REMARK                         _______ _______ _______ _____ _____    ______ ____
ROOT
ATOM      1  C   UNL     1      44.591   5.426  11.242  0.00  0.00    +0.000 C 
ENDROOT
BRANCH   1   2
ATOM      2  N   UNL     1      43.848   4.806  10.145  0.00  0.00    +0.000 N 
ATOM      3  H   UNL     1      43.376   5.497   9.560  0.00  0.00    +0.000 HD
BRANCH   2   4
ATOM      4  C   UNL     1      44.602   3.899   9.377  0.00  0.00    +0.000 A 
ATOM      5  C   UNL     1      45.590   4.315   8.476  0.00  0.00    +0.000 A 
ATOM      6  C   UNL     1      46.365   3.395   7.789  0.00  0.00    +0.000 A 
ATOM      7  C   UNL     1      46.165   2.045   8.042  0.00  0.00    +0.000 A 
ATOM      8  N   UNL     1      45.236   1.575   8.923  0.00  0.00    +0.000 NA
ATOM      9  C   UNL     1      44.502   2.514   9.569  0.00  0.00    +0.000 A 
BRANCH   7  10
ATOM     10  C   UNL     1      47.025   1.034   7.358  0.00  0.00    +0.000 C 
ATOM     11  N   UNL     1      46.784  -0.266   7.676  0.00  0.00    +0.000 N 
ATOM     12  O   UNL     1      47.910   1.344   6.559  0.00  0.00    +0.000 OA
ATOM     13  H   UNL     1      46.070  -0.490   8.366  0.00  0.00    +0.000 HD
ATOM     14  H   UNL     1      47.365  -0.995   7.286  0.00  0.00    +0.000 HD
ENDBRANCH   7  10
ENDBRANCH   2   4
ENDBRANCH   1   2
BRANCH   1  15
ATOM     15  C   UNL     1      44.147   6.867  11.531  0.00  0.00    +0.000 C 
BRANCH  15  20
ATOM     16  C   UNL     1      47.694   8.192  12.110  0.00  0.00    +0.000 A 
ATOM     17  C   UNL     1      47.478   9.568  12.100  0.00  0.00    +0.000 A 
ATOM     18  C   UNL     1      46.188  10.071  12.004  0.00  0.00    +0.000 A 
ATOM     19  C   UNL     1      45.096   9.201  11.872  0.00  0.00    +0.000 A 
ATOM     20  C   UNL     1      45.304   7.809  11.823  0.00  0.00    +0.000 A 
ATOM     21  C   UNL     1      46.613   7.329  11.983  0.00  0.00    +0.000 A 
BRANCH  16  22
ATOM     22  O   UNL     1      48.947   7.624  12.143  0.00  0.00    +0.000 OA
BRANCH  22  26
ATOM     23  C   UNL     1      48.656   8.689  16.392  0.00  0.00    +0.000 C 
ATOM     24  N   UNL     1      48.572   8.465  14.956  0.00  0.00    +0.000 NA
ATOM     25  C   UNL     1      48.630   7.015  14.650  0.00  0.00    +0.000 C 
ATOM     26  C   UNL     1      49.544   7.362  13.437  0.00  0.00    +0.000 C 
ATOM     27  C   UNL     1      49.879   8.630  14.280  0.00  0.00    +0.000 C 
ENDBRANCH  22  26
ENDBRANCH  16  22
ENDBRANCH  15  20
ENDBRANCH   1  15
TORSDOF 7
ENDMDL
MODEL 8
REMARK VINA RESULT:    -6.054      2.345      7.728
REMARK INTER + INTRA:          -9.321
REMARK INTER:                  -8.414
REMARK INTRA:                  -0.906
REMARK UNBOUND:                -0.790
REMARK  Name = 
REMARK  8 active torsions:
REMARK  status: ('A' for Active; 'I' for Inactive)
REMARK    1  A    between atoms: C_1  and  N_2
REMARK    2  A    between atoms: C_4  and  O_5
REMARK    3  A    between atoms: O_5  and  C_6
REMARK    4  A    between atoms: C_10  and  C_11
REMARK    5  A    between atoms: C_11  and  C_12
REMARK    6  A    between atoms: C_12  and  N_13
REMARK    7  A    between atoms: N_13  and  C_14
REMARK    8  A    between atoms: C_17  and  C_18
REMARK                            x       y       z     vdW  Elec       q    Type
REMARK                         _______ _______ _______ _____ _____    ______ ____
ROOT
ATOM      1  C   UNL     1      49.727   7.431  13.254  0.00  0.00    +0.000 C 
ENDROOT
BRANCH   1   2
ATOM      2  N   UNL     1      49.647   7.734  14.683  0.00  0.00    +0.000 N 
ATOM      3  H   UNL     1      49.214   8.641  14.862  0.00  0.00    +0.000 HD
BRANCH   2   4
ATOM      4  C   UNL     1      49.063   6.714  15.458  0.00  0.00    +0.000 A 
ATOM      5  C   UNL     1      48.032   5.899  14.974  0.00  0.00    +0.000 A 
ATOM      6  C   UNL     1      47.528   4.856  15.735  0.00  0.00    +0.000 A 
ATOM      7  C   UNL     1      48.096   4.613  16.978  0.00  0.00    +0.000 A 
ATOM      8  N   UNL     1      49.116   5.355  17.496  0.00  0.00    +0.000 NA
ATOM      9  C   UNL     1      49.573   6.364  16.715  0.00  0.00    +0.000 A 
BRANCH   7  10
ATOM     10  C   UNL     1      47.610   3.460  17.794  0.00  0.00    +0.000 C 
ATOM     11  N   UNL     1      48.355   3.151  18.889  0.00  0.00    +0.000 N 
ATOM     12  O   UNL     1      46.604   2.813  17.500  0.00  0.00    +0.000 OA
ATOM     13  H   UNL     1      49.201   3.681  19.087  0.00  0.00    +0.000 HD
ATOM     14  H   UNL     1      48.109   2.350  19.455  0.00  0.00    +0.000 HD
ENDBRANCH   7  10
ENDBRANCH   2   4
ENDBRANCH   1   2
BRANCH   1  15
ATOM     15  C   UNL     1      49.008   8.467  12.379  0.00  0.00    +0.000 C 
BRANCH  15  20
ATOM     16  C   UNL     1      45.805   6.457  11.766  0.00  0.00    +0.000 A 
ATOM     17  C   UNL     1      44.834   7.450  11.866  0.00  0.00    +0.000 A 
ATOM     18  C   UNL     1      45.207   8.777  12.034  0.00  0.00    +0.000 A 
ATOM     19  C   UNL     1      46.562   9.122  12.148  0.00  0.00    +0.000 A 
ATOM     20  C   UNL     1      47.552   8.121  12.107  0.00  0.00    +0.000 A 
ATOM     21  C   UNL     1      47.147   6.798  11.876  0.00  0.00    +0.000 A 
BRANCH  16  22
ATOM     22  O   UNL     1      45.508   5.118  11.658  0.00  0.00    +0.000 OA
BRANCH  22  26
ATOM     23  C   UNL     1      44.634   1.917   8.785  0.00  0.00    +0.000 C 
ATOM     24  N   UNL     1      45.096   2.850   9.801  0.00  0.00    +0.000 NA
ATOM     25  C   UNL     1      43.974   3.262  10.679  0.00  0.00    +0.000 C 
ATOM     26  C   UNL     1      44.553   4.709  10.649  0.00  0.00    +0.000 C 
ATOM     27  C   UNL     1      45.175   4.241   9.299  0.00  0.00    +0.000 C 
ENDBRANCH  22  26
ENDBRANCH  16  22
ENDBRANCH  15  20
ENDBRANCH   1  15
TORSDOF 7
ENDMDL
MODEL 9
REMARK VINA RESULT:    -5.995      2.870      4.499
REMARK INTER + INTRA:          -9.238
REMARK INTER:                  -8.583
REMARK INTRA:                  -0.655
REMARK UNBOUND:                -0.790
REMARK  Name = 
REMARK  8 active torsions:
REMARK  status: ('A' for Active; 'I' for Inactive)
REMARK    1  A    between atoms: C_1  and  N_2
REMARK    2  A    between atoms: C_4  and  O_5
REMARK    3  A    between atoms: O_5  and  C_6
REMARK    4  A    between atoms: C_10  and  C_11
REMARK    5  A    between atoms: C_11  and  C_12
REMARK    6  A    between atoms: C_12  and  N_13
REMARK    7  A    between atoms: N_13  and  C_14
REMARK    8  A    between atoms: C_17  and  C_18
REMARK                            x       y       z     vdW  Elec       q    Type
REMARK                         _______ _______ _______ _____ _____    ______ ____
ROOT
ATOM      1  C   UNL     1      47.434   7.963  12.683  0.00  0.00    +0.000 C 
ENDROOT
BRANCH   1   2
ATOM      2  N   UNL     1      46.057   7.777  13.139  0.00  0.00    +0.000 N 
ATOM      3  H   UNL     1      45.476   8.597  12.958  0.00  0.00    +0.000 HD
BRANCH   2   4
ATOM      4  C   UNL     1      45.450   6.595  12.675  0.00  0.00    +0.000 A 
ATOM      5  C   UNL     1      44.768   6.528  11.453  0.00  0.00    +0.000 A 
ATOM      6  C   UNL     1      44.245   5.332  10.990  0.00  0.00    +0.000 A 
ATOM      7  C   UNL     1      44.444   4.188  11.750  0.00  0.00    +0.000 A 
ATOM      8  N   UNL     1      45.117   4.181  12.936  0.00  0.00    +0.000 NA
ATOM      9  C   UNL     1      45.608   5.375  13.347  0.00  0.00    +0.000 A 
BRANCH   7  10
ATOM     10  C   UNL     1      43.940   2.875  11.247  0.00  0.00    +0.000 C 
ATOM     11  N   UNL     1      44.577   2.371  10.157  0.00  0.00    +0.000 N 
ATOM     12  O   UNL     1      42.998   2.279  11.771  0.00  0.00    +0.000 OA
ATOM     13  H   UNL     1      45.329   2.903   9.724  0.00  0.00    +0.000 HD
ATOM     14  H   UNL     1      44.252   1.511   9.737  0.00  0.00    +0.000 HD
ENDBRANCH   7  10
ENDBRANCH   2   4
ENDBRANCH   1   2
BRANCH   1  15
ATOM     15  C   UNL     1      48.301   8.736  13.688  0.00  0.00    +0.000 C 
BRANCH  15  20
ATOM     16  C   UNL     1      48.774   6.031  16.358  0.00  0.00    +0.000 A 
ATOM     17  C   UNL     1      48.893   6.802  17.512  0.00  0.00    +0.000 A 
ATOM     18  C   UNL     1      48.726   8.179  17.452  0.00  0.00    +0.000 A 
ATOM     19  C   UNL     1      48.481   8.809  16.223  0.00  0.00    +0.000 A 
ATOM     20  C   UNL     1      48.417   8.049  15.039  0.00  0.00    +0.000 A 
ATOM     21  C   UNL     1      48.529   6.653  15.141  0.00  0.00    +0.000 A 
BRANCH  16  22
ATOM     22  O   UNL     1      48.984   4.671  16.333  0.00  0.00    +0.000 OA
BRANCH  22  26
ATOM     23  C   UNL     1      51.589   1.357  17.555  0.00  0.00    +0.000 C 
ATOM     24  N   UNL     1      50.768   2.389  16.940  0.00  0.00    +0.000 NA
ATOM     25  C   UNL     1      51.109   3.723  17.491  0.00  0.00    +0.000 C 
ATOM     26  C   UNL     1      49.585   4.051  17.495  0.00  0.00    +0.000 C 
ATOM     27  C   UNL     1      49.434   2.502  17.572  0.00  0.00    +0.000 C 
ENDBRANCH  22  26
ENDBRANCH  16  22
ENDBRANCH  15  20
ENDBRANCH   1  15
TORSDOF 7
ENDMDL
