MODEL 1
REMARK VINA RESULT:    -9.073      0.000      0.000
REMARK INTER + INTRA:         -12.377
REMARK INTER:                 -11.725
REMARK INTRA:                  -0.652
REMARK UNBOUND:                -0.652
REMARK  Name = 
REMARK  5 active torsions:
REMARK  status: ('A' for Active; 'I' for Inactive)
REMARK    1  A    between atoms: C_2  and  O_4
REMARK    2  A    between atoms: O_4  and  C_5
REMARK    3  A    between atoms: C_9  and  C_10
REMARK    4  A    between atoms: C_10  and  N_11
REMARK    5  A    between atoms: C_16  and  C_17
REMARK                            x       y       z     vdW  Elec       q    Type
REMARK                         _______ _______ _______ _____ _____    ______ ____
ROOT
ATOM      1  C   UNL     1      44.346   5.974  11.162  0.00  0.00    +0.000 C 
ENDROOT
BRANCH   1   2
ATOM      2  N   UNL     1      43.890   4.715  10.573  0.00  0.00    +0.000 N 
ATOM      3  C   UNL     1      43.305   3.718  11.315  0.00  0.00    +0.000 A 
ATOM      4  N   UNL     1      43.625   2.525  10.871  0.00  0.00    +0.000 NA
ATOM      5  C   UNL     1      44.440   2.748   9.791  0.00  0.00    +0.000 A 
ATOM      6  C   UNL     1      45.206   1.835   9.049  0.00  0.00    +0.000 A 
ATOM      7  C   UNL     1      46.036   2.314   8.021  0.00  0.00    +0.000 A 
ATOM      8  C   UNL     1      45.987   3.673   7.665  0.00  0.00    +0.000 A 
ATOM      9  C   UNL     1      45.225   4.598   8.394  0.00  0.00    +0.000 A 
ATOM     10  C   UNL     1      44.517   4.107   9.496  0.00  0.00    +0.000 A 
BRANCH   7  11
ATOM     11  C   UNL     1      47.035   1.395   7.359  0.00  0.00    +0.000 C 
ATOM     12  F   UNL     1      46.732   1.093   6.065  0.00  0.00    +0.000 F 
ATOM     13  F   UNL     1      48.298   1.900   7.342  0.00  0.00    +0.000 F 
ATOM     14  F   UNL     1      47.125   0.194   8.001  0.00  0.00    +0.000 F 
ENDBRANCH   7  11
ENDBRANCH   1   2
BRANCH   1  19
ATOM     15  C   UNL     1      46.678   4.883  13.936  0.00  0.00    +0.000 A 
ATOM     16  C   UNL     1      47.874   5.515  13.620  0.00  0.00    +0.000 A 
ATOM     17  C   UNL     1      47.911   6.393  12.532  0.00  0.00    +0.000 A 
ATOM     18  C   UNL     1      46.775   6.614  11.741  0.00  0.00    +0.000 A 
ATOM     19  C   UNL     1      45.572   5.965  12.039  0.00  0.00    +0.000 A 
ATOM     20  C   UNL     1      45.543   5.100  13.153  0.00  0.00    +0.000 A 
BRANCH  15  21
ATOM     21  O   UNL     1      46.534   3.913  14.956  0.00  0.00    +0.000 OA
BRANCH  21  23
ATOM     22  N   UNL     1      47.100   4.677  16.997  0.00  0.00    +0.000 N 
ATOM     23  C   UNL     1      47.414   3.785  16.017  0.00  0.00    +0.000 C 
ATOM     24  O   UNL     1      48.349   3.009  16.117  0.00  0.00    +0.000 OA
ATOM     25  H   UNL     1      47.654   4.681  17.841  0.00  0.00    +0.000 HD
ATOM     26  H   UNL     1      46.318   5.301  16.895  0.00  0.00    +0.000 HD
ENDBRANCH  21  23
ENDBRANCH  15  21
ENDBRANCH   1  19
TORSDOF 5
ENDMDL
MODEL 2
REMARK VINA RESULT:    -8.425      1.922      2.390
REMARK INTER + INTRA:         -11.540
REMARK INTER:                 -10.988
REMARK INTRA:                  -0.551
REMARK UNBOUND:                -0.652
REMARK  Name = 
REMARK  5 active torsions:
REMARK  status: ('A' for Active; 'I' for Inactive)
REMARK    1  A    between atoms: C_2  and  O_4
REMARK    2  A    between atoms: O_4  and  C_5
REMARK    3  A    between atoms: C_9  and  C_10
REMARK    4  A    between atoms: C_10  and  N_11
REMARK    5  A    between atoms: C_16  and  C_17
REMARK                            x       y       z     vdW  Elec       q    Type
REMARK                         _______ _______ _______ _____ _____    ______ ____
ROOT
ATOM      1  C   UNL     1      44.737   5.874  11.325  0.00  0.00    +0.000 C 
ENDROOT
BRANCH   1   2
ATOM      2  N   UNL     1      44.162   4.732  10.614  0.00  0.00    +0.000 N 
ATOM      3  C   UNL     1      43.423   3.760  11.244  0.00  0.00    +0.000 A 
ATOM      4  N   UNL     1      43.618   2.575  10.714  0.00  0.00    +0.000 NA
ATOM      5  C   UNL     1      44.509   2.779   9.691  0.00  0.00    +0.000 A 
ATOM      6  C   UNL     1      45.196   1.839   8.907  0.00  0.00    +0.000 A 
ATOM      7  C   UNL     1      46.129   2.290   7.959  0.00  0.00    +0.000 A 
ATOM      8  C   UNL     1      46.263   3.668   7.716  0.00  0.00    +0.000 A 
ATOM      9  C   UNL     1      45.584   4.621   8.489  0.00  0.00    +0.000 A 
ATOM     10  C   UNL     1      44.765   4.136   9.516  0.00  0.00    +0.000 A 
BRANCH   7  11
ATOM     11  C   UNL     1      47.042   1.308   7.263  0.00  0.00    +0.000 C 
ATOM     12  F   UNL     1      47.007   0.053   7.793  0.00  0.00    +0.000 F 
ATOM     13  F   UNL     1      46.765   1.165   5.938  0.00  0.00    +0.000 F 
ATOM     14  F   UNL     1      48.349   1.695   7.327  0.00  0.00    +0.000 F 
ENDBRANCH   7  11
ENDBRANCH   1   2
BRANCH   1  19
ATOM     15  C   UNL     1      47.660   6.623  13.608  0.00  0.00    +0.000 A 
ATOM     16  C   UNL     1      47.689   5.529  14.464  0.00  0.00    +0.000 A 
ATOM     17  C   UNL     1      46.799   4.473  14.248  0.00  0.00    +0.000 A 
ATOM     18  C   UNL     1      45.861   4.519  13.206  0.00  0.00    +0.000 A 
ATOM     19  C   UNL     1      45.811   5.625  12.352  0.00  0.00    +0.000 A 
ATOM     20  C   UNL     1      46.730   6.674  12.569  0.00  0.00    +0.000 A 
BRANCH  15  21
ATOM     21  O   UNL     1      48.449   7.786  13.773  0.00  0.00    +0.000 OA
BRANCH  21  23
ATOM     22  N   UNL     1      47.437   9.126  15.272  0.00  0.00    +0.000 N 
ATOM     23  C   UNL     1      48.584   8.453  14.978  0.00  0.00    +0.000 C 
ATOM     24  O   UNL     1      49.558   8.474  15.711  0.00  0.00    +0.000 OA
ATOM     25  H   UNL     1      47.391   9.646  16.137  0.00  0.00    +0.000 HD
ATOM     26  H   UNL     1      46.643   9.086  14.656  0.00  0.00    +0.000 HD
ENDBRANCH  21  23
ENDBRANCH  15  21
ENDBRANCH   1  19
TORSDOF 5
ENDMDL
MODEL 3
REMARK VINA RESULT:    -8.069      2.980      4.042
REMARK INTER + INTRA:         -11.080
REMARK INTER:                 -10.594
REMARK INTRA:                  -0.486
REMARK UNBOUND:                -0.652
REMARK  Name = 
REMARK  5 active torsions:
REMARK  status: ('A' for Active; 'I' for Inactive)
REMARK    1  A    between atoms: C_2  and  O_4
REMARK    2  A    between atoms: O_4  and  C_5
REMARK    3  A    between atoms: C_9  and  C_10
REMARK    4  A    between atoms: C_10  and  N_11
REMARK    5  A    between atoms: C_16  and  C_17
REMARK                            x       y       z     vdW  Elec       q    Type
REMARK                         _______ _______ _______ _____ _____    ______ ____
ROOT
ATOM      1  C   UNL     1      44.993   5.226  12.795  0.00  0.00    +0.000 C 
ENDROOT
BRANCH   1   2
ATOM      2  N   UNL     1      44.260   4.541  11.730  0.00  0.00    +0.000 N 
ATOM      3  C   UNL     1      43.437   3.466  11.969  0.00  0.00    +0.000 A 
ATOM      4  N   UNL     1      43.470   2.597  10.986  0.00  0.00    +0.000 NA
ATOM      5  C   UNL     1      44.337   3.125  10.064  0.00  0.00    +0.000 A 
ATOM      6  C   UNL     1      44.876   2.538   8.909  0.00  0.00    +0.000 A 
ATOM      7  C   UNL     1      45.817   3.256   8.152  0.00  0.00    +0.000 A 
ATOM      8  C   UNL     1      46.103   4.592   8.484  0.00  0.00    +0.000 A 
ATOM      9  C   UNL     1      45.572   5.194   9.634  0.00  0.00    +0.000 A 
ATOM     10  C   UNL     1      44.743   4.404  10.438  0.00  0.00    +0.000 A 
BRANCH   7  11
ATOM     11  C   UNL     1      46.580   2.574   7.040  0.00  0.00    +0.000 C 
ATOM     12  F   UNL     1      46.535   1.213   7.096  0.00  0.00    +0.000 F 
ATOM     13  F   UNL     1      46.137   2.915   5.800  0.00  0.00    +0.000 F 
ATOM     14  F   UNL     1      47.906   2.896   7.061  0.00  0.00    +0.000 F 
ENDBRANCH   7  11
ENDBRANCH   1   2
BRANCH   1  19
ATOM     15  C   UNL     1      45.610   8.930  12.318  0.00  0.00    +0.000 A 
ATOM     16  C   UNL     1      46.992   9.015  12.215  0.00  0.00    +0.000 A 
ATOM     17  C   UNL     1      47.748   7.839  12.209  0.00  0.00    +0.000 A 
ATOM     18  C   UNL     1      47.135   6.584  12.338  0.00  0.00    +0.000 A 
ATOM     19  C   UNL     1      45.745   6.490  12.463  0.00  0.00    +0.000 A 
ATOM     20  C   UNL     1      44.994   7.684  12.447  0.00  0.00    +0.000 A 
BRANCH  15  21
ATOM     21  O   UNL     1      44.747  10.046  12.421  0.00  0.00    +0.000 OA
BRANCH  21  23
ATOM     22  N   UNL     1      42.688  10.861  12.014  0.00  0.00    +0.000 N 
ATOM     23  C   UNL     1      43.832  10.397  11.442  0.00  0.00    +0.000 C 
ATOM     24  O   UNL     1      43.973  10.323  10.234  0.00  0.00    +0.000 OA
ATOM     25  H   UNL     1      41.938  11.169  11.412  0.00  0.00    +0.000 HD
ATOM     26  H   UNL     1      42.598  10.921  13.015  0.00  0.00    +0.000 HD
ENDBRANCH  21  23
ENDBRANCH  15  21
ENDBRANCH   1  19
TORSDOF 5
ENDMDL
MODEL 4
REMARK VINA RESULT:    -7.797      2.333      2.995
REMARK INTER + INTRA:         -10.728
REMARK INTER:                 -10.053
REMARK INTRA:                  -0.675
REMARK UNBOUND:                -0.652
REMARK  Name = 
REMARK  5 active torsions:
REMARK  status: ('A' for Active; 'I' for Inactive)
REMARK    1  A    between atoms: C_2  and  O_4
REMARK    2  A    between atoms: O_4  and  C_5
REMARK    3  A    between atoms: C_9  and  C_10
REMARK    4  A    between atoms: C_10  and  N_11
REMARK    5  A    between atoms: C_16  and  C_17
REMARK                            x       y       z     vdW  Elec       q    Type
REMARK                         _______ _______ _______ _____ _____    ______ ____
ROOT
ATOM      1  C   UNL     1      45.112   5.256  12.358  0.00  0.00    +0.000 C 
ENDROOT
BRANCH   1   2
ATOM      2  N   UNL     1      44.403   4.518  11.312  0.00  0.00    +0.000 N 
ATOM      3  C   UNL     1      43.591   3.443  11.583  0.00  0.00    +0.000 A 
ATOM      4  N   UNL     1      43.649   2.535  10.637  0.00  0.00    +0.000 NA
ATOM      5  C   UNL     1      44.522   3.038   9.706  0.00  0.00    +0.000 A 
ATOM      6  C   UNL     1      45.085   2.412   8.583  0.00  0.00    +0.000 A 
ATOM      7  C   UNL     1      46.027   3.112   7.810  0.00  0.00    +0.000 A 
ATOM      8  C   UNL     1      46.291   4.464   8.091  0.00  0.00    +0.000 A 
ATOM      9  C   UNL     1      45.735   5.105   9.209  0.00  0.00    +0.000 A 
ATOM     10  C   UNL     1      44.906   4.336  10.033  0.00  0.00    +0.000 A 
BRANCH   7  11
ATOM     11  C   UNL     1      46.814   2.396   6.737  0.00  0.00    +0.000 C 
ATOM     12  F   UNL     1      48.141   2.705   6.729  0.00  0.00    +0.000 F 
ATOM     13  F   UNL     1      46.743   1.041   6.836  0.00  0.00    +0.000 F 
ATOM     14  F   UNL     1      46.361   2.699   5.486  0.00  0.00    +0.000 F 
ENDBRANCH   7  11
ENDBRANCH   1   2
BRANCH   1  19
ATOM     15  C   UNL     1      46.503   8.756  12.732  0.00  0.00    +0.000 A 
ATOM     16  C   UNL     1      45.640   9.529  11.967  0.00  0.00    +0.000 A 
ATOM     17  C   UNL     1      44.523   8.925  11.383  0.00  0.00    +0.000 A 
ATOM     18  C   UNL     1      44.282   7.552  11.531  0.00  0.00    +0.000 A 
ATOM     19  C   UNL     1      45.157   6.761  12.283  0.00  0.00    +0.000 A 
ATOM     20  C   UNL     1      46.269   7.388  12.884  0.00  0.00    +0.000 A 
BRANCH  15  21
ATOM     21  O   UNL     1      47.708   9.231  13.302  0.00  0.00    +0.000 OA
BRANCH  21  23
ATOM     22  N   UNL     1      47.512   9.253  15.544  0.00  0.00    +0.000 N 
ATOM     23  C   UNL     1      48.226   8.759  14.496  0.00  0.00    +0.000 C 
ATOM     24  O   UNL     1      49.177   8.012  14.649  0.00  0.00    +0.000 OA
ATOM     25  H   UNL     1      47.774   8.974  16.479  0.00  0.00    +0.000 HD
ATOM     26  H   UNL     1      46.725   9.860  15.393  0.00  0.00    +0.000 HD
ENDBRANCH  21  23
ENDBRANCH  15  21
ENDBRANCH   1  19
TORSDOF 5
ENDMDL
MODEL 5
REMARK VINA RESULT:    -7.022      3.586      4.831
REMARK INTER + INTRA:          -9.727
REMARK INTER:                  -9.086
REMARK INTRA:                  -0.641
REMARK UNBOUND:                -0.652
REMARK  Name = 
REMARK  5 active torsions:
REMARK  status: ('A' for Active; 'I' for Inactive)
REMARK    1  A    between atoms: C_2  and  O_4
REMARK    2  A    between atoms: O_4  and  C_5
REMARK    3  A    between atoms: C_9  and  C_10
REMARK    4  A    between atoms: C_10  and  N_11
REMARK    5  A    between atoms: C_16  and  C_17
REMARK                            x       y       z     vdW  Elec       q    Type
REMARK                         _______ _______ _______ _____ _____    ______ ____
ROOT
ATOM      1  C   UNL     1      47.584   6.535  13.167  0.00  0.00    +0.000 C 
ENDROOT
BRANCH   1   2
ATOM      2  N   UNL     1      46.321   5.813  13.011  0.00  0.00    +0.000 N 
ATOM      3  C   UNL     1      45.834   4.955  13.967  0.00  0.00    +0.000 A 
ATOM      4  N   UNL     1      45.202   3.935  13.434  0.00  0.00    +0.000 NA
ATOM      5  C   UNL     1      45.266   4.138  12.079  0.00  0.00    +0.000 A 
ATOM      6  C   UNL     1      44.910   3.275  11.031  0.00  0.00    +0.000 A 
ATOM      7  C   UNL     1      45.141   3.678   9.705  0.00  0.00    +0.000 A 
ATOM      8  C   UNL     1      45.599   4.981   9.443  0.00  0.00    +0.000 A 
ATOM      9  C   UNL     1      45.958   5.856  10.479  0.00  0.00    +0.000 A 
ATOM     10  C   UNL     1      45.841   5.372  11.787  0.00  0.00    +0.000 A 
BRANCH   7  11
ATOM     11  C   UNL     1      44.980   2.692   8.571  0.00  0.00    +0.000 C 
ATOM     12  F   UNL     1      44.162   1.644   8.866  0.00  0.00    +0.000 F 
ATOM     13  F   UNL     1      44.480   3.256   7.439  0.00  0.00    +0.000 F 
ATOM     14  F   UNL     1      46.172   2.133   8.211  0.00  0.00    +0.000 F 
ENDBRANCH   7  11
ENDBRANCH   1   2
BRANCH   1  19
ATOM     15  C   UNL     1      46.767  10.045  12.009  0.00  0.00    +0.000 A 
ATOM     16  C   UNL     1      47.975  10.506  11.501  0.00  0.00    +0.000 A 
ATOM     17  C   UNL     1      49.066   9.633  11.446  0.00  0.00    +0.000 A 
ATOM     18  C   UNL     1      48.967   8.319  11.924  0.00  0.00    +0.000 A 
ATOM     19  C   UNL     1      47.761   7.852  12.456  0.00  0.00    +0.000 A 
ATOM     20  C   UNL     1      46.662   8.737  12.486  0.00  0.00    +0.000 A 
BRANCH  15  21
ATOM     21  O   UNL     1      45.620  10.851  12.195  0.00  0.00    +0.000 OA
BRANCH  21  23
ATOM     22  N   UNL     1      43.400  10.480  12.148  0.00  0.00    +0.000 N 
ATOM     23  C   UNL     1      44.494  10.774  11.393  0.00  0.00    +0.000 C 
ATOM     24  O   UNL     1      44.429  10.934  10.186  0.00  0.00    +0.000 OA
ATOM     25  H   UNL     1      42.503  10.409  11.690  0.00  0.00    +0.000 HD
ATOM     26  H   UNL     1      43.477  10.361  13.144  0.00  0.00    +0.000 HD
ENDBRANCH  21  23
ENDBRANCH  15  21
ENDBRANCH   1  19
TORSDOF 5
ENDMDL
MODEL 6
REMARK VINA RESULT:    -6.830      3.821      5.481
REMARK INTER + INTRA:          -9.478
REMARK INTER:                  -8.693
REMARK INTRA:                  -0.785
REMARK UNBOUND:                -0.652
REMARK  Name = 
REMARK  5 active torsions:
REMARK  status: ('A' for Active; 'I' for Inactive)
REMARK    1  A    between atoms: C_2  and  O_4
REMARK    2  A    between atoms: O_4  and  C_5
REMARK    3  A    between atoms: C_9  and  C_10
REMARK    4  A    between atoms: C_10  and  N_11
REMARK    5  A    between atoms: C_16  and  C_17
REMARK                            x       y       z     vdW  Elec       q    Type
REMARK                         _______ _______ _______ _____ _____    ______ ____
ROOT
ATOM      1  C   UNL     1      48.252   7.132  15.086  0.00  0.00    +0.000 C 
ENDROOT
BRANCH   1   2
ATOM      2  N   UNL     1      48.124   6.666  13.705  0.00  0.00    +0.000 N 
ATOM      3  C   UNL     1      48.519   7.422  12.628  0.00  0.00    +0.000 A 
ATOM      4  N   UNL     1      47.736   7.241  11.589  0.00  0.00    +0.000 NA
ATOM      5  C   UNL     1      46.800   6.325  11.997  0.00  0.00    +0.000 A 
ATOM      6  C   UNL     1      45.627   5.903  11.353  0.00  0.00    +0.000 A 
ATOM      7  C   UNL     1      44.773   5.000  12.009  0.00  0.00    +0.000 A 
ATOM      8  C   UNL     1      45.168   4.434  13.234  0.00  0.00    +0.000 A 
ATOM      9  C   UNL     1      46.338   4.844  13.890  0.00  0.00    +0.000 A 
ATOM     10  C   UNL     1      47.095   5.844  13.270  0.00  0.00    +0.000 A 
BRANCH   7  11
ATOM     11  C   UNL     1      43.403   4.702  11.446  0.00  0.00    +0.000 C 
ATOM     12  F   UNL     1      42.416   5.490  11.954  0.00  0.00    +0.000 F 
ATOM     13  F   UNL     1      43.339   4.841  10.094  0.00  0.00    +0.000 F 
ATOM     14  F   UNL     1      43.015   3.419  11.705  0.00  0.00    +0.000 F 
ENDBRANCH   7  11
ENDBRANCH   1   2
BRANCH   1  19
ATOM     15  C   UNL     1      50.020   4.557  17.222  0.00  0.00    +0.000 A 
ATOM     16  C   UNL     1      51.309   5.062  17.337  0.00  0.00    +0.000 A 
ATOM     17  C   UNL     1      51.598   6.315  16.787  0.00  0.00    +0.000 A 
ATOM     18  C   UNL     1      50.621   7.046  16.096  0.00  0.00    +0.000 A 
ATOM     19  C   UNL     1      49.326   6.535  15.958  0.00  0.00    +0.000 A 
ATOM     20  C   UNL     1      49.043   5.280  16.537  0.00  0.00    +0.000 A 
BRANCH  15  21
ATOM     21  O   UNL     1      49.626   3.270  17.661  0.00  0.00    +0.000 OA
BRANCH  21  23
ATOM     22  N   UNL     1      50.859   1.388  17.584  0.00  0.00    +0.000 N 
ATOM     23  C   UNL     1      49.890   2.109  16.956  0.00  0.00    +0.000 C 
ATOM     24  O   UNL     1      49.366   1.733  15.921  0.00  0.00    +0.000 OA
ATOM     25  H   UNL     1      51.139   0.505  17.183  0.00  0.00    +0.000 HD
ATOM     26  H   UNL     1      51.270   1.714  18.442  0.00  0.00    +0.000 HD
ENDBRANCH  21  23
ENDBRANCH  15  21
ENDBRANCH   1  19
TORSDOF 5
ENDMDL
MODEL 7
REMARK VINA RESULT:    -6.745      5.187      7.832
REMARK INTER + INTRA:          -9.369
REMARK INTER:                  -8.836
REMARK INTRA:                  -0.533
REMARK UNBOUND:                -0.652
REMARK  Name = 
REMARK  5 active torsions:
REMARK  status: ('A' for Active; 'I' for Inactive)
REMARK    1  A    between atoms: C_2  and  O_4
REMARK    2  A    between atoms: O_4  and  C_5
REMARK    3  A    between atoms: C_9  and  C_10
REMARK    4  A    between atoms: C_10  and  N_11
REMARK    5  A    between atoms: C_16  and  C_17
REMARK                            x       y       z     vdW  Elec       q    Type
REMARK                         _______ _______ _______ _____ _____    ______ ____
ROOT
ATOM      1  C   UNL     1      45.664   6.063  11.540  0.00  0.00    +0.000 C 
ENDROOT
BRANCH   1   2
ATOM      2  N   UNL     1      46.857   5.813  12.349  0.00  0.00    +0.000 N 
ATOM      3  C   UNL     1      46.832   5.056  13.495  0.00  0.00    +0.000 A 
ATOM      4  N   UNL     1      47.669   5.508  14.399  0.00  0.00    +0.000 NA
ATOM      5  C   UNL     1      48.274   6.594  13.821  0.00  0.00    +0.000 A 
ATOM      6  C   UNL     1      49.121   7.554  14.397  0.00  0.00    +0.000 A 
ATOM      7  C   UNL     1      49.562   8.635  13.615  0.00  0.00    +0.000 A 
ATOM      8  C   UNL     1      49.261   8.669  12.242  0.00  0.00    +0.000 A 
ATOM      9  C   UNL     1      48.417   7.717  11.651  0.00  0.00    +0.000 A 
ATOM     10  C   UNL     1      47.888   6.730  12.490  0.00  0.00    +0.000 A 
BRANCH   7  11
ATOM     11  C   UNL     1      50.284   9.796  14.259  0.00  0.00    +0.000 C 
ATOM     12  F   UNL     1      50.608  10.793  13.390  0.00  0.00    +0.000 F 
ATOM     13  F   UNL     1      49.569  10.382  15.257  0.00  0.00    +0.000 F 
ATOM     14  F   UNL     1      51.463   9.409  14.826  0.00  0.00    +0.000 F 
ENDBRANCH   7  11
ENDBRANCH   1   2
BRANCH   1  19
ATOM     15  C   UNL     1      45.407   3.944   8.415  0.00  0.00    +0.000 A 
ATOM     16  C   UNL     1      44.658   2.850   8.828  0.00  0.00    +0.000 A 
ATOM     17  C   UNL     1      44.141   2.831  10.127  0.00  0.00    +0.000 A 
ATOM     18  C   UNL     1      44.396   3.880  11.023  0.00  0.00    +0.000 A 
ATOM     19  C   UNL     1      45.167   4.976  10.622  0.00  0.00    +0.000 A 
ATOM     20  C   UNL     1      45.664   4.991   9.301  0.00  0.00    +0.000 A 
BRANCH  15  21
ATOM     21  O   UNL     1      46.052   4.041   7.159  0.00  0.00    +0.000 OA
BRANCH  21  23
ATOM     22  N   UNL     1      47.180   3.285   5.363  0.00  0.00    +0.000 N 
ATOM     23  C   UNL     1      46.968   3.112   6.697  0.00  0.00    +0.000 C 
ATOM     24  O   UNL     1      47.533   2.243   7.339  0.00  0.00    +0.000 OA
ATOM     25  H   UNL     1      47.842   2.682   4.898  0.00  0.00    +0.000 HD
ATOM     26  H   UNL     1      46.708   4.015   4.857  0.00  0.00    +0.000 HD
ENDBRANCH  21  23
ENDBRANCH  15  21
ENDBRANCH   1  19
TORSDOF 5
ENDMDL
MODEL 8
REMARK VINA RESULT:    -6.651      4.629      7.591
REMARK INTER + INTRA:          -9.248
REMARK INTER:                  -8.550
REMARK INTRA:                  -0.698
REMARK UNBOUND:                -0.652
REMARK  Name = 
REMARK  5 active torsions:
REMARK  status: ('A' for Active; 'I' for Inactive)
REMARK    1  A    between atoms: C_2  and  O_4
REMARK    2  A    between atoms: O_4  and  C_5
REMARK    3  A    between atoms: C_9  and  C_10
REMARK    4  A    between atoms: C_10  and  N_11
REMARK    5  A    between atoms: C_16  and  C_17
REMARK                            x       y       z     vdW  Elec       q    Type
REMARK                         _______ _______ _______ _____ _____    ______ ____
ROOT
ATOM      1  C   UNL     1      47.052   6.101  12.371  0.00  0.00    +0.000 C 
ENDROOT
BRANCH   1   2
ATOM      2  N   UNL     1      47.330   6.554  13.733  0.00  0.00    +0.000 N 
ATOM      3  C   UNL     1      48.093   7.665  14.005  0.00  0.00    +0.000 A 
ATOM      4  N   UNL     1      48.806   7.514  15.097  0.00  0.00    +0.000 NA
ATOM      5  C   UNL     1      48.490   6.263  15.565  0.00  0.00    +0.000 A 
ATOM      6  C   UNL     1      49.085   5.523  16.598  0.00  0.00    +0.000 A 
ATOM      7  C   UNL     1      48.636   4.215  16.849  0.00  0.00    +0.000 A 
ATOM      8  C   UNL     1      47.516   3.720  16.157  0.00  0.00    +0.000 A 
ATOM      9  C   UNL     1      46.909   4.448  15.123  0.00  0.00    +0.000 A 
ATOM     10  C   UNL     1      47.469   5.692  14.810  0.00  0.00    +0.000 A 
BRANCH   7  11
ATOM     11  C   UNL     1      49.398   3.316  17.794  0.00  0.00    +0.000 C 
ATOM     12  F   UNL     1      49.843   2.165  17.219  0.00  0.00    +0.000 F 
ATOM     13  F   UNL     1      50.493   3.915  18.335  0.00  0.00    +0.000 F 
ATOM     14  F   UNL     1      48.631   2.923  18.852  0.00  0.00    +0.000 F 
ENDBRANCH   7  11
ENDBRANCH   1   2
BRANCH   1  19
ATOM     15  C   UNL     1      44.191   4.696  10.331  0.00  0.00    +0.000 A 
ATOM     16  C   UNL     1      43.106   4.782  11.194  0.00  0.00    +0.000 A 
ATOM     17  C   UNL     1      43.277   5.393  12.440  0.00  0.00    +0.000 A 
ATOM     18  C   UNL     1      44.528   5.885  12.840  0.00  0.00    +0.000 A 
ATOM     19  C   UNL     1      45.630   5.784  11.985  0.00  0.00    +0.000 A 
ATOM     20  C   UNL     1      45.438   5.185  10.723  0.00  0.00    +0.000 A 
BRANCH  15  21
ATOM     21  O   UNL     1      44.166   4.029   9.084  0.00  0.00    +0.000 OA
BRANCH  21  23
ATOM     22  N   UNL     1      44.546   1.859   9.552  0.00  0.00    +0.000 N 
ATOM     23  C   UNL     1      44.943   2.919   8.795  0.00  0.00    +0.000 C 
ATOM     24  O   UNL     1      45.859   2.842   7.995  0.00  0.00    +0.000 OA
ATOM     25  H   UNL     1      45.019   0.976   9.431  0.00  0.00    +0.000 HD
ATOM     26  H   UNL     1      43.781   1.945  10.199  0.00  0.00    +0.000 HD
ENDBRANCH  21  23
ENDBRANCH  15  21
ENDBRANCH   1  19
TORSDOF 5
ENDMDL
MODEL 9
REMARK VINA RESULT:    -6.195      5.478      8.343
REMARK INTER + INTRA:          -8.658
REMARK INTER:                  -8.314
REMARK INTRA:                  -0.344
REMARK UNBOUND:                -0.652
REMARK  Name = 
REMARK  5 active torsions:
REMARK  status: ('A' for Active; 'I' for Inactive)
REMARK    1  A    between atoms: C_2  and  O_4
REMARK    2  A    between atoms: O_4  and  C_5
REMARK    3  A    between atoms: C_9  and  C_10
REMARK    4  A    between atoms: C_10  and  N_11
REMARK    5  A    between atoms: C_16  and  C_17
REMARK                            x       y       z     vdW  Elec       q    Type
REMARK                         _______ _______ _______ _____ _____    ______ ____
ROOT
ATOM      1  C   UNL     1      47.166   3.624  15.029  0.00  0.00    +0.000 C 
ENDROOT
BRANCH   1   2
ATOM      2  N   UNL     1      47.699   3.920  16.359  0.00  0.00    +0.000 N 
ATOM      3  C   UNL     1      47.605   5.164  16.936  0.00  0.00    +0.000 A 
ATOM      4  N   UNL     1      48.658   5.445  17.668  0.00  0.00    +0.000 NA
ATOM      5  C   UNL     1      49.467   4.341  17.577  0.00  0.00    +0.000 A 
ATOM      6  C   UNL     1      50.788   4.166  18.017  0.00  0.00    +0.000 A 
ATOM      7  C   UNL     1      51.447   2.956  17.739  0.00  0.00    +0.000 A 
ATOM      8  C   UNL     1      50.736   1.897  17.148  0.00  0.00    +0.000 A 
ATOM      9  C   UNL     1      49.415   2.055  16.704  0.00  0.00    +0.000 A 
ATOM     10  C   UNL     1      48.835   3.317  16.876  0.00  0.00    +0.000 A 
BRANCH   7  11
ATOM     11  C   UNL     1      52.930   2.821  17.996  0.00  0.00    +0.000 C 
ATOM     12  F   UNL     1      53.679   3.809  17.433  0.00  0.00    +0.000 F 
ATOM     13  F   UNL     1      53.245   2.818  19.320  0.00  0.00    +0.000 F 
ATOM     14  F   UNL     1      53.428   1.654  17.494  0.00  0.00    +0.000 F 
ENDBRANCH   7  11
ENDBRANCH   1   2
BRANCH   1  19
ATOM     15  C   UNL     1      45.041   5.946  12.927  0.00  0.00    +0.000 A 
ATOM     16  C   UNL     1      45.893   7.009  12.660  0.00  0.00    +0.000 A 
ATOM     17  C   UNL     1      47.221   6.941  13.091  0.00  0.00    +0.000 A 
ATOM     18  C   UNL     1      47.692   5.836  13.815  0.00  0.00    +0.000 A 
ATOM     19  C   UNL     1      46.835   4.769  14.106  0.00  0.00    +0.000 A 
ATOM     20  C   UNL     1      45.503   4.842  13.646  0.00  0.00    +0.000 A 
BRANCH  15  21
ATOM     21  O   UNL     1      43.660   5.932  12.618  0.00  0.00    +0.000 OA
BRANCH  21  23
ATOM     22  N   UNL     1      42.643   7.253  11.105  0.00  0.00    +0.000 N 
ATOM     23  C   UNL     1      43.165   6.016  11.328  0.00  0.00    +0.000 C 
ATOM     24  O   UNL     1      43.168   5.147  10.474  0.00  0.00    +0.000 OA
ATOM     25  H   UNL     1      42.260   7.458  10.194  0.00  0.00    +0.000 HD
ATOM     26  H   UNL     1      42.661   7.958  11.823  0.00  0.00    +0.000 HD
ENDBRANCH  21  23
ENDBRANCH  15  21
ENDBRANCH   1  19
TORSDOF 5
ENDMDL
