MODEL 1
REMARK VINA RESULT:    -7.841      0.000      0.000
REMARK INTER + INTRA:         -10.186
REMARK INTER:                  -9.674
REMARK INTRA:                  -0.512
REMARK UNBOUND:                -0.512
REMARK  Name = 
REMARK  5 active torsions:
REMARK  status: ('A' for Active; 'I' for Inactive)
REMARK    1  A    between atoms: C_1  and  C_2
REMARK    2  A    between atoms: C_2  and  O_3
REMARK    3  A    between atoms: C_2  and  C_13
REMARK    4  A    between atoms: O_3  and  C_4
REMARK    5  A    between atoms: C_7  and  C_8
REMARK                            x       y       z     vdW  Elec       q    Type
REMARK                         _______ _______ _______ _____ _____    ______ ____
ROOT
ATOM      1  C   UNL     1      44.540   3.672   9.245  0.00  0.00    +0.000 A 
ATOM      2  C   UNL     1      45.373   4.308   8.324  0.00  0.00    +0.000 A 
ATOM      3  C   UNL     1      46.295   3.563   7.589  0.00  0.00    +0.000 A 
ATOM      4  C   UNL     1      46.363   2.194   7.818  0.00  0.00    +0.000 A 
ATOM      5  N   UNL     1      45.602   1.546   8.743  0.00  0.00    +0.000 NA
ATOM      6  C   UNL     1      44.720   2.307   9.438  0.00  0.00    +0.000 A 
ENDROOT
BRANCH   4   7
ATOM      7  C   UNL     1      47.290   1.342   7.008  0.00  0.00    +0.000 C 
ATOM      8  N   UNL     1      48.416   1.975   6.551  0.00  0.00    +0.000 N 
ATOM      9  O   UNL     1      47.073   0.161   6.774  0.00  0.00    +0.000 OA
ATOM     10  H   UNL     1      48.565   2.951   6.779  0.00  0.00    +0.000 HD
ATOM     11  H   UNL     1      49.098   1.461   6.015  0.00  0.00    +0.000 HD
ENDBRANCH   4   7
BRANCH   1  12
ATOM     12  O   UNL     1      43.618   4.464   9.870  0.00  0.00    +0.000 OA
BRANCH  12  14
ATOM     13  C   UNL     1      42.634   5.546  11.826  0.00  0.00    +0.000 C 
ATOM     14  C   UNL     1      43.660   4.531  11.309  0.00  0.00    +0.000 C 
BRANCH  14  15
ATOM     15  C   UNL     1      45.099   4.914  11.760  0.00  0.00    +0.000 C 
ATOM     16  C   UNL     1      45.364   4.610  13.248  0.00  0.00    +0.000 C 
ATOM     17  C   UNL     1      46.749   5.064  13.699  0.00  0.00    +0.000 C 
ATOM     18  C   UNL     1      46.970   6.542  13.405  0.00  0.00    +0.000 C 
ATOM     19  C   UNL     1      46.779   6.831  11.922  0.00  0.00    +0.000 C 
ATOM     20  C   UNL     1      45.395   6.394  11.442  0.00  0.00    +0.000 C 
ENDBRANCH  14  15
ENDBRANCH  12  14
ENDBRANCH   1  12
TORSDOF 4
ENDMDL
MODEL 2
REMARK VINA RESULT:    -7.414      1.059      1.866
REMARK INTER + INTRA:          -9.659
REMARK INTER:                  -9.059
REMARK INTRA:                  -0.600
REMARK UNBOUND:                -0.512
REMARK  Name = 
REMARK  5 active torsions:
REMARK  status: ('A' for Active; 'I' for Inactive)
REMARK    1  A    between atoms: C_1  and  C_2
REMARK    2  A    between atoms: C_2  and  O_3
REMARK    3  A    between atoms: C_2  and  C_13
REMARK    4  A    between atoms: O_3  and  C_4
REMARK    5  A    between atoms: C_7  and  C_8
REMARK                            x       y       z     vdW  Elec       q    Type
REMARK                         _______ _______ _______ _____ _____    ______ ____
ROOT
ATOM      1  C   UNL     1      44.849   4.100   9.261  0.00  0.00    +0.000 A 
ATOM      2  C   UNL     1      44.552   2.767   9.546  0.00  0.00    +0.000 A 
ATOM      3  C   UNL     1      45.263   1.746   8.917  0.00  0.00    +0.000 A 
ATOM      4  C   UNL     1      46.245   2.099   8.000  0.00  0.00    +0.000 A 
ATOM      5  N   UNL     1      46.528   3.386   7.658  0.00  0.00    +0.000 NA
ATOM      6  C   UNL     1      45.813   4.349   8.291  0.00  0.00    +0.000 A 
ENDROOT
BRANCH   4   7
ATOM      7  C   UNL     1      47.078   1.040   7.347  0.00  0.00    +0.000 C 
ATOM      8  N   UNL     1      46.763  -0.247   7.691  0.00  0.00    +0.000 N 
ATOM      9  O   UNL     1      47.973   1.296   6.552  0.00  0.00    +0.000 OA
ATOM     10  H   UNL     1      46.005  -0.417   8.343  0.00  0.00    +0.000 HD
ATOM     11  H   UNL     1      47.268  -1.016   7.277  0.00  0.00    +0.000 HD
ENDBRANCH   4   7
BRANCH   1  12
ATOM     12  O   UNL     1      44.155   5.037   9.974  0.00  0.00    +0.000 OA
BRANCH  12  14
ATOM     13  C   UNL     1      42.455   5.230  11.718  0.00  0.00    +0.000 C 
ATOM     14  C   UNL     1      43.864   4.747  11.355  0.00  0.00    +0.000 C 
BRANCH  14  15
ATOM     15  C   UNL     1      44.936   5.427  12.256  0.00  0.00    +0.000 C 
ATOM     16  C   UNL     1      45.740   6.514  11.516  0.00  0.00    +0.000 C 
ATOM     17  C   UNL     1      46.841   7.117  12.385  0.00  0.00    +0.000 C 
ATOM     18  C   UNL     1      47.769   6.039  12.929  0.00  0.00    +0.000 C 
ATOM     19  C   UNL     1      46.984   5.002  13.721  0.00  0.00    +0.000 C 
ATOM     20  C   UNL     1      45.877   4.374  12.875  0.00  0.00    +0.000 C 
ENDBRANCH  14  15
ENDBRANCH  12  14
ENDBRANCH   1  12
TORSDOF 4
ENDMDL
MODEL 3
REMARK VINA RESULT:    -6.619      3.628      6.026
REMARK INTER + INTRA:          -8.678
REMARK INTER:                  -8.030
REMARK INTRA:                  -0.648
REMARK UNBOUND:                -0.512
REMARK  Name = 
REMARK  5 active torsions:
REMARK  status: ('A' for Active; 'I' for Inactive)
REMARK    1  A    between atoms: C_1  and  C_2
REMARK    2  A    between atoms: C_2  and  O_3
REMARK    3  A    between atoms: C_2  and  C_13
REMARK    4  A    between atoms: O_3  and  C_4
REMARK    5  A    between atoms: C_7  and  C_8
REMARK                            x       y       z     vdW  Elec       q    Type
REMARK                         _______ _______ _______ _____ _____    ______ ____
ROOT
ATOM      1  C   UNL     1      46.268   5.534  12.390  0.00  0.00    +0.000 A 
ATOM      2  C   UNL     1      46.603   6.654  11.628  0.00  0.00    +0.000 A 
ATOM      3  C   UNL     1      47.753   7.383  11.930  0.00  0.00    +0.000 A 
ATOM      4  C   UNL     1      48.526   6.972  13.008  0.00  0.00    +0.000 A 
ATOM      5  N   UNL     1      48.205   5.916  13.806  0.00  0.00    +0.000 NA
ATOM      6  C   UNL     1      47.079   5.235  13.479  0.00  0.00    +0.000 A 
ENDROOT
BRANCH   4   7
ATOM      7  C   UNL     1      49.803   7.684  13.331  0.00  0.00    +0.000 C 
ATOM      8  N   UNL     1      50.409   7.296  14.496  0.00  0.00    +0.000 N 
ATOM      9  O   UNL     1      50.285   8.544  12.606  0.00  0.00    +0.000 OA
ATOM     10  H   UNL     1      49.984   6.569  15.061  0.00  0.00    +0.000 HD
ATOM     11  H   UNL     1      51.284   7.717  14.771  0.00  0.00    +0.000 HD
ENDBRANCH   4   7
BRANCH   1  12
ATOM     12  O   UNL     1      45.166   4.836  11.983  0.00  0.00    +0.000 OA
BRANCH  12  14
ATOM     13  C   UNL     1      42.976   5.637  11.257  0.00  0.00    +0.000 C 
ATOM     14  C   UNL     1      44.428   5.350  10.857  0.00  0.00    +0.000 C 
BRANCH  14  15
ATOM     15  C   UNL     1      44.492   4.320   9.692  0.00  0.00    +0.000 C 
ATOM     16  C   UNL     1      44.576   2.861  10.182  0.00  0.00    +0.000 C 
ATOM     17  C   UNL     1      44.720   1.867   9.033  0.00  0.00    +0.000 C 
ATOM     18  C   UNL     1      45.916   2.207   8.154  0.00  0.00    +0.000 C 
ATOM     19  C   UNL     1      45.799   3.625   7.611  0.00  0.00    +0.000 C 
ATOM     20  C   UNL     1      45.661   4.646   8.739  0.00  0.00    +0.000 C 
ENDBRANCH  14  15
ENDBRANCH  12  14
ENDBRANCH   1  12
TORSDOF 4
ENDMDL
MODEL 4
REMARK VINA RESULT:    -6.511      3.071      5.969
REMARK INTER + INTRA:          -8.545
REMARK INTER:                  -8.687
REMARK INTRA:                   0.142
REMARK UNBOUND:                -0.512
REMARK  Name = 
REMARK  5 active torsions:
REMARK  status: ('A' for Active; 'I' for Inactive)
REMARK    1  A    between atoms: C_1  and  C_2
REMARK    2  A    between atoms: C_2  and  O_3
REMARK    3  A    between atoms: C_2  and  C_13
REMARK    4  A    between atoms: O_3  and  C_4
REMARK    5  A    between atoms: C_7  and  C_8
REMARK                            x       y       z     vdW  Elec       q    Type
REMARK                         _______ _______ _______ _____ _____    ______ ____
ROOT
ATOM      1  C   UNL     1      44.978   5.280  11.509  0.00  0.00    +0.000 A 
ATOM      2  C   UNL     1      46.001   6.181  11.209  0.00  0.00    +0.000 A 
ATOM      3  C   UNL     1      47.000   6.438  12.147  0.00  0.00    +0.000 A 
ATOM      4  C   UNL     1      46.930   5.789  13.374  0.00  0.00    +0.000 A 
ATOM      5  N   UNL     1      45.921   4.943  13.722  0.00  0.00    +0.000 NA
ATOM      6  C   UNL     1      44.969   4.722  12.782  0.00  0.00    +0.000 A 
ENDROOT
BRANCH   4   7
ATOM      7  C   UNL     1      48.013   5.983  14.389  0.00  0.00    +0.000 C 
ATOM      8  N   UNL     1      47.729   5.514  15.644  0.00  0.00    +0.000 N 
ATOM      9  O   UNL     1      49.085   6.511  14.123  0.00  0.00    +0.000 OA
ATOM     10  H   UNL     1      46.835   5.070  15.819  0.00  0.00    +0.000 HD
ATOM     11  H   UNL     1      48.419   5.591  16.376  0.00  0.00    +0.000 HD
ENDBRANCH   4   7
BRANCH   1  12
ATOM     12  O   UNL     1      44.081   5.033  10.508  0.00  0.00    +0.000 OA
BRANCH  12  14
ATOM     13  C   UNL     1      43.696   2.721  11.196  0.00  0.00    +0.000 C 
ATOM     14  C   UNL     1      43.970   3.678  10.030  0.00  0.00    +0.000 C 
BRANCH  14  15
ATOM     15  C   UNL     1      45.281   3.290   9.286  0.00  0.00    +0.000 C 
ATOM     16  C   UNL     1      45.598   4.223   8.101  0.00  0.00    +0.000 C 
ATOM     17  C   UNL     1      46.840   3.785   7.330  0.00  0.00    +0.000 C 
ATOM     18  C   UNL     1      46.719   2.342   6.859  0.00  0.00    +0.000 C 
ATOM     19  C   UNL     1      46.476   1.409   8.038  0.00  0.00    +0.000 C 
ATOM     20  C   UNL     1      45.232   1.818   8.827  0.00  0.00    +0.000 C 
ENDBRANCH  14  15
ENDBRANCH  12  14
ENDBRANCH   1  12
TORSDOF 4
ENDMDL
MODEL 5
REMARK VINA RESULT:    -6.185      3.656      6.577
REMARK INTER + INTRA:          -8.144
REMARK INTER:                  -7.556
REMARK INTRA:                  -0.587
REMARK UNBOUND:                -0.512
REMARK  Name = 
REMARK  5 active torsions:
REMARK  status: ('A' for Active; 'I' for Inactive)
REMARK    1  A    between atoms: C_1  and  C_2
REMARK    2  A    between atoms: C_2  and  O_3
REMARK    3  A    between atoms: C_2  and  C_13
REMARK    4  A    between atoms: O_3  and  C_4
REMARK    5  A    between atoms: C_7  and  C_8
REMARK                            x       y       z     vdW  Elec       q    Type
REMARK                         _______ _______ _______ _____ _____    ______ ____
ROOT
ATOM      1  C   UNL     1      45.656   5.232  12.751  0.00  0.00    +0.000 A 
ATOM      2  C   UNL     1      46.961   5.217  13.243  0.00  0.00    +0.000 A 
ATOM      3  C   UNL     1      47.590   6.414  13.585  0.00  0.00    +0.000 A 
ATOM      4  C   UNL     1      46.888   7.599  13.403  0.00  0.00    +0.000 A 
ATOM      5  N   UNL     1      45.633   7.658  12.878  0.00  0.00    +0.000 NA
ATOM      6  C   UNL     1      45.058   6.472  12.558  0.00  0.00    +0.000 A 
ENDROOT
BRANCH   4   7
ATOM      7  C   UNL     1      47.497   8.903  13.816  0.00  0.00    +0.000 C 
ATOM      8  N   UNL     1      47.542   9.126  15.166  0.00  0.00    +0.000 N 
ATOM      9  O   UNL     1      47.936   9.715  13.011  0.00  0.00    +0.000 OA
ATOM     10  H   UNL     1      47.180   8.422  15.799  0.00  0.00    +0.000 HD
ATOM     11  H   UNL     1      47.956   9.975  15.521  0.00  0.00    +0.000 HD
ENDBRANCH   4   7
BRANCH   1  12
ATOM     12  O   UNL     1      45.090   4.012  12.509  0.00  0.00    +0.000 OA
BRANCH  12  14
ATOM     13  C   UNL     1      43.316   2.722  11.434  0.00  0.00    +0.000 C 
ATOM     14  C   UNL     1      44.340   3.854  11.289  0.00  0.00    +0.000 C 
BRANCH  14  15
ATOM     15  C   UNL     1      45.324   3.567  10.117  0.00  0.00    +0.000 C 
ATOM     16  C   UNL     1      45.370   4.705   9.079  0.00  0.00    +0.000 C 
ATOM     17  C   UNL     1      46.277   4.377   7.895  0.00  0.00    +0.000 C 
ATOM     18  C   UNL     1      45.874   3.064   7.237  0.00  0.00    +0.000 C 
ATOM     19  C   UNL     1      45.897   1.925   8.247  0.00  0.00    +0.000 C 
ATOM     20  C   UNL     1      44.992   2.221   9.443  0.00  0.00    +0.000 C 
ENDBRANCH  14  15
ENDBRANCH  12  14
ENDBRANCH   1  12
TORSDOF 4
ENDMDL
MODEL 6
REMARK VINA RESULT:    -5.711      3.101      5.246
REMARK INTER + INTRA:          -7.559
REMARK INTER:                  -7.002
REMARK INTRA:                  -0.557
REMARK UNBOUND:                -0.512
REMARK  Name = 
REMARK  5 active torsions:
REMARK  status: ('A' for Active; 'I' for Inactive)
REMARK    1  A    between atoms: C_1  and  C_2
REMARK    2  A    between atoms: C_2  and  O_3
REMARK    3  A    between atoms: C_2  and  C_13
REMARK    4  A    between atoms: O_3  and  C_4
REMARK    5  A    between atoms: C_7  and  C_8
REMARK                            x       y       z     vdW  Elec       q    Type
REMARK                         _______ _______ _______ _____ _____    ______ ____
ROOT
ATOM      1  C   UNL     1      46.447   5.803  12.718  0.00  0.00    +0.000 A 
ATOM      2  C   UNL     1      45.919   5.992  11.441  0.00  0.00    +0.000 A 
ATOM      3  C   UNL     1      45.129   5.001  10.860  0.00  0.00    +0.000 A 
ATOM      4  C   UNL     1      44.908   3.833  11.579  0.00  0.00    +0.000 A 
ATOM      5  N   UNL     1      45.447   3.591  12.806  0.00  0.00    +0.000 NA
ATOM      6  C   UNL     1      46.210   4.580  13.335  0.00  0.00    +0.000 A 
ENDROOT
BRANCH   4   7
ATOM      7  C   UNL     1      44.014   2.767  11.025  0.00  0.00    +0.000 C 
ATOM      8  N   UNL     1      44.467   2.159   9.885  0.00  0.00    +0.000 N 
ATOM      9  O   UNL     1      42.957   2.447  11.553  0.00  0.00    +0.000 OA
ATOM     10  H   UNL     1      45.355   2.445   9.488  0.00  0.00    +0.000 HD
ATOM     11  H   UNL     1      43.929   1.417   9.464  0.00  0.00    +0.000 HD
ENDBRANCH   4   7
BRANCH   1  12
ATOM     12  O   UNL     1      47.149   6.852  13.241  0.00  0.00    +0.000 OA
BRANCH  12  14
ATOM     13  C   UNL     1      49.244   7.090  14.475  0.00  0.00    +0.000 C 
ATOM     14  C   UNL     1      48.584   6.824  13.117  0.00  0.00    +0.000 C 
BRANCH  14  15
ATOM     15  C   UNL     1      49.026   7.884  12.066  0.00  0.00    +0.000 C 
ATOM     16  C   UNL     1      50.544   8.152  12.084  0.00  0.00    +0.000 C 
ATOM     17  C   UNL     1      50.953   9.251  11.107  0.00  0.00    +0.000 C 
ATOM     18  C   UNL     1      50.178  10.536  11.362  0.00  0.00    +0.000 C 
ATOM     19  C   UNL     1      48.678  10.287  11.274  0.00  0.00    +0.000 C 
ATOM     20  C   UNL     1      48.235   9.195  12.248  0.00  0.00    +0.000 C 
ENDBRANCH  14  15
ENDBRANCH  12  14
ENDBRANCH   1  12
TORSDOF 4
ENDMDL
MODEL 7
REMARK VINA RESULT:    -5.620      3.818      6.093
REMARK INTER + INTRA:          -7.447
REMARK INTER:                  -6.927
REMARK INTRA:                  -0.520
REMARK UNBOUND:                -0.512
REMARK  Name = 
REMARK  5 active torsions:
REMARK  status: ('A' for Active; 'I' for Inactive)
REMARK    1  A    between atoms: C_1  and  C_2
REMARK    2  A    between atoms: C_2  and  O_3
REMARK    3  A    between atoms: C_2  and  C_13
REMARK    4  A    between atoms: O_3  and  C_4
REMARK    5  A    between atoms: C_7  and  C_8
REMARK                            x       y       z     vdW  Elec       q    Type
REMARK                         _______ _______ _______ _____ _____    ______ ____
ROOT
ATOM      1  C   UNL     1      47.044   5.166  13.368  0.00  0.00    +0.000 A 
ATOM      2  C   UNL     1      46.298   6.127  12.686  0.00  0.00    +0.000 A 
ATOM      3  C   UNL     1      45.068   5.785  12.126  0.00  0.00    +0.000 A 
ATOM      4  C   UNL     1      44.631   4.473  12.256  0.00  0.00    +0.000 A 
ATOM      5  N   UNL     1      45.354   3.495  12.869  0.00  0.00    +0.000 NA
ATOM      6  C   UNL     1      46.545   3.869  13.398  0.00  0.00    +0.000 A 
ENDROOT
BRANCH   4   7
ATOM      7  C   UNL     1      43.288   4.073  11.728  0.00  0.00    +0.000 C 
ATOM      8  N   UNL     1      42.332   5.053  11.760  0.00  0.00    +0.000 N 
ATOM      9  O   UNL     1      43.054   2.955  11.287  0.00  0.00    +0.000 OA
ATOM     10  H   UNL     1      42.571   5.970  12.120  0.00  0.00    +0.000 HD
ATOM     11  H   UNL     1      41.407   4.864  11.403  0.00  0.00    +0.000 HD
ENDBRANCH   4   7
BRANCH   1  12
ATOM     12  O   UNL     1      48.203   5.602  13.946  0.00  0.00    +0.000 OA
BRANCH  12  14
ATOM     13  C   UNL     1      49.027   7.349  15.442  0.00  0.00    +0.000 C 
ATOM     14  C   UNL     1      48.128   6.116  15.290  0.00  0.00    +0.000 C 
BRANCH  14  15
ATOM     15  C   UNL     1      48.543   4.997  16.289  0.00  0.00    +0.000 C 
ATOM     16  C   UNL     1      47.336   4.298  16.944  0.00  0.00    +0.000 C 
ATOM     17  C   UNL     1      47.756   3.259  17.981  0.00  0.00    +0.000 C 
ATOM     18  C   UNL     1      48.664   3.870  19.040  0.00  0.00    +0.000 C 
ATOM     19  C   UNL     1      49.893   4.499  18.399  0.00  0.00    +0.000 C 
ATOM     20  C   UNL     1      49.505   5.551  17.359  0.00  0.00    +0.000 C 
ENDBRANCH  14  15
ENDBRANCH  12  14
ENDBRANCH   1  12
TORSDOF 4
ENDMDL
MODEL 8
REMARK VINA RESULT:    -5.219      3.695      6.068
REMARK INTER + INTRA:          -6.951
REMARK INTER:                  -6.491
REMARK INTRA:                  -0.460
REMARK UNBOUND:                -0.512
REMARK  Name = 
REMARK  5 active torsions:
REMARK  status: ('A' for Active; 'I' for Inactive)
REMARK    1  A    between atoms: C_1  and  C_2
REMARK    2  A    between atoms: C_2  and  O_3
REMARK    3  A    between atoms: C_2  and  C_13
REMARK    4  A    between atoms: O_3  and  C_4
REMARK    5  A    between atoms: C_7  and  C_8
REMARK                            x       y       z     vdW  Elec       q    Type
REMARK                         _______ _______ _______ _____ _____    ______ ____
ROOT
ATOM      1  C   UNL     1      47.133   5.251  13.482  0.00  0.00    +0.000 A 
ATOM      2  C   UNL     1      46.699   3.926  13.460  0.00  0.00    +0.000 A 
ATOM      3  C   UNL     1      45.613   3.562  12.664  0.00  0.00    +0.000 A 
ATOM      4  C   UNL     1      44.981   4.554  11.925  0.00  0.00    +0.000 A 
ATOM      5  N   UNL     1      45.343   5.866  11.960  0.00  0.00    +0.000 NA
ATOM      6  C   UNL     1      46.402   6.178  12.746  0.00  0.00    +0.000 A 
ENDROOT
BRANCH   4   7
ATOM      7  C   UNL     1      43.852   4.201  11.007  0.00  0.00    +0.000 C 
ATOM      8  N   UNL     1      43.797   4.922   9.844  0.00  0.00    +0.000 N 
ATOM      9  O   UNL     1      43.037   3.324  11.263  0.00  0.00    +0.000 OA
ATOM     10  H   UNL     1      44.499   5.630   9.664  0.00  0.00    +0.000 HD
ATOM     11  H   UNL     1      43.075   4.728   9.166  0.00  0.00    +0.000 HD
ENDBRANCH   4   7
BRANCH   1  12
ATOM     12  O   UNL     1      48.247   5.508  14.231  0.00  0.00    +0.000 OA
BRANCH  12  14
ATOM     13  C   UNL     1      48.748   7.717  15.146  0.00  0.00    +0.000 C 
ATOM     14  C   UNL     1      48.094   6.352  15.389  0.00  0.00    +0.000 C 
BRANCH  14  15
ATOM     15  C   UNL     1      48.724   5.644  16.624  0.00  0.00    +0.000 C 
ATOM     16  C   UNL     1      50.259   5.767  16.669  0.00  0.00    +0.000 C 
ATOM     17  C   UNL     1      50.872   5.001  17.838  0.00  0.00    +0.000 C 
ATOM     18  C   UNL     1      50.451   3.537  17.822  0.00  0.00    +0.000 C 
ATOM     19  C   UNL     1      48.934   3.413  17.849  0.00  0.00    +0.000 C 
ATOM     20  C   UNL     1      48.291   4.165  16.684  0.00  0.00    +0.000 C 
ENDBRANCH  14  15
ENDBRANCH  12  14
ENDBRANCH   1  12
TORSDOF 4
ENDMDL
MODEL 9
REMARK VINA RESULT:    -5.182      4.531      6.825
REMARK INTER + INTRA:          -6.905
REMARK INTER:                  -6.406
REMARK INTRA:                  -0.499
REMARK UNBOUND:                -0.512
REMARK  Name = 
REMARK  5 active torsions:
REMARK  status: ('A' for Active; 'I' for Inactive)
REMARK    1  A    between atoms: C_1  and  C_2
REMARK    2  A    between atoms: C_2  and  O_3
REMARK    3  A    between atoms: C_2  and  C_13
REMARK    4  A    between atoms: O_3  and  C_4
REMARK    5  A    between atoms: C_7  and  C_8
REMARK                            x       y       z     vdW  Elec       q    Type
REMARK                         _______ _______ _______ _____ _____    ______ ____
ROOT
ATOM      1  C   UNL     1      47.539   5.101  14.763  0.00  0.00    +0.000 A 
ATOM      2  C   UNL     1      47.745   6.163  13.882  0.00  0.00    +0.000 A 
ATOM      3  C   UNL     1      46.980   6.261  12.719  0.00  0.00    +0.000 A 
ATOM      4  C   UNL     1      46.039   5.270  12.469  0.00  0.00    +0.000 A 
ATOM      5  N   UNL     1      45.845   4.193  13.279  0.00  0.00    +0.000 NA
ATOM      6  C   UNL     1      46.609   4.135  14.397  0.00  0.00    +0.000 A 
ENDROOT
BRANCH   4   7
ATOM      7  C   UNL     1      45.150   5.366  11.268  0.00  0.00    +0.000 C 
ATOM      8  N   UNL     1      44.696   6.624  10.975  0.00  0.00    +0.000 N 
ATOM      9  O   UNL     1      44.854   4.396  10.582  0.00  0.00    +0.000 OA
ATOM     10  H   UNL     1      44.976   7.403  11.560  0.00  0.00    +0.000 HD
ATOM     11  H   UNL     1      44.108   6.771  10.168  0.00  0.00    +0.000 HD
ENDBRANCH   4   7
BRANCH   1  12
ATOM     12  O   UNL     1      48.280   5.120  15.911  0.00  0.00    +0.000 OA
BRANCH  12  14
ATOM     13  C   UNL     1      47.085   5.047  18.041  0.00  0.00    +0.000 C 
ATOM     14  C   UNL     1      47.868   4.255  16.987  0.00  0.00    +0.000 C 
BRANCH  14  15
ATOM     15  C   UNL     1      49.126   3.586  17.614  0.00  0.00    +0.000 C 
ATOM     16  C   UNL     1      50.326   4.546  17.723  0.00  0.00    +0.000 C 
ATOM     17  C   UNL     1      51.577   3.857  18.263  0.00  0.00    +0.000 C 
ATOM     18  C   UNL     1      51.940   2.636  17.429  0.00  0.00    +0.000 C 
ATOM     19  C   UNL     1      50.778   1.652  17.380  0.00  0.00    +0.000 C 
ATOM     20  C   UNL     1      49.511   2.311  16.835  0.00  0.00    +0.000 C 
ENDBRANCH  14  15
ENDBRANCH  12  14
ENDBRANCH   1  12
TORSDOF 4
ENDMDL
