MODEL 1
REMARK VINA RESULT:    -8.444      0.000      0.000
REMARK INTER + INTRA:         -11.635
REMARK INTER:                 -10.913
REMARK INTRA:                  -0.722
REMARK UNBOUND:                -0.722
REMARK  Name = 
REMARK  5 active torsions:
REMARK  status: ('A' for Active; 'I' for Inactive)
REMARK    1  A    between atoms: C_2  and  C_4
REMARK    2  A    between atoms: C_7  and  O_8
REMARK    3  A    between atoms: O_8  and  C_9
REMARK    4  A    between atoms: C_9  and  C_10
REMARK    5  A    between atoms: C_14  and  C_15
REMARK                            x       y       z     vdW  Elec       q    Type
REMARK                         _______ _______ _______ _____ _____    ______ ____
ROOT
ATOM      1  C   UNL     1      43.659   4.230  11.416  0.00  0.00    +0.000 C 
ENDROOT
BRANCH   1   2
ATOM      2  C   UNL     1      44.697   5.131  12.033  0.00  0.00    +0.000 A 
ATOM      3  C   UNL     1      44.977   6.386  11.494  0.00  0.00    +0.000 A 
ATOM      4  C   UNL     1      45.978   7.143  12.077  0.00  0.00    +0.000 A 
ATOM      5  N   UNL     1      46.705   6.740  13.141  0.00  0.00    +0.000 NA
ATOM      6  C   UNL     1      46.426   5.527  13.680  0.00  0.00    +0.000 A 
ATOM      7  C   UNL     1      45.435   4.703  13.143  0.00  0.00    +0.000 A 
BRANCH   6   8
ATOM      8  C   UNL     1      47.245   5.140  14.840  0.00  0.00    +0.000 A 
ATOM      9  C   UNL     1      48.306   5.942  15.281  0.00  0.00    +0.000 A 
ATOM     10  N   UNL     1      49.125   5.653  16.328  0.00  0.00    +0.000 NA
ATOM     11  C   UNL     1      48.869   4.502  16.989  0.00  0.00    +0.000 A 
ATOM     12  C   UNL     1      47.840   3.646  16.647  0.00  0.00    +0.000 A 
ATOM     13  F   UNL     1      47.629   2.520  17.341  0.00  0.00    +0.000 F 
ATOM     14  C   UNL     1      47.022   3.962  15.570  0.00  0.00    +0.000 A 
ENDBRANCH   6   8
ENDBRANCH   1   2
BRANCH   1  15
ATOM     15  O   UNL     1      43.614   4.460  10.006  0.00  0.00    +0.000 OA
BRANCH  15  19
ATOM     16  C   UNL     1      46.346   2.249   7.880  0.00  0.00    +0.000 A 
ATOM     17  C   UNL     1      46.344   3.618   7.651  0.00  0.00    +0.000 A 
ATOM     18  C   UNL     1      45.433   4.411   8.349  0.00  0.00    +0.000 A 
ATOM     19  C   UNL     1      44.556   3.817   9.255  0.00  0.00    +0.000 A 
ATOM     20  C   UNL     1      44.640   2.435   9.418  0.00  0.00    +0.000 A 
ATOM     21  N   UNL     1      45.507   1.628   8.756  0.00  0.00    +0.000 NA
BRANCH  16  23
ATOM     22  N   UNL     1      48.380   2.026   6.577  0.00  0.00    +0.000 N 
ATOM     23  C   UNL     1      47.306   1.381   7.127  0.00  0.00    +0.000 C 
ATOM     24  O   UNL     1      47.151   0.172   7.014  0.00  0.00    +0.000 OA
ATOM     25  H   UNL     1      49.076   1.493   6.078  0.00  0.00    +0.000 HD
ATOM     26  H   UNL     1      48.490   3.024   6.711  0.00  0.00    +0.000 HD
ENDBRANCH  16  23
ENDBRANCH  15  19
ENDBRANCH   1  15
TORSDOF 5
ENDMDL
MODEL 2
REMARK VINA RESULT:    -8.275      2.723      3.428
REMARK INTER + INTRA:         -11.416
REMARK INTER:                 -10.758
REMARK INTRA:                  -0.658
REMARK UNBOUND:                -0.722
REMARK  Name = 
REMARK  5 active torsions:
REMARK  status: ('A' for Active; 'I' for Inactive)
REMARK    1  A    between atoms: C_2  and  C_4
REMARK    2  A    between atoms: C_7  and  O_8
REMARK    3  A    between atoms: O_8  and  C_9
REMARK    4  A    between atoms: C_9  and  C_10
REMARK    5  A    between atoms: C_14  and  C_15
REMARK                            x       y       z     vdW  Elec       q    Type
REMARK                         _______ _______ _______ _____ _____    ______ ____
ROOT
ATOM      1  C   UNL     1      43.990   5.335  11.020  0.00  0.00    +0.000 C 
ENDROOT
BRANCH   1   2
ATOM      2  C   UNL     1      45.217   5.178  11.880  0.00  0.00    +0.000 A 
ATOM      3  C   UNL     1      45.369   4.081  12.728  0.00  0.00    +0.000 A 
ATOM      4  C   UNL     1      46.495   4.021  13.529  0.00  0.00    +0.000 A 
ATOM      5  N   UNL     1      47.461   4.963  13.543  0.00  0.00    +0.000 NA
ATOM      6  C   UNL     1      47.327   6.025  12.709  0.00  0.00    +0.000 A 
ATOM      7  C   UNL     1      46.216   6.158  11.875  0.00  0.00    +0.000 A 
BRANCH   6   8
ATOM      8  C   UNL     1      48.411   7.020  12.762  0.00  0.00    +0.000 A 
ATOM      9  C   UNL     1      49.244   7.128  13.883  0.00  0.00    +0.000 A 
ATOM     10  N   UNL     1      50.255   8.028  14.025  0.00  0.00    +0.000 NA
ATOM     11  C   UNL     1      50.461   8.866  12.985  0.00  0.00    +0.000 A 
ATOM     12  C   UNL     1      49.707   8.836  11.828  0.00  0.00    +0.000 A 
ATOM     13  F   UNL     1      49.959   9.688  10.826  0.00  0.00    +0.000 F 
ATOM     14  C   UNL     1      48.678   7.911  11.711  0.00  0.00    +0.000 A 
ENDBRANCH   6   8
ENDBRANCH   1   2
BRANCH   1  15
ATOM     15  O   UNL     1      43.693   4.086  10.390  0.00  0.00    +0.000 OA
BRANCH  15  19
ATOM     16  C   UNL     1      46.404   2.401   7.805  0.00  0.00    +0.000 A 
ATOM     17  C   UNL     1      46.217   3.773   7.700  0.00  0.00    +0.000 A 
ATOM     18  C   UNL     1      45.305   4.390   8.557  0.00  0.00    +0.000 A 
ATOM     19  C   UNL     1      44.612   3.625   9.492  0.00  0.00    +0.000 A 
ATOM     20  C   UNL     1      44.873   2.256   9.521  0.00  0.00    +0.000 A 
ATOM     21  N   UNL     1      45.747   1.616   8.704  0.00  0.00    +0.000 NA
BRANCH  16  23
ATOM     22  N   UNL     1      48.424   2.480   6.465  0.00  0.00    +0.000 N 
ATOM     23  C   UNL     1      47.366   1.720   6.882  0.00  0.00    +0.000 C 
ATOM     24  O   UNL     1      47.226   0.557   6.526  0.00  0.00    +0.000 OA
ATOM     25  H   UNL     1      49.121   2.071   5.860  0.00  0.00    +0.000 HD
ATOM     26  H   UNL     1      48.522   3.432   6.798  0.00  0.00    +0.000 HD
ENDBRANCH  16  23
ENDBRANCH  15  19
ENDBRANCH   1  15
TORSDOF 5
ENDMDL
MODEL 3
REMARK VINA RESULT:    -8.149      2.825      4.258
REMARK INTER + INTRA:         -11.253
REMARK INTER:                 -10.432
REMARK INTRA:                  -0.821
REMARK UNBOUND:                -0.722
REMARK  Name = 
REMARK  5 active torsions:
REMARK  status: ('A' for Active; 'I' for Inactive)
REMARK    1  A    between atoms: C_2  and  C_4
REMARK    2  A    between atoms: C_7  and  O_8
REMARK    3  A    between atoms: O_8  and  C_9
REMARK    4  A    between atoms: C_9  and  C_10
REMARK    5  A    between atoms: C_14  and  C_15
REMARK                            x       y       z     vdW  Elec       q    Type
REMARK                         _______ _______ _______ _____ _____    ______ ____
ROOT
ATOM      1  C   UNL     1      43.880   3.669  11.677  0.00  0.00    +0.000 C 
ENDROOT
BRANCH   1   2
ATOM      2  C   UNL     1      44.990   4.516  12.246  0.00  0.00    +0.000 A 
ATOM      3  C   UNL     1      45.959   3.968  13.085  0.00  0.00    +0.000 A 
ATOM      4  C   UNL     1      46.921   4.809  13.614  0.00  0.00    +0.000 A 
ATOM      5  N   UNL     1      46.981   6.135  13.367  0.00  0.00    +0.000 NA
ATOM      6  C   UNL     1      46.051   6.671  12.538  0.00  0.00    +0.000 A 
ATOM      7  C   UNL     1      45.045   5.888  11.971  0.00  0.00    +0.000 A 
BRANCH   6   8
ATOM      8  C   UNL     1      46.166   8.119  12.301  0.00  0.00    +0.000 A 
ATOM      9  C   UNL     1      47.414   8.754  12.269  0.00  0.00    +0.000 A 
ATOM     10  N   UNL     1      47.612  10.086  12.077  0.00  0.00    +0.000 NA
ATOM     11  C   UNL     1      46.503  10.836  11.890  0.00  0.00    +0.000 A 
ATOM     12  C   UNL     1      45.226  10.310  11.889  0.00  0.00    +0.000 A 
ATOM     13  F   UNL     1      44.162  11.100  11.694  0.00  0.00    +0.000 F 
ATOM     14  C   UNL     1      45.052   8.947  12.094  0.00  0.00    +0.000 A 
ENDBRANCH   6   8
ENDBRANCH   1   2
BRANCH   1  15
ATOM     15  O   UNL     1      43.695   3.999  10.299  0.00  0.00    +0.000 OA
BRANCH  15  19
ATOM     16  C   UNL     1      46.477   2.742   7.551  0.00  0.00    +0.000 A 
ATOM     17  C   UNL     1      45.939   1.767   8.379  0.00  0.00    +0.000 A 
ATOM     18  C   UNL     1      44.991   2.146   9.330  0.00  0.00    +0.000 A 
ATOM     19  C   UNL     1      44.605   3.481   9.423  0.00  0.00    +0.000 A 
ATOM     20  C   UNL     1      45.200   4.384   8.543  0.00  0.00    +0.000 A 
ATOM     21  N   UNL     1      46.129   4.058   7.608  0.00  0.00    +0.000 NA
BRANCH  16  23
ATOM     22  N   UNL     1      47.450   3.029   5.347  0.00  0.00    +0.000 N 
ATOM     23  C   UNL     1      47.508   2.355   6.537  0.00  0.00    +0.000 C 
ATOM     24  O   UNL     1      48.356   1.499   6.753  0.00  0.00    +0.000 OA
ATOM     25  H   UNL     1      48.133   2.832   4.631  0.00  0.00    +0.000 HD
ATOM     26  H   UNL     1      46.750   3.749   5.211  0.00  0.00    +0.000 HD
ENDBRANCH  16  23
ENDBRANCH  15  19
ENDBRANCH   1  15
TORSDOF 5
ENDMDL
MODEL 4
REMARK VINA RESULT:    -7.998      2.438      2.893
REMARK INTER + INTRA:         -11.058
REMARK INTER:                 -10.246
REMARK INTRA:                  -0.812
REMARK UNBOUND:                -0.722
REMARK  Name = 
REMARK  5 active torsions:
REMARK  status: ('A' for Active; 'I' for Inactive)
REMARK    1  A    between atoms: C_2  and  C_4
REMARK    2  A    between atoms: C_7  and  O_8
REMARK    3  A    between atoms: O_8  and  C_9
REMARK    4  A    between atoms: C_9  and  C_10
REMARK    5  A    between atoms: C_14  and  C_15
REMARK                            x       y       z     vdW  Elec       q    Type
REMARK                         _______ _______ _______ _____ _____    ______ ____
ROOT
ATOM      1  C   UNL     1      43.871   3.573  11.548  0.00  0.00    +0.000 C 
ENDROOT
BRANCH   1   2
ATOM      2  C   UNL     1      44.373   4.986  11.702  0.00  0.00    +0.000 A 
ATOM      3  C   UNL     1      43.576   6.077  11.357  0.00  0.00    +0.000 A 
ATOM      4  C   UNL     1      44.113   7.346  11.475  0.00  0.00    +0.000 A 
ATOM      5  N   UNL     1      45.368   7.597  11.905  0.00  0.00    +0.000 NA
ATOM      6  C   UNL     1      46.142   6.540  12.257  0.00  0.00    +0.000 A 
ATOM      7  C   UNL     1      45.673   5.229  12.161  0.00  0.00    +0.000 A 
BRANCH   6   8
ATOM      8  C   UNL     1      47.499   6.871  12.723  0.00  0.00    +0.000 A 
ATOM      9  C   UNL     1      47.952   6.471  13.986  0.00  0.00    +0.000 A 
ATOM     10  N   UNL     1      49.180   6.749  14.504  0.00  0.00    +0.000 NA
ATOM     11  C   UNL     1      50.016   7.457  13.714  0.00  0.00    +0.000 A 
ATOM     12  C   UNL     1      49.676   7.889  12.446  0.00  0.00    +0.000 A 
ATOM     13  F   UNL     1      50.548   8.584  11.705  0.00  0.00    +0.000 F 
ATOM     14  C   UNL     1      48.414   7.597  11.945  0.00  0.00    +0.000 A 
ENDBRANCH   6   8
ENDBRANCH   1   2
BRANCH   1  15
ATOM     15  O   UNL     1      43.499   3.352  10.186  0.00  0.00    +0.000 OA
BRANCH  15  19
ATOM     16  C   UNL     1      46.572   2.422   7.624  0.00  0.00    +0.000 A 
ATOM     17  C   UNL     1      46.115   3.733   7.594  0.00  0.00    +0.000 A 
ATOM     18  C   UNL     1      45.071   4.096   8.446  0.00  0.00    +0.000 A 
ATOM     19  C   UNL     1      44.519   3.146   9.302  0.00  0.00    +0.000 A 
ATOM     20  C   UNL     1      45.051   1.858   9.260  0.00  0.00    +0.000 A 
ATOM     21  N   UNL     1      46.061   1.462   8.445  0.00  0.00    +0.000 NA
BRANCH  16  23
ATOM     22  N   UNL     1      48.632   2.964   6.464  0.00  0.00    +0.000 N 
ATOM     23  C   UNL     1      47.680   2.011   6.705  0.00  0.00    +0.000 C 
ATOM     24  O   UNL     1      47.741   0.895   6.205  0.00  0.00    +0.000 OA
ATOM     25  H   UNL     1      49.418   2.741   5.871  0.00  0.00    +0.000 HD
ATOM     26  H   UNL     1      48.563   3.869   6.913  0.00  0.00    +0.000 HD
ENDBRANCH  16  23
ENDBRANCH  15  19
ENDBRANCH   1  15
TORSDOF 5
ENDMDL
MODEL 5
REMARK VINA RESULT:    -7.846      1.842      2.257
REMARK INTER + INTRA:         -10.861
REMARK INTER:                 -10.189
REMARK INTRA:                  -0.672
REMARK UNBOUND:                -0.722
REMARK  Name = 
REMARK  5 active torsions:
REMARK  status: ('A' for Active; 'I' for Inactive)
REMARK    1  A    between atoms: C_2  and  C_4
REMARK    2  A    between atoms: C_7  and  O_8
REMARK    3  A    between atoms: O_8  and  C_9
REMARK    4  A    between atoms: C_9  and  C_10
REMARK    5  A    between atoms: C_14  and  C_15
REMARK                            x       y       z     vdW  Elec       q    Type
REMARK                         _______ _______ _______ _____ _____    ______ ____
ROOT
ATOM      1  C   UNL     1      44.006   3.513  11.706  0.00  0.00    +0.000 C 
ENDROOT
BRANCH   1   2
ATOM      2  C   UNL     1      44.650   4.817  12.103  0.00  0.00    +0.000 A 
ATOM      3  C   UNL     1      44.205   6.030  11.581  0.00  0.00    +0.000 A 
ATOM      4  C   UNL     1      44.870   7.187  11.946  0.00  0.00    +0.000 A 
ATOM      5  N   UNL     1      45.930   7.214  12.781  0.00  0.00    +0.000 NA
ATOM      6  C   UNL     1      46.358   6.037  13.305  0.00  0.00    +0.000 A 
ATOM      7  C   UNL     1      45.741   4.829  12.979  0.00  0.00    +0.000 A 
BRANCH   6   8
ATOM      8  C   UNL     1      47.514   6.126  14.213  0.00  0.00    +0.000 A 
ATOM      9  C   UNL     1      47.662   5.243  15.290  0.00  0.00    +0.000 A 
ATOM     10  N   UNL     1      48.685   5.265  16.187  0.00  0.00    +0.000 NA
ATOM     11  C   UNL     1      49.628   6.214  15.997  0.00  0.00    +0.000 A 
ATOM     12  C   UNL     1      49.587   7.125  14.959  0.00  0.00    +0.000 A 
ATOM     13  F   UNL     1      50.553   8.042  14.817  0.00  0.00    +0.000 F 
ATOM     14  C   UNL     1      48.528   7.084  14.061  0.00  0.00    +0.000 A 
ENDBRANCH   6   8
ENDBRANCH   1   2
BRANCH   1  15
ATOM     15  O   UNL     1      43.611   3.582  10.334  0.00  0.00    +0.000 OA
BRANCH  15  19
ATOM     16  C   UNL     1      46.393   2.651   7.458  0.00  0.00    +0.000 A 
ATOM     17  C   UNL     1      45.992   1.616   8.292  0.00  0.00    +0.000 A 
ATOM     18  C   UNL     1      45.050   1.884   9.285  0.00  0.00    +0.000 A 
ATOM     19  C   UNL     1      44.533   3.171   9.414  0.00  0.00    +0.000 A 
ATOM     20  C   UNL     1      44.995   4.141   8.525  0.00  0.00    +0.000 A 
ATOM     21  N   UNL     1      45.913   3.923   7.550  0.00  0.00    +0.000 NA
BRANCH  16  23
ATOM     22  N   UNL     1      47.379   3.223   5.317  0.00  0.00    +0.000 N 
ATOM     23  C   UNL     1      47.416   2.385   6.398  0.00  0.00    +0.000 C 
ATOM     24  O   UNL     1      48.239   1.483   6.489  0.00  0.00    +0.000 OA
ATOM     25  H   UNL     1      48.059   3.111   4.579  0.00  0.00    +0.000 HD
ATOM     26  H   UNL     1      46.700   3.974   5.286  0.00  0.00    +0.000 HD
ENDBRANCH  16  23
ENDBRANCH  15  19
ENDBRANCH   1  15
TORSDOF 5
ENDMDL
MODEL 6
REMARK VINA RESULT:    -7.732      3.412      7.602
REMARK INTER + INTRA:         -10.714
REMARK INTER:                 -10.381
REMARK INTRA:                  -0.333
REMARK UNBOUND:                -0.722
REMARK  Name = 
REMARK  5 active torsions:
REMARK  status: ('A' for Active; 'I' for Inactive)
REMARK    1  A    between atoms: C_2  and  C_4
REMARK    2  A    between atoms: C_7  and  O_8
REMARK    3  A    between atoms: O_8  and  C_9
REMARK    4  A    between atoms: C_9  and  C_10
REMARK    5  A    between atoms: C_14  and  C_15
REMARK                            x       y       z     vdW  Elec       q    Type
REMARK                         _______ _______ _______ _____ _____    ______ ____
ROOT
ATOM      1  C   UNL     1      45.936   7.213  12.249  0.00  0.00    +0.000 C 
ENDROOT
BRANCH   1   2
ATOM      2  C   UNL     1      45.103   6.237  11.458  0.00  0.00    +0.000 A 
ATOM      3  C   UNL     1      43.728   6.132  11.659  0.00  0.00    +0.000 A 
ATOM      4  C   UNL     1      43.029   5.181  10.937  0.00  0.00    +0.000 A 
ATOM      5  N   UNL     1      43.599   4.343  10.045  0.00  0.00    +0.000 NA
ATOM      6  C   UNL     1      44.935   4.452   9.833  0.00  0.00    +0.000 A 
ATOM      7  C   UNL     1      45.708   5.383  10.528  0.00  0.00    +0.000 A 
BRANCH   6   8
ATOM      8  C   UNL     1      45.503   3.517   8.848  0.00  0.00    +0.000 A 
ATOM      9  C   UNL     1      45.565   2.141   9.102  0.00  0.00    +0.000 A 
ATOM     10  N   UNL     1      46.090   1.211   8.259  0.00  0.00    +0.000 NA
ATOM     11  C   UNL     1      46.571   1.672   7.083  0.00  0.00    +0.000 A 
ATOM     12  C   UNL     1      46.547   3.006   6.726  0.00  0.00    +0.000 A 
ATOM     13  F   UNL     1      47.035   3.405   5.545  0.00  0.00    +0.000 F 
ATOM     14  C   UNL     1      46.011   3.935   7.608  0.00  0.00    +0.000 A 
ENDBRANCH   6   8
ENDBRANCH   1   2
BRANCH   1  15
ATOM     15  O   UNL     1      47.218   6.637  12.507  0.00  0.00    +0.000 OA
BRANCH  15  19
ATOM     16  C   UNL     1      47.471   4.480  15.993  0.00  0.00    +0.000 A 
ATOM     17  C   UNL     1      48.207   5.656  15.937  0.00  0.00    +0.000 A 
ATOM     18  C   UNL     1      48.153   6.422  14.773  0.00  0.00    +0.000 A 
ATOM     19  C   UNL     1      47.368   5.997  13.704  0.00  0.00    +0.000 A 
ATOM     20  C   UNL     1      46.663   4.805  13.860  0.00  0.00    +0.000 A 
ATOM     21  N   UNL     1      46.691   4.028  14.972  0.00  0.00    +0.000 NA
BRANCH  16  23
ATOM     22  N   UNL     1      48.648   3.797  18.002  0.00  0.00    +0.000 N 
ATOM     23  C   UNL     1      47.530   3.637  17.229  0.00  0.00    +0.000 C 
ATOM     24  O   UNL     1      46.637   2.859  17.539  0.00  0.00    +0.000 OA
ATOM     25  H   UNL     1      48.736   3.275  18.861  0.00  0.00    +0.000 HD
ATOM     26  H   UNL     1      49.356   4.468  17.728  0.00  0.00    +0.000 HD
ENDBRANCH  16  23
ENDBRANCH  15  19
ENDBRANCH   1  15
TORSDOF 5
ENDMDL
MODEL 7
REMARK VINA RESULT:    -7.462      1.622      2.083
REMARK INTER + INTRA:         -10.365
REMARK INTER:                  -9.784
REMARK INTRA:                  -0.581
REMARK UNBOUND:                -0.722
REMARK  Name = 
REMARK  5 active torsions:
REMARK  status: ('A' for Active; 'I' for Inactive)
REMARK    1  A    between atoms: C_2  and  C_4
REMARK    2  A    between atoms: C_7  and  O_8
REMARK    3  A    between atoms: O_8  and  C_9
REMARK    4  A    between atoms: C_9  and  C_10
REMARK    5  A    between atoms: C_14  and  C_15
REMARK                            x       y       z     vdW  Elec       q    Type
REMARK                         _______ _______ _______ _____ _____    ______ ____
ROOT
ATOM      1  C   UNL     1      44.958   6.199  11.141  0.00  0.00    +0.000 C 
ENDROOT
BRANCH   1   2
ATOM      2  C   UNL     1      46.214   6.305  11.968  0.00  0.00    +0.000 A 
ATOM      3  C   UNL     1      47.336   6.982  11.493  0.00  0.00    +0.000 A 
ATOM      4  C   UNL     1      48.475   7.000  12.279  0.00  0.00    +0.000 A 
ATOM      5  N   UNL     1      48.568   6.398  13.484  0.00  0.00    +0.000 NA
ATOM      6  C   UNL     1      47.474   5.751  13.958  0.00  0.00    +0.000 A 
ATOM      7  C   UNL     1      46.291   5.685  13.221  0.00  0.00    +0.000 A 
BRANCH   6   8
ATOM      8  C   UNL     1      47.630   5.118  15.278  0.00  0.00    +0.000 A 
ATOM      9  C   UNL     1      46.989   3.911  15.585  0.00  0.00    +0.000 A 
ATOM     10  N   UNL     1      47.060   3.267  16.782  0.00  0.00    +0.000 NA
ATOM     11  C   UNL     1      47.827   3.849  17.730  0.00  0.00    +0.000 A 
ATOM     12  C   UNL     1      48.514   5.031  17.528  0.00  0.00    +0.000 A 
ATOM     13  F   UNL     1      49.263   5.560  18.503  0.00  0.00    +0.000 F 
ATOM     14  C   UNL     1      48.418   5.671  16.299  0.00  0.00    +0.000 A 
ENDBRANCH   6   8
ENDBRANCH   1   2
BRANCH   1  15
ATOM     15  O   UNL     1      44.569   4.826  11.050  0.00  0.00    +0.000 OA
BRANCH  15  19
ATOM     16  C   UNL     1      46.199   2.977   7.765  0.00  0.00    +0.000 A 
ATOM     17  C   UNL     1      45.636   2.149   8.727  0.00  0.00    +0.000 A 
ATOM     18  C   UNL     1      45.070   2.732   9.862  0.00  0.00    +0.000 A 
ATOM     19  C   UNL     1      45.080   4.118  10.001  0.00  0.00    +0.000 A 
ATOM     20  C   UNL     1      45.666   4.862   8.978  0.00  0.00    +0.000 A 
ATOM     21  N   UNL     1      46.230   4.335   7.862  0.00  0.00    +0.000 NA
BRANCH  16  23
ATOM     22  N   UNL     1      47.044   3.223   5.505  0.00  0.00    +0.000 N 
ATOM     23  C   UNL     1      46.825   2.367   6.550  0.00  0.00    +0.000 C 
ATOM     24  O   UNL     1      47.132   1.183   6.490  0.00  0.00    +0.000 OA
ATOM     25  H   UNL     1      47.485   2.878   4.665  0.00  0.00    +0.000 HD
ATOM     26  H   UNL     1      46.800   4.202   5.597  0.00  0.00    +0.000 HD
ENDBRANCH  16  23
ENDBRANCH  15  19
ENDBRANCH   1  15
TORSDOF 5
ENDMDL
MODEL 8
REMARK VINA RESULT:    -7.388      3.667      7.362
REMARK INTER + INTRA:         -10.270
REMARK INTER:                  -9.542
REMARK INTRA:                  -0.727
REMARK UNBOUND:                -0.722
REMARK  Name = 
REMARK  5 active torsions:
REMARK  status: ('A' for Active; 'I' for Inactive)
REMARK    1  A    between atoms: C_2  and  C_4
REMARK    2  A    between atoms: C_7  and  O_8
REMARK    3  A    between atoms: O_8  and  C_9
REMARK    4  A    between atoms: C_9  and  C_10
REMARK    5  A    between atoms: C_14  and  C_15
REMARK                            x       y       z     vdW  Elec       q    Type
REMARK                         _______ _______ _______ _____ _____    ______ ____
ROOT
ATOM      1  C   UNL     1      44.778   6.058  12.720  0.00  0.00    +0.000 C 
ENDROOT
BRANCH   1   2
ATOM      2  C   UNL     1      44.429   4.835  11.912  0.00  0.00    +0.000 A 
ATOM      3  C   UNL     1      43.434   3.952  12.329  0.00  0.00    +0.000 A 
ATOM      4  C   UNL     1      43.197   2.821  11.569  0.00  0.00    +0.000 A 
ATOM      5  N   UNL     1      43.873   2.516  10.441  0.00  0.00    +0.000 NA
ATOM      6  C   UNL     1      44.832   3.380  10.020  0.00  0.00    +0.000 A 
ATOM      7  C   UNL     1      45.132   4.539  10.737  0.00  0.00    +0.000 A 
BRANCH   6   8
ATOM      8  C   UNL     1      45.534   3.000   8.783  0.00  0.00    +0.000 A 
ATOM      9  C   UNL     1      45.847   3.952   7.804  0.00  0.00    +0.000 A 
ATOM     10  N   UNL     1      46.475   3.687   6.626  0.00  0.00    +0.000 NA
ATOM     11  C   UNL     1      46.826   2.400   6.410  0.00  0.00    +0.000 A 
ATOM     12  C   UNL     1      46.578   1.386   7.315  0.00  0.00    +0.000 A 
ATOM     13  F   UNL     1      46.954   0.128   7.050  0.00  0.00    +0.000 F 
ATOM     14  C   UNL     1      45.931   1.683   8.508  0.00  0.00    +0.000 A 
ENDBRANCH   6   8
ENDBRANCH   1   2
BRANCH   1  15
ATOM     15  O   UNL     1      45.972   5.806  13.464  0.00  0.00    +0.000 OA
BRANCH  15  19
ATOM     16  C   UNL     1      49.429   7.878  12.673  0.00  0.00    +0.000 A 
ATOM     17  C   UNL     1      48.367   8.089  11.804  0.00  0.00    +0.000 A 
ATOM     18  C   UNL     1      47.172   7.406  12.031  0.00  0.00    +0.000 A 
ATOM     19  C   UNL     1      47.070   6.540  13.117  0.00  0.00    +0.000 A 
ATOM     20  C   UNL     1      48.191   6.400  13.935  0.00  0.00    +0.000 A 
ATOM     21  N   UNL     1      49.372   7.041  13.746  0.00  0.00    +0.000 NA
BRANCH  16  23
ATOM     22  N   UNL     1      51.829   7.789  12.333  0.00  0.00    +0.000 N 
ATOM     23  C   UNL     1      50.724   8.590  12.434  0.00  0.00    +0.000 C 
ATOM     24  O   UNL     1      50.797   9.808  12.328  0.00  0.00    +0.000 OA
ATOM     25  H   UNL     1      52.729   8.207  12.147  0.00  0.00    +0.000 HD
ATOM     26  H   UNL     1      51.729   6.784  12.402  0.00  0.00    +0.000 HD
ENDBRANCH  16  23
ENDBRANCH  15  19
ENDBRANCH   1  15
TORSDOF 5
ENDMDL
MODEL 9
REMARK VINA RESULT:    -6.837      3.940      8.556
REMARK INTER + INTRA:          -9.557
REMARK INTER:                  -8.962
REMARK INTRA:                  -0.595
REMARK UNBOUND:                -0.722
REMARK  Name = 
REMARK  5 active torsions:
REMARK  status: ('A' for Active; 'I' for Inactive)
REMARK    1  A    between atoms: C_2  and  C_4
REMARK    2  A    between atoms: C_7  and  O_8
REMARK    3  A    between atoms: O_8  and  C_9
REMARK    4  A    between atoms: C_9  and  C_10
REMARK    5  A    between atoms: C_14  and  C_15
REMARK                            x       y       z     vdW  Elec       q    Type
REMARK                         _______ _______ _______ _____ _____    ______ ____
ROOT
ATOM      1  C   UNL     1      48.085   6.937  14.114  0.00  0.00    +0.000 C 
ENDROOT
BRANCH   1   2
ATOM      2  C   UNL     1      46.987   7.060  13.089  0.00  0.00    +0.000 A 
ATOM      3  C   UNL     1      46.250   8.235  12.957  0.00  0.00    +0.000 A 
ATOM      4  C   UNL     1      45.222   8.266  12.031  0.00  0.00    +0.000 A 
ATOM      5  N   UNL     1      44.886   7.223  11.243  0.00  0.00    +0.000 NA
ATOM      6  C   UNL     1      45.611   6.081  11.356  0.00  0.00    +0.000 A 
ATOM      7  C   UNL     1      46.659   5.972  12.271  0.00  0.00    +0.000 A 
BRANCH   6   8
ATOM      8  C   UNL     1      45.204   4.977  10.471  0.00  0.00    +0.000 A 
ATOM      9  C   UNL     1      44.379   3.943  10.930  0.00  0.00    +0.000 A 
ATOM     10  N   UNL     1      43.972   2.876  10.189  0.00  0.00    +0.000 NA
ATOM     11  C   UNL     1      44.398   2.840   8.908  0.00  0.00    +0.000 A 
ATOM     12  C   UNL     1      45.203   3.814   8.350  0.00  0.00    +0.000 A 
ATOM     13  F   UNL     1      45.592   3.728   7.071  0.00  0.00    +0.000 F 
ATOM     14  C   UNL     1      45.609   4.889   9.130  0.00  0.00    +0.000 A 
ENDBRANCH   6   8
ENDBRANCH   1   2
BRANCH   1  15
ATOM     15  O   UNL     1      48.172   5.579  14.551  0.00  0.00    +0.000 OA
BRANCH  15  19
ATOM     16  C   UNL     1      48.382   5.235  18.639  0.00  0.00    +0.000 A 
ATOM     17  C   UNL     1      47.670   4.249  17.969  0.00  0.00    +0.000 A 
ATOM     18  C   UNL     1      47.570   4.324  16.580  0.00  0.00    +0.000 A 
ATOM     19  C   UNL     1      48.185   5.374  15.901  0.00  0.00    +0.000 A 
ATOM     20  C   UNL     1      48.881   6.311  16.663  0.00  0.00    +0.000 A 
ATOM     21  N   UNL     1      48.998   6.278  18.015  0.00  0.00    +0.000 NA
BRANCH  16  23
ATOM     22  N   UNL     1      48.504   3.924  20.676  0.00  0.00    +0.000 N 
ATOM     23  C   UNL     1      48.485   5.179  20.131  0.00  0.00    +0.000 C 
ATOM     24  O   UNL     1      48.557   6.185  20.825  0.00  0.00    +0.000 OA
ATOM     25  H   UNL     1      48.597   3.818  21.675  0.00  0.00    +0.000 HD
ATOM     26  H   UNL     1      48.467   3.112  20.070  0.00  0.00    +0.000 HD
ENDBRANCH  16  23
ENDBRANCH  15  19
ENDBRANCH   1  15
TORSDOF 5
ENDMDL
