MODEL 1
REMARK VINA RESULT:    -8.163      0.000      0.000
REMARK INTER + INTRA:         -11.468
REMARK INTER:                 -11.026
REMARK INTRA:                  -0.442
REMARK UNBOUND:                -0.442
REMARK  Name = 
REMARK  6 active torsions:
REMARK  status: ('A' for Active; 'I' for Inactive)
REMARK    1  A    between atoms: C_2  and  C_3
REMARK    2  A    between atoms: N_7  and  C_8
REMARK    3  A    between atoms: C_8  and  C_9
REMARK    4  A    between atoms: C_13  and  C_14
REMARK    5  A    between atoms: C_18  and  O_19
REMARK    6  A    between atoms: O_19  and  C_20
REMARK                            x       y       z     vdW  Elec       q    Type
REMARK                         _______ _______ _______ _____ _____    ______ ____
ROOT
ATOM      1  C   UNL     1      45.449   5.216  11.765  0.00  0.00    +0.000 A 
ATOM      2  C   UNL     1      46.147   6.295  11.210  0.00  0.00    +0.000 A 
ATOM      3  C   UNL     1      47.254   6.833  11.863  0.00  0.00    +0.000 A 
ATOM      4  C   UNL     1      47.686   6.285  13.073  0.00  0.00    +0.000 A 
ATOM      5  C   UNL     1      47.061   5.156  13.627  0.00  0.00    +0.000 A 
ATOM      6  C   UNL     1      45.980   4.609  12.921  0.00  0.00    +0.000 A 
ENDROOT
BRANCH   5   7
ATOM      7  C   UNL     1      47.405   4.645  14.969  0.00  0.00    +0.000 A 
ATOM      8  C   UNL     1      47.449   3.268  15.215  0.00  0.00    +0.000 A 
ATOM      9  N   UNL     1      47.811   2.700  16.387  0.00  0.00    +0.000 NA
ATOM     10  C   UNL     1      48.172   3.544  17.376  0.00  0.00    +0.000 A 
ATOM     11  C   UNL     1      48.208   4.927  17.247  0.00  0.00    +0.000 A 
ATOM     12  C   UNL     1      47.796   5.480  16.033  0.00  0.00    +0.000 A 
BRANCH  11  13
ATOM     13  O   UNL     1      48.624   5.614  18.349  0.00  0.00    +0.000 OA
BRANCH  13  14
ATOM     14  C   UNL     1      47.611   6.282  19.078  0.00  0.00    +0.000 C 
ATOM     15  F   UNL     1      47.467   7.533  18.576  0.00  0.00    +0.000 F 
ATOM     16  F   UNL     1      46.447   5.628  18.843  0.00  0.00    +0.000 F 
ENDBRANCH  13  14
ENDBRANCH  11  13
ENDBRANCH   5   7
BRANCH   1  17
ATOM     17  C   UNL     1      44.059   4.814  11.290  0.00  0.00    +0.000 C 
ATOM     18  C   UNL     1      42.960   5.187  12.285  0.00  0.00    +0.000 C 
ATOM     19  C   UNL     1      43.035   5.892  10.973  0.00  0.00    +0.000 C 
BRANCH  17  24
ATOM     20  C   UNL     1      46.519   2.534   7.544  0.00  0.00    +0.000 A 
ATOM     21  C   UNL     1      45.995   1.602   8.407  0.00  0.00    +0.000 A 
ATOM     22  N   UNL     1      45.155   1.914   9.418  0.00  0.00    +0.000 NA
ATOM     23  C   UNL     1      44.836   3.212   9.574  0.00  0.00    +0.000 A 
ATOM     24  N   UNL     1      43.981   3.504  10.635  0.00  0.00    +0.000 N 
ATOM     25  N   UNL     1      45.293   4.184   8.768  0.00  0.00    +0.000 NA
ATOM     26  C   UNL     1      46.121   3.827   7.767  0.00  0.00    +0.000 A 
ATOM     27  H   UNL     1      43.958   2.675  11.216  0.00  0.00    +0.000 HD
BRANCH  20  29
ATOM     28  N   UNL     1      48.159   1.902   5.658  0.00  0.00    +0.000 NA
ATOM     29  C   UNL     1      47.419   2.187   6.502  0.00  0.00    +0.000 C 
ENDBRANCH  20  29
ENDBRANCH  17  24
ENDBRANCH   1  17
TORSDOF 6
ENDMDL
MODEL 2
REMARK VINA RESULT:    -8.079      2.054      2.407
REMARK INTER + INTRA:         -11.355
REMARK INTER:                 -10.839
REMARK INTRA:                  -0.516
REMARK UNBOUND:                -0.442
REMARK  Name = 
REMARK  6 active torsions:
REMARK  status: ('A' for Active; 'I' for Inactive)
REMARK    1  A    between atoms: C_2  and  C_3
REMARK    2  A    between atoms: N_7  and  C_8
REMARK    3  A    between atoms: C_8  and  C_9
REMARK    4  A    between atoms: C_13  and  C_14
REMARK    5  A    between atoms: C_18  and  O_19
REMARK    6  A    between atoms: O_19  and  C_20
REMARK                            x       y       z     vdW  Elec       q    Type
REMARK                         _______ _______ _______ _____ _____    ______ ____
ROOT
ATOM      1  C   UNL     1      45.372   4.990  11.851  0.00  0.00    +0.000 A 
ATOM      2  C   UNL     1      46.056   6.138  11.433  0.00  0.00    +0.000 A 
ATOM      3  C   UNL     1      47.141   6.619  12.162  0.00  0.00    +0.000 A 
ATOM      4  C   UNL     1      47.567   5.946  13.310  0.00  0.00    +0.000 A 
ATOM      5  C   UNL     1      46.957   4.750  13.722  0.00  0.00    +0.000 A 
ATOM      6  C   UNL     1      45.899   4.266  12.940  0.00  0.00    +0.000 A 
ENDROOT
BRANCH   5   7
ATOM      7  C   UNL     1      47.292   4.097  15.003  0.00  0.00    +0.000 A 
ATOM      8  C   UNL     1      46.539   4.363  16.154  0.00  0.00    +0.000 A 
ATOM      9  N   UNL     1      46.725   3.774  17.356  0.00  0.00    +0.000 NA
ATOM     10  C   UNL     1      47.704   2.849  17.425  0.00  0.00    +0.000 A 
ATOM     11  C   UNL     1      48.495   2.467  16.348  0.00  0.00    +0.000 A 
ATOM     12  C   UNL     1      48.297   3.120  15.130  0.00  0.00    +0.000 A 
BRANCH  11  13
ATOM     13  O   UNL     1      49.418   1.497  16.605  0.00  0.00    +0.000 OA
BRANCH  13  14
ATOM     14  C   UNL     1      50.523   1.891  17.399  0.00  0.00    +0.000 C 
ATOM     15  F   UNL     1      51.583   1.107  17.086  0.00  0.00    +0.000 F 
ATOM     16  F   UNL     1      50.849   3.156  17.035  0.00  0.00    +0.000 F 
ENDBRANCH  13  14
ENDBRANCH  11  13
ENDBRANCH   5   7
BRANCH   1  17
ATOM     17  C   UNL     1      43.998   4.618  11.309  0.00  0.00    +0.000 C 
ATOM     18  C   UNL     1      42.865   4.959  12.279  0.00  0.00    +0.000 C 
ATOM     19  C   UNL     1      42.994   5.716  11.000  0.00  0.00    +0.000 C 
BRANCH  17  24
ATOM     20  C   UNL     1      46.545   2.493   7.531  0.00  0.00    +0.000 A 
ATOM     21  C   UNL     1      46.002   1.527   8.342  0.00  0.00    +0.000 A 
ATOM     22  N   UNL     1      45.138   1.798   9.346  0.00  0.00    +0.000 NA
ATOM     23  C   UNL     1      44.816   3.088   9.548  0.00  0.00    +0.000 A 
ATOM     24  N   UNL     1      43.936   3.337  10.599  0.00  0.00    +0.000 N 
ATOM     25  N   UNL     1      45.291   4.092   8.793  0.00  0.00    +0.000 NA
ATOM     26  C   UNL     1      46.142   3.776   7.799  0.00  0.00    +0.000 A 
ATOM     27  H   UNL     1      43.899   2.484  11.145  0.00  0.00    +0.000 HD
BRANCH  20  29
ATOM     28  N   UNL     1      48.218   1.939   5.649  0.00  0.00    +0.000 NA
ATOM     29  C   UNL     1      47.470   2.189   6.497  0.00  0.00    +0.000 C 
ENDBRANCH  20  29
ENDBRANCH  17  24
ENDBRANCH   1  17
TORSDOF 6
ENDMDL
MODEL 3
REMARK VINA RESULT:    -7.923      3.763      4.836
REMARK INTER + INTRA:         -11.145
REMARK INTER:                 -10.280
REMARK INTRA:                  -0.865
REMARK UNBOUND:                -0.442
REMARK  Name = 
REMARK  6 active torsions:
REMARK  status: ('A' for Active; 'I' for Inactive)
REMARK    1  A    between atoms: C_2  and  C_3
REMARK    2  A    between atoms: N_7  and  C_8
REMARK    3  A    between atoms: C_8  and  C_9
REMARK    4  A    between atoms: C_13  and  C_14
REMARK    5  A    between atoms: C_18  and  O_19
REMARK    6  A    between atoms: O_19  and  C_20
REMARK                            x       y       z     vdW  Elec       q    Type
REMARK                         _______ _______ _______ _____ _____    ______ ____
ROOT
ATOM      1  C   UNL     1      44.940   5.057  12.286  0.00  0.00    +0.000 A 
ATOM      2  C   UNL     1      45.401   4.004  13.085  0.00  0.00    +0.000 A 
ATOM      3  C   UNL     1      46.684   4.037  13.627  0.00  0.00    +0.000 A 
ATOM      4  C   UNL     1      47.516   5.133  13.389  0.00  0.00    +0.000 A 
ATOM      5  C   UNL     1      47.066   6.244  12.656  0.00  0.00    +0.000 A 
ATOM      6  C   UNL     1      45.754   6.201  12.165  0.00  0.00    +0.000 A 
ENDROOT
BRANCH   5   7
ATOM      7  C   UNL     1      47.967   7.349  12.271  0.00  0.00    +0.000 A 
ATOM      8  C   UNL     1      47.465   8.644  12.088  0.00  0.00    +0.000 A 
ATOM      9  N   UNL     1      48.213   9.732  11.796  0.00  0.00    +0.000 NA
ATOM     10  C   UNL     1      49.543   9.536  11.697  0.00  0.00    +0.000 A 
ATOM     11  C   UNL     1      50.169   8.310  11.893  0.00  0.00    +0.000 A 
ATOM     12  C   UNL     1      49.362   7.202  12.161  0.00  0.00    +0.000 A 
BRANCH  11  13
ATOM     13  O   UNL     1      51.527   8.312  11.775  0.00  0.00    +0.000 OA
BRANCH  13  14
ATOM     14  C   UNL     1      52.032   8.231  10.454  0.00  0.00    +0.000 C 
ATOM     15  F   UNL     1      53.372   8.428  10.489  0.00  0.00    +0.000 F 
ATOM     16  F   UNL     1      51.833   6.960  10.025  0.00  0.00    +0.000 F 
ENDBRANCH  13  14
ENDBRANCH  11  13
ENDBRANCH   5   7
BRANCH   1  17
ATOM     17  C   UNL     1      43.708   4.928  11.401  0.00  0.00    +0.000 C 
ATOM     18  C   UNL     1      42.446   5.498  12.052  0.00  0.00    +0.000 C 
ATOM     19  C   UNL     1      43.036   6.183  10.866  0.00  0.00    +0.000 C 
BRANCH  17  24
ATOM     20  C   UNL     1      46.376   2.608   7.826  0.00  0.00    +0.000 A 
ATOM     21  C   UNL     1      45.683   1.689   8.576  0.00  0.00    +0.000 A 
ATOM     22  N   UNL     1      44.763   2.029   9.506  0.00  0.00    +0.000 NA
ATOM     23  C   UNL     1      44.537   3.342   9.696  0.00  0.00    +0.000 A 
ATOM     24  N   UNL     1      43.595   3.661  10.671  0.00  0.00    +0.000 N 
ATOM     25  N   UNL     1      45.161   4.304   8.997  0.00  0.00    +0.000 NA
ATOM     26  C   UNL     1      46.064   3.920   8.075  0.00  0.00    +0.000 A 
ATOM     27  H   UNL     1      43.438   2.812  11.202  0.00  0.00    +0.000 HD
BRANCH  20  29
ATOM     28  N   UNL     1      48.160   1.923   6.097  0.00  0.00    +0.000 NA
ATOM     29  C   UNL     1      47.356   2.230   6.871  0.00  0.00    +0.000 C 
ENDBRANCH  20  29
ENDBRANCH  17  24
ENDBRANCH   1  17
TORSDOF 6
ENDMDL
MODEL 4
REMARK VINA RESULT:    -7.706      4.807      8.813
REMARK INTER + INTRA:         -10.851
REMARK INTER:                 -10.141
REMARK INTRA:                  -0.710
REMARK UNBOUND:                -0.442
REMARK  Name = 
REMARK  6 active torsions:
REMARK  status: ('A' for Active; 'I' for Inactive)
REMARK    1  A    between atoms: C_2  and  C_3
REMARK    2  A    between atoms: N_7  and  C_8
REMARK    3  A    between atoms: C_8  and  C_9
REMARK    4  A    between atoms: C_13  and  C_14
REMARK    5  A    between atoms: C_18  and  O_19
REMARK    6  A    between atoms: O_19  and  C_20
REMARK                            x       y       z     vdW  Elec       q    Type
REMARK                         _______ _______ _______ _____ _____    ______ ____
ROOT
ATOM      1  C   UNL     1      47.430   7.732  12.465  0.00  0.00    +0.000 A 
ATOM      2  C   UNL     1      46.517   8.784  12.601  0.00  0.00    +0.000 A 
ATOM      3  C   UNL     1      45.224   8.668  12.096  0.00  0.00    +0.000 A 
ATOM      4  C   UNL     1      44.824   7.488  11.464  0.00  0.00    +0.000 A 
ATOM      5  C   UNL     1      45.684   6.381  11.372  0.00  0.00    +0.000 A 
ATOM      6  C   UNL     1      46.962   6.514  11.933  0.00  0.00    +0.000 A 
ENDROOT
BRANCH   5   7
ATOM      7  C   UNL     1      45.339   5.179  10.588  0.00  0.00    +0.000 A 
ATOM      8  C   UNL     1      44.595   4.143  11.166  0.00  0.00    +0.000 A 
ATOM      9  N   UNL     1      44.176   3.033  10.519  0.00  0.00    +0.000 NA
ATOM     10  C   UNL     1      44.495   2.946   9.211  0.00  0.00    +0.000 A 
ATOM     11  C   UNL     1      45.195   3.922   8.511  0.00  0.00    +0.000 A 
ATOM     12  C   UNL     1      45.639   5.040   9.220  0.00  0.00    +0.000 A 
BRANCH  11  13
ATOM     13  O   UNL     1      45.401   3.669   7.188  0.00  0.00    +0.000 OA
BRANCH  13  14
ATOM     14  C   UNL     1      46.742   3.413   6.810  0.00  0.00    +0.000 C 
ATOM     15  F   UNL     1      47.197   2.349   7.515  0.00  0.00    +0.000 F 
ATOM     16  F   UNL     1      46.729   3.043   5.505  0.00  0.00    +0.000 F 
ENDBRANCH  13  14
ENDBRANCH  11  13
ENDBRANCH   5   7
BRANCH   1  17
ATOM     17  C   UNL     1      48.926   7.920  12.680  0.00  0.00    +0.000 C 
ATOM     18  C   UNL     1      49.681   8.214  11.382  0.00  0.00    +0.000 C 
ATOM     19  C   UNL     1      49.555   9.279  12.419  0.00  0.00    +0.000 C 
BRANCH  17  24
ATOM     20  C   UNL     1      48.645   7.212  17.650  0.00  0.00    +0.000 A 
ATOM     21  C   UNL     1      48.998   6.043  17.022  0.00  0.00    +0.000 A 
ATOM     22  N   UNL     1      49.300   5.967  15.706  0.00  0.00    +0.000 NA
ATOM     23  C   UNL     1      49.236   7.107  14.995  0.00  0.00    +0.000 A 
ATOM     24  N   UNL     1      49.538   6.994  13.639  0.00  0.00    +0.000 N 
ATOM     25  N   UNL     1      48.913   8.294  15.533  0.00  0.00    +0.000 NA
ATOM     26  C   UNL     1      48.628   8.325  16.849  0.00  0.00    +0.000 A 
ATOM     27  H   UNL     1      49.525   6.003  13.428  0.00  0.00    +0.000 HD
BRANCH  20  29
ATOM     28  N   UNL     1      48.029   7.315  20.151  0.00  0.00    +0.000 NA
ATOM     29  C   UNL     1      48.308   7.265  19.028  0.00  0.00    +0.000 C 
ENDBRANCH  20  29
ENDBRANCH  17  24
ENDBRANCH   1  17
TORSDOF 6
ENDMDL
MODEL 5
REMARK VINA RESULT:    -7.354      2.582      3.422
REMARK INTER + INTRA:         -10.376
REMARK INTER:                  -9.695
REMARK INTRA:                  -0.681
REMARK UNBOUND:                -0.442
REMARK  Name = 
REMARK  6 active torsions:
REMARK  status: ('A' for Active; 'I' for Inactive)
REMARK    1  A    between atoms: C_2  and  C_3
REMARK    2  A    between atoms: N_7  and  C_8
REMARK    3  A    between atoms: C_8  and  C_9
REMARK    4  A    between atoms: C_13  and  C_14
REMARK    5  A    between atoms: C_18  and  O_19
REMARK    6  A    between atoms: O_19  and  C_20
REMARK                            x       y       z     vdW  Elec       q    Type
REMARK                         _______ _______ _______ _____ _____    ______ ____
ROOT
ATOM      1  C   UNL     1      45.003   4.738  12.280  0.00  0.00    +0.000 A 
ATOM      2  C   UNL     1      45.490   3.574  12.887  0.00  0.00    +0.000 A 
ATOM      3  C   UNL     1      46.713   3.582  13.554  0.00  0.00    +0.000 A 
ATOM      4  C   UNL     1      47.457   4.762  13.636  0.00  0.00    +0.000 A 
ATOM      5  C   UNL     1      46.971   5.969  13.106  0.00  0.00    +0.000 A 
ATOM      6  C   UNL     1      45.715   5.937  12.483  0.00  0.00    +0.000 A 
ENDROOT
BRANCH   5   7
ATOM      7  C   UNL     1      47.795   7.192  13.053  0.00  0.00    +0.000 A 
ATOM      8  C   UNL     1      48.020   7.846  11.835  0.00  0.00    +0.000 A 
ATOM      9  N   UNL     1      48.706   9.001  11.689  0.00  0.00    +0.000 NA
ATOM     10  C   UNL     1      49.186   9.560  12.819  0.00  0.00    +0.000 A 
ATOM     11  C   UNL     1      48.999   9.033  14.091  0.00  0.00    +0.000 A 
ATOM     12  C   UNL     1      48.313   7.822  14.200  0.00  0.00    +0.000 A 
BRANCH  11  13
ATOM     13  O   UNL     1      49.537   9.753  15.115  0.00  0.00    +0.000 OA
BRANCH  13  14
ATOM     14  C   UNL     1      48.841   9.689  16.347  0.00  0.00    +0.000 C 
ATOM     15  F   UNL     1      49.722   9.377  17.328  0.00  0.00    +0.000 F 
ATOM     16  F   UNL     1      48.381  10.937  16.615  0.00  0.00    +0.000 F 
ENDBRANCH  13  14
ENDBRANCH  11  13
ENDBRANCH   5   7
BRANCH   1  17
ATOM     17  C   UNL     1      43.869   4.713  11.264  0.00  0.00    +0.000 C 
ATOM     18  C   UNL     1      42.587   5.361  11.790  0.00  0.00    +0.000 C 
ATOM     19  C   UNL     1      43.349   6.022  10.691  0.00  0.00    +0.000 C 
BRANCH  17  24
ATOM     20  C   UNL     1      46.512   2.495   7.608  0.00  0.00    +0.000 A 
ATOM     21  C   UNL     1      45.819   1.555   8.331  0.00  0.00    +0.000 A 
ATOM     22  N   UNL     1      44.904   1.870   9.276  0.00  0.00    +0.000 NA
ATOM     23  C   UNL     1      44.685   3.177   9.507  0.00  0.00    +0.000 A 
ATOM     24  N   UNL     1      43.748   3.470  10.496  0.00  0.00    +0.000 N 
ATOM     25  N   UNL     1      45.310   4.158   8.836  0.00  0.00    +0.000 NA
ATOM     26  C   UNL     1      46.207   3.799   7.898  0.00  0.00    +0.000 A 
ATOM     27  H   UNL     1      43.590   2.605  11.000  0.00  0.00    +0.000 HD
BRANCH  20  29
ATOM     28  N   UNL     1      48.287   1.859   5.849  0.00  0.00    +0.000 NA
ATOM     29  C   UNL     1      47.487   2.142   6.637  0.00  0.00    +0.000 C 
ENDBRANCH  20  29
ENDBRANCH  17  24
ENDBRANCH   1  17
TORSDOF 6
ENDMDL
MODEL 6
REMARK VINA RESULT:    -7.334      1.798      1.922
REMARK INTER + INTRA:         -10.349
REMARK INTER:                  -9.752
REMARK INTRA:                  -0.597
REMARK UNBOUND:                -0.442
REMARK  Name = 
REMARK  6 active torsions:
REMARK  status: ('A' for Active; 'I' for Inactive)
REMARK    1  A    between atoms: C_2  and  C_3
REMARK    2  A    between atoms: N_7  and  C_8
REMARK    3  A    between atoms: C_8  and  C_9
REMARK    4  A    between atoms: C_13  and  C_14
REMARK    5  A    between atoms: C_18  and  O_19
REMARK    6  A    between atoms: O_19  and  C_20
REMARK                            x       y       z     vdW  Elec       q    Type
REMARK                         _______ _______ _______ _____ _____    ______ ____
ROOT
ATOM      1  C   UNL     1      45.064   5.488  12.061  0.00  0.00    +0.000 A 
ATOM      2  C   UNL     1      45.401   6.701  11.449  0.00  0.00    +0.000 A 
ATOM      3  C   UNL     1      46.444   7.479  11.947  0.00  0.00    +0.000 A 
ATOM      4  C   UNL     1      47.173   7.042  13.056  0.00  0.00    +0.000 A 
ATOM      5  C   UNL     1      46.917   5.797  13.653  0.00  0.00    +0.000 A 
ATOM      6  C   UNL     1      45.894   5.017  13.098  0.00  0.00    +0.000 A 
ENDROOT
BRANCH   5   7
ATOM      7  C   UNL     1      47.575   5.376  14.907  0.00  0.00    +0.000 A 
ATOM      8  C   UNL     1      47.300   4.123  15.467  0.00  0.00    +0.000 A 
ATOM      9  N   UNL     1      47.892   3.621  16.574  0.00  0.00    +0.000 NA
ATOM     10  C   UNL     1      48.830   4.395  17.156  0.00  0.00    +0.000 A 
ATOM     11  C   UNL     1      49.221   5.640  16.677  0.00  0.00    +0.000 A 
ATOM     12  C   UNL     1      48.565   6.141  15.551  0.00  0.00    +0.000 A 
BRANCH  11  13
ATOM     13  O   UNL     1      50.204   6.265  17.386  0.00  0.00    +0.000 OA
BRANCH  13  14
ATOM     14  C   UNL     1      51.515   6.142  16.864  0.00  0.00    +0.000 C 
ATOM     15  F   UNL     1      51.722   7.139  15.970  0.00  0.00    +0.000 F 
ATOM     16  F   UNL     1      52.377   6.349  17.890  0.00  0.00    +0.000 F 
ENDBRANCH  13  14
ENDBRANCH  11  13
ENDBRANCH   5   7
BRANCH   1  17
ATOM     17  C   UNL     1      43.746   4.775  11.785  0.00  0.00    +0.000 C 
ATOM     18  C   UNL     1      42.737   4.933  12.925  0.00  0.00    +0.000 C 
ATOM     19  C   UNL     1      42.476   5.592  11.613  0.00  0.00    +0.000 C 
BRANCH  17  24
ATOM     20  C   UNL     1      45.895   3.012   7.596  0.00  0.00    +0.000 A 
ATOM     21  C   UNL     1      45.809   2.019   8.542  0.00  0.00    +0.000 A 
ATOM     22  N   UNL     1      45.138   2.158   9.708  0.00  0.00    +0.000 NA
ATOM     23  C   UNL     1      44.541   3.341   9.935  0.00  0.00    +0.000 A 
ATOM     24  N   UNL     1      43.871   3.459  11.151  0.00  0.00    +0.000 N 
ATOM     25  N   UNL     1      44.565   4.359   9.059  0.00  0.00    +0.000 NA
ATOM     26  C   UNL     1      45.237   4.174   7.907  0.00  0.00    +0.000 A 
ATOM     27  H   UNL     1      44.175   2.677  11.719  0.00  0.00    +0.000 HD
BRANCH  20  29
ATOM     28  N   UNL     1      47.214   2.725   5.400  0.00  0.00    +0.000 NA
ATOM     29  C   UNL     1      46.625   2.853   6.389  0.00  0.00    +0.000 C 
ENDBRANCH  20  29
ENDBRANCH  17  24
ENDBRANCH   1  17
TORSDOF 6
ENDMDL
MODEL 7
REMARK VINA RESULT:    -6.712      2.336      3.339
REMARK INTER + INTRA:          -9.508
REMARK INTER:                  -8.708
REMARK INTRA:                  -0.800
REMARK UNBOUND:                -0.442
REMARK  Name = 
REMARK  6 active torsions:
REMARK  status: ('A' for Active; 'I' for Inactive)
REMARK    1  A    between atoms: C_2  and  C_3
REMARK    2  A    between atoms: N_7  and  C_8
REMARK    3  A    between atoms: C_8  and  C_9
REMARK    4  A    between atoms: C_13  and  C_14
REMARK    5  A    between atoms: C_18  and  O_19
REMARK    6  A    between atoms: O_19  and  C_20
REMARK                            x       y       z     vdW  Elec       q    Type
REMARK                         _______ _______ _______ _____ _____    ______ ____
ROOT
ATOM      1  C   UNL     1      46.866   7.594  12.387  0.00  0.00    +0.000 A 
ATOM      2  C   UNL     1      47.923   8.009  11.567  0.00  0.00    +0.000 A 
ATOM      3  C   UNL     1      49.237   7.959  12.028  0.00  0.00    +0.000 A 
ATOM      4  C   UNL     1      49.511   7.475  13.310  0.00  0.00    +0.000 A 
ATOM      5  C   UNL     1      48.488   6.979  14.136  0.00  0.00    +0.000 A 
ATOM      6  C   UNL     1      47.183   6.999  13.625  0.00  0.00    +0.000 A 
ENDROOT
BRANCH   5   7
ATOM      7  C   UNL     1      48.729   6.597  15.541  0.00  0.00    +0.000 A 
ATOM      8  C   UNL     1      49.231   7.531  16.456  0.00  0.00    +0.000 A 
ATOM      9  N   UNL     1      49.428   7.299  17.773  0.00  0.00    +0.000 NA
ATOM     10  C   UNL     1      49.092   6.073  18.223  0.00  0.00    +0.000 A 
ATOM     11  C   UNL     1      48.550   5.071  17.427  0.00  0.00    +0.000 A 
ATOM     12  C   UNL     1      48.390   5.335  16.065  0.00  0.00    +0.000 A 
BRANCH  11  13
ATOM     13  O   UNL     1      48.250   3.904  18.065  0.00  0.00    +0.000 OA
BRANCH  13  14
ATOM     14  C   UNL     1      47.654   2.898  17.265  0.00  0.00    +0.000 C 
ATOM     15  F   UNL     1      48.615   2.022  16.883  0.00  0.00    +0.000 F 
ATOM     16  F   UNL     1      46.790   2.214  18.056  0.00  0.00    +0.000 F 
ENDBRANCH  13  14
ENDBRANCH  11  13
ENDBRANCH   5   7
BRANCH   1  17
ATOM     17  C   UNL     1      45.415   7.939  12.081  0.00  0.00    +0.000 C 
ATOM     18  C   UNL     1      44.995   9.296  12.651  0.00  0.00    +0.000 C 
ATOM     19  C   UNL     1      45.101   9.118  11.174  0.00  0.00    +0.000 C 
BRANCH  17  24
ATOM     20  C   UNL     1      44.994   3.387   9.989  0.00  0.00    +0.000 A 
ATOM     21  C   UNL     1      44.383   3.404  11.219  0.00  0.00    +0.000 A 
ATOM     22  N   UNL     1      44.202   4.531  11.944  0.00  0.00    +0.000 NA
ATOM     23  C   UNL     1      44.660   5.681  11.417  0.00  0.00    +0.000 A 
ATOM     24  N   UNL     1      44.472   6.822  12.194  0.00  0.00    +0.000 N 
ATOM     25  N   UNL     1      45.257   5.754  10.216  0.00  0.00    +0.000 NA
ATOM     26  C   UNL     1      45.409   4.609   9.525  0.00  0.00    +0.000 A 
ATOM     27  H   UNL     1      44.220   6.496  13.120  0.00  0.00    +0.000 HD
BRANCH  20  29
ATOM     28  N   UNL     1      45.366   1.215   8.651  0.00  0.00    +0.000 NA
ATOM     29  C   UNL     1      45.196   2.189   9.255  0.00  0.00    +0.000 C 
ENDBRANCH  20  29
ENDBRANCH  17  24
ENDBRANCH   1  17
TORSDOF 6
ENDMDL
MODEL 8
REMARK VINA RESULT:    -6.516      4.324      8.278
REMARK INTER + INTRA:          -9.245
REMARK INTER:                  -8.422
REMARK INTRA:                  -0.822
REMARK UNBOUND:                -0.442
REMARK  Name = 
REMARK  6 active torsions:
REMARK  status: ('A' for Active; 'I' for Inactive)
REMARK    1  A    between atoms: C_2  and  C_3
REMARK    2  A    between atoms: N_7  and  C_8
REMARK    3  A    between atoms: C_8  and  C_9
REMARK    4  A    between atoms: C_13  and  C_14
REMARK    5  A    between atoms: C_18  and  O_19
REMARK    6  A    between atoms: O_19  and  C_20
REMARK                            x       y       z     vdW  Elec       q    Type
REMARK                         _______ _______ _______ _____ _____    ______ ____
ROOT
ATOM      1  C   UNL     1      49.166   8.090  15.181  0.00  0.00    +0.000 A 
ATOM      2  C   UNL     1      50.216   8.422  14.316  0.00  0.00    +0.000 A 
ATOM      3  C   UNL     1      50.237   7.936  13.011  0.00  0.00    +0.000 A 
ATOM      4  C   UNL     1      49.196   7.126  12.549  0.00  0.00    +0.000 A 
ATOM      5  C   UNL     1      48.087   6.831  13.360  0.00  0.00    +0.000 A 
ATOM      6  C   UNL     1      48.074   7.374  14.652  0.00  0.00    +0.000 A 
ENDROOT
BRANCH   5   7
ATOM      7  C   UNL     1      47.048   5.866  12.949  0.00  0.00    +0.000 A 
ATOM      8  C   UNL     1      46.602   4.881  13.839  0.00  0.00    +0.000 A 
ATOM      9  N   UNL     1      45.616   3.993  13.583  0.00  0.00    +0.000 NA
ATOM     10  C   UNL     1      45.016   4.094  12.379  0.00  0.00    +0.000 A 
ATOM     11  C   UNL     1      45.339   5.050  11.423  0.00  0.00    +0.000 A 
ATOM     12  C   UNL     1      46.385   5.930  11.710  0.00  0.00    +0.000 A 
BRANCH  11  13
ATOM     13  O   UNL     1      44.606   5.011  10.275  0.00  0.00    +0.000 OA
BRANCH  13  14
ATOM     14  C   UNL     1      45.193   4.314   9.190  0.00  0.00    +0.000 C 
ATOM     15  F   UNL     1      44.235   4.060   8.267  0.00  0.00    +0.000 F 
ATOM     16  F   UNL     1      46.086   5.154   8.609  0.00  0.00    +0.000 F 
ENDBRANCH  13  14
ENDBRANCH  11  13
ENDBRANCH   5   7
BRANCH   1  17
ATOM     17  C   UNL     1      49.256   8.298  16.688  0.00  0.00    +0.000 C 
ATOM     18  C   UNL     1      48.858   9.711  17.117  0.00  0.00    +0.000 C 
ATOM     19  C   UNL     1      47.987   8.557  17.484  0.00  0.00    +0.000 C 
BRANCH  17  24
ATOM     20  C   UNL     1      50.864   3.594  17.439  0.00  0.00    +0.000 A 
ATOM     21  C   UNL     1      51.927   4.464  17.428  0.00  0.00    +0.000 A 
ATOM     22  N   UNL     1      51.786   5.809  17.400  0.00  0.00    +0.000 NA
ATOM     23  C   UNL     1      50.533   6.295  17.375  0.00  0.00    +0.000 A 
ATOM     24  N   UNL     1      50.421   7.683  17.331  0.00  0.00    +0.000 N 
ATOM     25  N   UNL     1      49.440   5.515  17.398  0.00  0.00    +0.000 NA
ATOM     26  C   UNL     1      49.625   4.182  17.433  0.00  0.00    +0.000 A 
ATOM     27  H   UNL     1      51.343   8.034  17.097  0.00  0.00    +0.000 HD
BRANCH  20  29
ATOM     28  N   UNL     1      51.178   1.035  17.443  0.00  0.00    +0.000 NA
ATOM     29  C   UNL     1      51.033   2.184  17.444  0.00  0.00    +0.000 C 
ENDBRANCH  20  29
ENDBRANCH  17  24
ENDBRANCH   1  17
TORSDOF 6
ENDMDL
MODEL 9
REMARK VINA RESULT:    -5.972      5.446      7.784
REMARK INTER + INTRA:          -8.509
REMARK INTER:                  -7.996
REMARK INTRA:                  -0.513
REMARK UNBOUND:                -0.442
REMARK  Name = 
REMARK  6 active torsions:
REMARK  status: ('A' for Active; 'I' for Inactive)
REMARK    1  A    between atoms: C_2  and  C_3
REMARK    2  A    between atoms: N_7  and  C_8
REMARK    3  A    between atoms: C_8  and  C_9
REMARK    4  A    between atoms: C_13  and  C_14
REMARK    5  A    between atoms: C_18  and  O_19
REMARK    6  A    between atoms: O_19  and  C_20
REMARK                            x       y       z     vdW  Elec       q    Type
REMARK                         _______ _______ _______ _____ _____    ______ ____
ROOT
ATOM      1  C   UNL     1      48.032   7.400  13.087  0.00  0.00    +0.000 A 
ATOM      2  C   UNL     1      48.549   6.983  14.319  0.00  0.00    +0.000 A 
ATOM      3  C   UNL     1      48.027   5.863  14.962  0.00  0.00    +0.000 A 
ATOM      4  C   UNL     1      46.989   5.138  14.372  0.00  0.00    +0.000 A 
ATOM      5  C   UNL     1      46.492   5.478  13.102  0.00  0.00    +0.000 A 
ATOM      6  C   UNL     1      47.072   6.580  12.460  0.00  0.00    +0.000 A 
ENDROOT
BRANCH   5   7
ATOM      7  C   UNL     1      45.306   4.818  12.520  0.00  0.00    +0.000 A 
ATOM      8  C   UNL     1      44.017   5.238  12.870  0.00  0.00    +0.000 A 
ATOM      9  N   UNL     1      42.871   4.743  12.349  0.00  0.00    +0.000 NA
ATOM     10  C   UNL     1      43.006   3.785  11.408  0.00  0.00    +0.000 A 
ATOM     11  C   UNL     1      44.227   3.310  10.947  0.00  0.00    +0.000 A 
ATOM     12  C   UNL     1      45.388   3.821  11.531  0.00  0.00    +0.000 A 
BRANCH  11  13
ATOM     13  O   UNL     1      44.163   2.358   9.974  0.00  0.00    +0.000 OA
BRANCH  13  14
ATOM     14  C   UNL     1      45.236   2.347   9.049  0.00  0.00    +0.000 C 
ATOM     15  F   UNL     1      45.457   1.069   8.656  0.00  0.00    +0.000 F 
ATOM     16  F   UNL     1      44.827   3.030   7.951  0.00  0.00    +0.000 F 
ENDBRANCH  13  14
ENDBRANCH  11  13
ENDBRANCH   5   7
BRANCH   1  17
ATOM     17  C   UNL     1      48.316   8.781  12.510  0.00  0.00    +0.000 C 
ATOM     18  C   UNL     1      47.061   9.649  12.402  0.00  0.00    +0.000 C 
ATOM     19  C   UNL     1      48.123  10.011  13.384  0.00  0.00    +0.000 C 
BRANCH  17  24
ATOM     20  C   UNL     1      53.277   8.122  12.035  0.00  0.00    +0.000 A 
ATOM     21  C   UNL     1      52.641   7.815  10.857  0.00  0.00    +0.000 A 
ATOM     22  N   UNL     1      51.326   8.045  10.640  0.00  0.00    +0.000 NA
ATOM     23  C   UNL     1      50.625   8.596  11.646  0.00  0.00    +0.000 A 
ATOM     24  N   UNL     1      49.270   8.806  11.398  0.00  0.00    +0.000 N 
ATOM     25  N   UNL     1      51.172   8.939  12.824  0.00  0.00    +0.000 NA
ATOM     26  C   UNL     1      52.486   8.699  12.994  0.00  0.00    +0.000 A 
ATOM     27  H   UNL     1      49.050   8.277  10.562  0.00  0.00    +0.000 HD
BRANCH  20  29
ATOM     28  N   UNL     1      55.775   7.627  12.435  0.00  0.00    +0.000 NA
ATOM     29  C   UNL     1      54.654   7.850  12.251  0.00  0.00    +0.000 C 
ENDBRANCH  20  29
ENDBRANCH  17  24
ENDBRANCH   1  17
TORSDOF 6
ENDMDL
