MODEL 1
REMARK VINA RESULT:    -8.717      0.000      0.000
REMARK INTER + INTRA:         -11.806
REMARK INTER:                 -11.265
REMARK INTRA:                  -0.541
REMARK UNBOUND:                -0.541
REMARK  Name = 
REMARK  5 active torsions:
REMARK  status: ('A' for Active; 'I' for Inactive)
REMARK    1  A    between atoms: C_2  and  C_4
REMARK    2  A    between atoms: C_7  and  O_8
REMARK    3  A    between atoms: O_8  and  C_9
REMARK    4  A    between atoms: C_9  and  C_10
REMARK    5  A    between atoms: C_14  and  C_15
REMARK                            x       y       z     vdW  Elec       q    Type
REMARK                         _______ _______ _______ _____ _____    ______ ____
ROOT
ATOM      1  C   UNL     1      43.876   3.282  11.540  0.00  0.00    +0.000 C 
ENDROOT
BRANCH   1   2
ATOM      2  C   UNL     1      45.033   3.974  12.221  0.00  0.00    +0.000 A 
ATOM      3  N   UNL     1      45.814   3.244  13.024  0.00  0.00    +0.000 NA
ATOM      4  C   UNL     1      46.786   3.925  13.624  0.00  0.00    +0.000 A 
ATOM      5  N   UNL     1      47.028   5.225  13.491  0.00  0.00    +0.000 NA
ATOM      6  C   UNL     1      46.198   5.866  12.663  0.00  0.00    +0.000 A 
ATOM      7  N   UNL     1      45.188   5.287  12.006  0.00  0.00    +0.000 NA
BRANCH   6   8
ATOM      8  C   UNL     1      46.401   7.319  12.472  0.00  0.00    +0.000 A 
ATOM      9  C   UNL     1      47.683   7.856  12.228  0.00  0.00    +0.000 A 
ATOM     10  C   UNL     1      47.879   9.229  12.046  0.00  0.00    +0.000 A 
ATOM     11  C   UNL     1      46.793  10.088  12.103  0.00  0.00    +0.000 A 
ATOM     12  F   UNL     1      46.978  11.402  11.925  0.00  0.00    +0.000 F 
ATOM     13  C   UNL     1      45.515   9.602  12.342  0.00  0.00    +0.000 A 
ATOM     14  C   UNL     1      45.323   8.228  12.526  0.00  0.00    +0.000 A 
ENDBRANCH   6   8
ENDBRANCH   1   2
BRANCH   1  15
ATOM     15  O   UNL     1      43.635   3.867  10.254  0.00  0.00    +0.000 OA
BRANCH  15  19
ATOM     16  C   UNL     1      46.450   2.619   7.518  0.00  0.00    +0.000 A 
ATOM     17  C   UNL     1      45.857   1.687   8.372  0.00  0.00    +0.000 A 
ATOM     18  C   UNL     1      44.904   2.120   9.298  0.00  0.00    +0.000 A 
ATOM     19  C   UNL     1      44.581   3.470   9.331  0.00  0.00    +0.000 A 
ATOM     20  N   UNL     1      45.144   4.391   8.522  0.00  0.00    +0.000 NA
ATOM     21  C   UNL     1      46.073   3.949   7.641  0.00  0.00    +0.000 A 
BRANCH  16  23
ATOM     22  N   UNL     1      47.516   3.032   5.374  0.00  0.00    +0.000 N 
ATOM     23  C   UNL     1      47.471   2.274   6.509  0.00  0.00    +0.000 C 
ATOM     24  O   UNL     1      48.274   1.370   6.699  0.00  0.00    +0.000 OA
ATOM     25  H   UNL     1      48.296   2.854   4.752  0.00  0.00    +0.000 HD
ATOM     26  H   UNL     1      47.055   3.927   5.296  0.00  0.00    +0.000 HD
ENDBRANCH  16  23
ENDBRANCH  15  19
ENDBRANCH   1  15
TORSDOF 5
ENDMDL
MODEL 2
REMARK VINA RESULT:    -8.388      2.877      4.216
REMARK INTER + INTRA:         -11.382
REMARK INTER:                 -10.812
REMARK INTRA:                  -0.570
REMARK UNBOUND:                -0.541
REMARK  Name = 
REMARK  5 active torsions:
REMARK  status: ('A' for Active; 'I' for Inactive)
REMARK    1  A    between atoms: C_2  and  C_4
REMARK    2  A    between atoms: C_7  and  O_8
REMARK    3  A    between atoms: O_8  and  C_9
REMARK    4  A    between atoms: C_9  and  C_10
REMARK    5  A    between atoms: C_14  and  C_15
REMARK                            x       y       z     vdW  Elec       q    Type
REMARK                         _______ _______ _______ _____ _____    ______ ____
ROOT
ATOM      1  C   UNL     1      44.062   3.729  11.789  0.00  0.00    +0.000 C 
ENDROOT
BRANCH   1   2
ATOM      2  C   UNL     1      45.041   4.681  12.437  0.00  0.00    +0.000 A 
ATOM      3  N   UNL     1      45.179   5.898  11.901  0.00  0.00    +0.000 NA
ATOM      4  C   UNL     1      46.087   6.666  12.494  0.00  0.00    +0.000 A 
ATOM      5  N   UNL     1      46.838   6.328  13.536  0.00  0.00    +0.000 NA
ATOM      6  C   UNL     1      46.623   5.095  14.003  0.00  0.00    +0.000 A 
ATOM      7  N   UNL     1      45.738   4.236  13.490  0.00  0.00    +0.000 NA
BRANCH   6   8
ATOM      8  C   UNL     1      47.430   4.645  15.159  0.00  0.00    +0.000 A 
ATOM      9  C   UNL     1      48.177   5.558  15.934  0.00  0.00    +0.000 A 
ATOM     10  C   UNL     1      48.941   5.137  17.028  0.00  0.00    +0.000 A 
ATOM     11  C   UNL     1      48.967   3.793  17.365  0.00  0.00    +0.000 A 
ATOM     12  F   UNL     1      49.695   3.388  18.414  0.00  0.00    +0.000 F 
ATOM     13  C   UNL     1      48.249   2.861  16.629  0.00  0.00    +0.000 A 
ATOM     14  C   UNL     1      47.488   3.286  15.534  0.00  0.00    +0.000 A 
ENDBRANCH   6   8
ENDBRANCH   1   2
BRANCH   1  15
ATOM     15  O   UNL     1      43.790   4.137  10.442  0.00  0.00    +0.000 OA
BRANCH  15  19
ATOM     16  C   UNL     1      46.425   2.463   7.755  0.00  0.00    +0.000 A 
ATOM     17  C   UNL     1      46.229   3.845   7.761  0.00  0.00    +0.000 A 
ATOM     18  C   UNL     1      45.332   4.404   8.674  0.00  0.00    +0.000 A 
ATOM     19  C   UNL     1      44.667   3.555   9.550  0.00  0.00    +0.000 A 
ATOM     20  N   UNL     1      44.832   2.217   9.560  0.00  0.00    +0.000 NA
ATOM     21  C   UNL     1      45.699   1.698   8.658  0.00  0.00    +0.000 A 
BRANCH  16  23
ATOM     22  N   UNL     1      48.428   2.461   6.379  0.00  0.00    +0.000 N 
ATOM     23  C   UNL     1      47.342   1.767   6.830  0.00  0.00    +0.000 C 
ATOM     24  O   UNL     1      47.159   0.600   6.511  0.00  0.00    +0.000 OA
ATOM     25  H   UNL     1      49.103   1.929   5.843  0.00  0.00    +0.000 HD
ATOM     26  H   UNL     1      48.748   3.316   6.812  0.00  0.00    +0.000 HD
ENDBRANCH  16  23
ENDBRANCH  15  19
ENDBRANCH   1  15
TORSDOF 5
ENDMDL
MODEL 3
REMARK VINA RESULT:    -8.256      3.518      6.820
REMARK INTER + INTRA:         -11.210
REMARK INTER:                 -10.486
REMARK INTRA:                  -0.724
REMARK UNBOUND:                -0.541
REMARK  Name = 
REMARK  5 active torsions:
REMARK  status: ('A' for Active; 'I' for Inactive)
REMARK    1  A    between atoms: C_2  and  C_4
REMARK    2  A    between atoms: C_7  and  O_8
REMARK    3  A    between atoms: O_8  and  C_9
REMARK    4  A    between atoms: C_9  and  C_10
REMARK    5  A    between atoms: C_14  and  C_15
REMARK                            x       y       z     vdW  Elec       q    Type
REMARK                         _______ _______ _______ _____ _____    ______ ____
ROOT
ATOM      1  C   UNL     1      43.541   6.189  11.488  0.00  0.00    +0.000 C 
ENDROOT
BRANCH   1   2
ATOM      2  C   UNL     1      43.692   4.748  11.059  0.00  0.00    +0.000 A 
ATOM      3  N   UNL     1      43.032   3.815  11.754  0.00  0.00    +0.000 NA
ATOM      4  C   UNL     1      43.245   2.567  11.349  0.00  0.00    +0.000 A 
ATOM      5  N   UNL     1      44.033   2.192  10.348  0.00  0.00    +0.000 NA
ATOM      6  C   UNL     1      44.644   3.195   9.712  0.00  0.00    +0.000 A 
ATOM      7  N   UNL     1      44.506   4.487  10.028  0.00  0.00    +0.000 NA
BRANCH   6   8
ATOM      8  C   UNL     1      45.546   2.854   8.590  0.00  0.00    +0.000 A 
ATOM      9  C   UNL     1      45.957   3.828   7.655  0.00  0.00    +0.000 A 
ATOM     10  C   UNL     1      46.811   3.510   6.593  0.00  0.00    +0.000 A 
ATOM     11  C   UNL     1      47.270   2.210   6.452  0.00  0.00    +0.000 A 
ATOM     12  F   UNL     1      48.090   1.905   5.439  0.00  0.00    +0.000 F 
ATOM     13  C   UNL     1      46.890   1.221   7.348  0.00  0.00    +0.000 A 
ATOM     14  C   UNL     1      46.034   1.543   8.407  0.00  0.00    +0.000 A 
ENDBRANCH   6   8
ENDBRANCH   1   2
BRANCH   1  15
ATOM     15  O   UNL     1      43.991   6.356  12.838  0.00  0.00    +0.000 OA
BRANCH  15  19
ATOM     16  C   UNL     1      48.024   7.179  12.986  0.00  0.00    +0.000 A 
ATOM     17  C   UNL     1      47.128   8.181  12.609  0.00  0.00    +0.000 A 
ATOM     18  C   UNL     1      45.762   7.893  12.561  0.00  0.00    +0.000 A 
ATOM     19  C   UNL     1      45.346   6.610  12.893  0.00  0.00    +0.000 A 
ATOM     20  N   UNL     1      46.191   5.622  13.252  0.00  0.00    +0.000 NA
ATOM     21  C   UNL     1      47.511   5.924  13.282  0.00  0.00    +0.000 A 
BRANCH  16  23
ATOM     22  N   UNL     1      50.204   7.221  11.912  0.00  0.00    +0.000 N 
ATOM     23  C   UNL     1      49.486   7.372  13.064  0.00  0.00    +0.000 C 
ATOM     24  O   UNL     1      50.030   7.695  14.112  0.00  0.00    +0.000 OA
ATOM     25  H   UNL     1      51.184   7.473  11.964  0.00  0.00    +0.000 HD
ATOM     26  H   UNL     1      49.774   7.211  10.999  0.00  0.00    +0.000 HD
ENDBRANCH  16  23
ENDBRANCH  15  19
ENDBRANCH   1  15
TORSDOF 5
ENDMDL
MODEL 4
REMARK VINA RESULT:    -8.251      4.368      8.177
REMARK INTER + INTRA:         -11.205
REMARK INTER:                 -10.748
REMARK INTRA:                  -0.457
REMARK UNBOUND:                -0.541
REMARK  Name = 
REMARK  5 active torsions:
REMARK  status: ('A' for Active; 'I' for Inactive)
REMARK    1  A    between atoms: C_2  and  C_4
REMARK    2  A    between atoms: C_7  and  O_8
REMARK    3  A    between atoms: O_8  and  C_9
REMARK    4  A    between atoms: C_9  and  C_10
REMARK    5  A    between atoms: C_14  and  C_15
REMARK                            x       y       z     vdW  Elec       q    Type
REMARK                         _______ _______ _______ _____ _____    ______ ____
ROOT
ATOM      1  C   UNL     1      46.021   4.154  13.659  0.00  0.00    +0.000 C 
ENDROOT
BRANCH   1   2
ATOM      2  C   UNL     1      45.185   3.634  12.513  0.00  0.00    +0.000 A 
ATOM      3  N   UNL     1      43.925   3.269  12.772  0.00  0.00    +0.000 NA
ATOM      4  C   UNL     1      43.262   2.781  11.728  0.00  0.00    +0.000 A 
ATOM      5  N   UNL     1      43.739   2.634  10.496  0.00  0.00    +0.000 NA
ATOM      6  C   UNL     1      45.004   3.032  10.336  0.00  0.00    +0.000 A 
ATOM      7  N   UNL     1      45.767   3.538  11.310  0.00  0.00    +0.000 NA
BRANCH   6   8
ATOM      8  C   UNL     1      45.608   2.891   8.993  0.00  0.00    +0.000 A 
ATOM      9  C   UNL     1      45.996   1.629   8.491  0.00  0.00    +0.000 A 
ATOM     10  C   UNL     1      46.566   1.490   7.221  0.00  0.00    +0.000 A 
ATOM     11  C   UNL     1      46.754   2.613   6.431  0.00  0.00    +0.000 A 
ATOM     12  F   UNL     1      47.296   2.482   5.213  0.00  0.00    +0.000 F 
ATOM     13  C   UNL     1      46.388   3.872   6.885  0.00  0.00    +0.000 A 
ATOM     14  C   UNL     1      45.820   4.007   8.157  0.00  0.00    +0.000 A 
ENDBRANCH   6   8
ENDBRANCH   1   2
BRANCH   1  15
ATOM     15  O   UNL     1      47.100   3.253  13.936  0.00  0.00    +0.000 OA
BRANCH  15  19
ATOM     16  C   UNL     1      48.563   3.865  17.737  0.00  0.00    +0.000 A 
ATOM     17  C   UNL     1      47.674   4.788  17.183  0.00  0.00    +0.000 A 
ATOM     18  C   UNL     1      47.184   4.573  15.892  0.00  0.00    +0.000 A 
ATOM     19  C   UNL     1      47.603   3.439  15.207  0.00  0.00    +0.000 A 
ATOM     20  N   UNL     1      48.466   2.537  15.717  0.00  0.00    +0.000 NA
ATOM     21  C   UNL     1      48.935   2.773  16.965  0.00  0.00    +0.000 A 
BRANCH  16  23
ATOM     22  N   UNL     1      48.414   3.527  20.139  0.00  0.00    +0.000 N 
ATOM     23  C   UNL     1      49.147   3.997  19.087  0.00  0.00    +0.000 C 
ATOM     24  O   UNL     1      50.262   4.471  19.255  0.00  0.00    +0.000 OA
ATOM     25  H   UNL     1      48.881   3.520  21.038  0.00  0.00    +0.000 HD
ATOM     26  H   UNL     1      47.624   2.909  20.021  0.00  0.00    +0.000 HD
ENDBRANCH  16  23
ENDBRANCH  15  19
ENDBRANCH   1  15
TORSDOF 5
ENDMDL
MODEL 5
REMARK VINA RESULT:    -8.189      1.913      2.623
REMARK INTER + INTRA:         -11.124
REMARK INTER:                 -10.538
REMARK INTRA:                  -0.587
REMARK UNBOUND:                -0.541
REMARK  Name = 
REMARK  5 active torsions:
REMARK  status: ('A' for Active; 'I' for Inactive)
REMARK    1  A    between atoms: C_2  and  C_4
REMARK    2  A    between atoms: C_7  and  O_8
REMARK    3  A    between atoms: O_8  and  C_9
REMARK    4  A    between atoms: C_9  and  C_10
REMARK    5  A    between atoms: C_14  and  C_15
REMARK                            x       y       z     vdW  Elec       q    Type
REMARK                         _______ _______ _______ _____ _____    ______ ____
ROOT
ATOM      1  C   UNL     1      44.186   3.279  11.590  0.00  0.00    +0.000 C 
ENDROOT
BRANCH   1   2
ATOM      2  C   UNL     1      44.490   4.753  11.724  0.00  0.00    +0.000 A 
ATOM      3  N   UNL     1      43.514   5.622  11.440  0.00  0.00    +0.000 NA
ATOM      4  C   UNL     1      43.863   6.901  11.537  0.00  0.00    +0.000 A 
ATOM      5  N   UNL     1      45.061   7.362  11.878  0.00  0.00    +0.000 NA
ATOM      6  C   UNL     1      45.967   6.417  12.148  0.00  0.00    +0.000 A 
ATOM      7  N   UNL     1      45.731   5.103  12.085  0.00  0.00    +0.000 NA
BRANCH   6   8
ATOM      8  C   UNL     1      47.328   6.855  12.527  0.00  0.00    +0.000 A 
ATOM      9  C   UNL     1      47.850   6.601  13.814  0.00  0.00    +0.000 A 
ATOM     10  C   UNL     1      49.137   7.012  14.176  0.00  0.00    +0.000 A 
ATOM     11  C   UNL     1      49.925   7.684  13.255  0.00  0.00    +0.000 A 
ATOM     12  F   UNL     1      51.158   8.075  13.598  0.00  0.00    +0.000 F 
ATOM     13  C   UNL     1      49.451   7.956  11.979  0.00  0.00    +0.000 A 
ATOM     14  C   UNL     1      48.162   7.545  11.621  0.00  0.00    +0.000 A 
ENDBRANCH   6   8
ENDBRANCH   1   2
BRANCH   1  15
ATOM     15  O   UNL     1      43.605   3.005  10.310  0.00  0.00    +0.000 OA
BRANCH  15  19
ATOM     16  C   UNL     1      46.483   2.505   7.406  0.00  0.00    +0.000 A 
ATOM     17  C   UNL     1      45.801   3.719   7.500  0.00  0.00    +0.000 A 
ATOM     18  C   UNL     1      44.825   3.879   8.487  0.00  0.00    +0.000 A 
ATOM     19  C   UNL     1      44.572   2.816   9.344  0.00  0.00    +0.000 A 
ATOM     20  N   UNL     1      45.212   1.631   9.270  0.00  0.00    +0.000 NA
ATOM     21  C   UNL     1      46.145   1.497   8.298  0.00  0.00    +0.000 A 
BRANCH  16  23
ATOM     22  N   UNL     1      47.556   3.016   5.286  0.00  0.00    +0.000 N 
ATOM     23  C   UNL     1      47.527   2.225   6.399  0.00  0.00    +0.000 C 
ATOM     24  O   UNL     1      48.360   1.346   6.574  0.00  0.00    +0.000 OA
ATOM     25  H   UNL     1      48.348   2.884   4.669  0.00  0.00    +0.000 HD
ATOM     26  H   UNL     1      47.063   3.895   5.228  0.00  0.00    +0.000 HD
ENDBRANCH  16  23
ENDBRANCH  15  19
ENDBRANCH   1  15
TORSDOF 5
ENDMDL
MODEL 6
REMARK VINA RESULT:    -7.815      4.207      7.959
REMARK INTER + INTRA:         -10.640
REMARK INTER:                 -10.156
REMARK INTRA:                  -0.485
REMARK UNBOUND:                -0.541
REMARK  Name = 
REMARK  5 active torsions:
REMARK  status: ('A' for Active; 'I' for Inactive)
REMARK    1  A    between atoms: C_2  and  C_4
REMARK    2  A    between atoms: C_7  and  O_8
REMARK    3  A    between atoms: O_8  and  C_9
REMARK    4  A    between atoms: C_9  and  C_10
REMARK    5  A    between atoms: C_14  and  C_15
REMARK                            x       y       z     vdW  Elec       q    Type
REMARK                         _______ _______ _______ _____ _____    ______ ____
ROOT
ATOM      1  C   UNL     1      45.361   5.083  13.687  0.00  0.00    +0.000 C 
ENDROOT
BRANCH   1   2
ATOM      2  C   UNL     1      44.701   4.969  12.333  0.00  0.00    +0.000 A 
ATOM      3  N   UNL     1      43.470   5.473  12.192  0.00  0.00    +0.000 NA
ATOM      4  C   UNL     1      42.933   5.299  10.988  0.00  0.00    +0.000 A 
ATOM      5  N   UNL     1      43.505   4.686   9.957  0.00  0.00    +0.000 NA
ATOM      6  C   UNL     1      44.735   4.223  10.194  0.00  0.00    +0.000 A 
ATOM      7  N   UNL     1      45.375   4.339  11.362  0.00  0.00    +0.000 NA
BRANCH   6   8
ATOM      8  C   UNL     1      45.432   3.520   9.095  0.00  0.00    +0.000 A 
ATOM      9  C   UNL     1      45.543   2.112   9.077  0.00  0.00    +0.000 A 
ATOM     10  C   UNL     1      46.200   1.443   8.038  0.00  0.00    +0.000 A 
ATOM     11  C   UNL     1      46.755   2.173   6.999  0.00  0.00    +0.000 A 
ATOM     12  F   UNL     1      47.380   1.535   6.002  0.00  0.00    +0.000 F 
ATOM     13  C   UNL     1      46.670   3.558   6.978  0.00  0.00    +0.000 A 
ATOM     14  C   UNL     1      46.014   4.224   8.020  0.00  0.00    +0.000 A 
ENDBRANCH   6   8
ENDBRANCH   1   2
BRANCH   1  15
ATOM     15  O   UNL     1      46.777   4.901  13.567  0.00  0.00    +0.000 OA
BRANCH  15  19
ATOM     16  C   UNL     1      48.556   4.323  17.236  0.00  0.00    +0.000 A 
ATOM     17  C   UNL     1      48.639   5.571  16.618  0.00  0.00    +0.000 A 
ATOM     18  C   UNL     1      48.034   5.758  15.373  0.00  0.00    +0.000 A 
ATOM     19  C   UNL     1      47.367   4.685  14.795  0.00  0.00    +0.000 A 
ATOM     20  N   UNL     1      47.278   3.467  15.368  0.00  0.00    +0.000 NA
ATOM     21  C   UNL     1      47.882   3.308  16.570  0.00  0.00    +0.000 A 
BRANCH  16  23
ATOM     22  N   UNL     1      48.429   3.263  19.420  0.00  0.00    +0.000 N 
ATOM     23  C   UNL     1      49.163   4.013  18.546  0.00  0.00    +0.000 C 
ATOM     24  O   UNL     1      50.297   4.379  18.825  0.00  0.00    +0.000 OA
ATOM     25  H   UNL     1      48.908   2.964  20.260  0.00  0.00    +0.000 HD
ATOM     26  H   UNL     1      47.615   2.736  19.136  0.00  0.00    +0.000 HD
ENDBRANCH  16  23
ENDBRANCH  15  19
ENDBRANCH   1  15
TORSDOF 5
ENDMDL
MODEL 7
REMARK VINA RESULT:    -6.997      5.254      7.451
REMARK INTER + INTRA:          -9.584
REMARK INTER:                  -9.101
REMARK INTRA:                  -0.483
REMARK UNBOUND:                -0.541
REMARK  Name = 
REMARK  5 active torsions:
REMARK  status: ('A' for Active; 'I' for Inactive)
REMARK    1  A    between atoms: C_2  and  C_4
REMARK    2  A    between atoms: C_7  and  O_8
REMARK    3  A    between atoms: O_8  and  C_9
REMARK    4  A    between atoms: C_9  and  C_10
REMARK    5  A    between atoms: C_14  and  C_15
REMARK                            x       y       z     vdW  Elec       q    Type
REMARK                         _______ _______ _______ _____ _____    ______ ____
ROOT
ATOM      1  C   UNL     1      47.565   5.686  15.446  0.00  0.00    +0.000 C 
ENDROOT
BRANCH   1   2
ATOM      2  C   UNL     1      47.873   4.514  16.350  0.00  0.00    +0.000 A 
ATOM      3  N   UNL     1      46.848   3.900  16.950  0.00  0.00    +0.000 NA
ATOM      4  C   UNL     1      47.195   2.907  17.763  0.00  0.00    +0.000 A 
ATOM      5  N   UNL     1      48.433   2.497  18.014  0.00  0.00    +0.000 NA
ATOM      6  C   UNL     1      49.387   3.168  17.363  0.00  0.00    +0.000 A 
ATOM      7  N   UNL     1      49.159   4.182  16.522  0.00  0.00    +0.000 NA
BRANCH   6   8
ATOM      8  C   UNL     1      50.793   2.773  17.600  0.00  0.00    +0.000 A 
ATOM      9  C   UNL     1      51.744   3.697  18.087  0.00  0.00    +0.000 A 
ATOM     10  C   UNL     1      53.074   3.327  18.314  0.00  0.00    +0.000 A 
ATOM     11  C   UNL     1      53.474   2.025  18.058  0.00  0.00    +0.000 A 
ATOM     12  F   UNL     1      54.746   1.669  18.278  0.00  0.00    +0.000 F 
ATOM     13  C   UNL     1      52.573   1.086  17.577  0.00  0.00    +0.000 A 
ATOM     14  C   UNL     1      51.244   1.460  17.350  0.00  0.00    +0.000 A 
ENDBRANCH   6   8
ENDBRANCH   1   2
BRANCH   1  15
ATOM     15  O   UNL     1      48.046   5.431  14.120  0.00  0.00    +0.000 OA
BRANCH  15  19
ATOM     16  C   UNL     1      44.987   4.468  11.535  0.00  0.00    +0.000 A 
ATOM     17  C   UNL     1      45.644   5.693  11.402  0.00  0.00    +0.000 A 
ATOM     18  C   UNL     1      46.679   6.011  12.284  0.00  0.00    +0.000 A 
ATOM     19  C   UNL     1      47.018   5.089  13.266  0.00  0.00    +0.000 A 
ATOM     20  N   UNL     1      46.395   3.903  13.421  0.00  0.00    +0.000 NA
ATOM     21  C   UNL     1      45.387   3.622  12.560  0.00  0.00    +0.000 A 
BRANCH  16  23
ATOM     22  N   UNL     1      43.764   4.632   9.442  0.00  0.00    +0.000 N 
ATOM     23  C   UNL     1      43.877   4.033  10.664  0.00  0.00    +0.000 C 
ATOM     24  O   UNL     1      43.113   3.140  11.005  0.00  0.00    +0.000 OA
ATOM     25  H   UNL     1      43.071   4.236   8.817  0.00  0.00    +0.000 HD
ATOM     26  H   UNL     1      44.509   5.173   9.028  0.00  0.00    +0.000 HD
ENDBRANCH  16  23
ENDBRANCH  15  19
ENDBRANCH   1  15
TORSDOF 5
ENDMDL
MODEL 8
REMARK VINA RESULT:    -6.703      4.568      8.271
REMARK INTER + INTRA:          -9.204
REMARK INTER:                  -8.584
REMARK INTRA:                  -0.620
REMARK UNBOUND:                -0.541
REMARK  Name = 
REMARK  5 active torsions:
REMARK  status: ('A' for Active; 'I' for Inactive)
REMARK    1  A    between atoms: C_2  and  C_4
REMARK    2  A    between atoms: C_7  and  O_8
REMARK    3  A    between atoms: O_8  and  C_9
REMARK    4  A    between atoms: C_9  and  C_10
REMARK    5  A    between atoms: C_14  and  C_15
REMARK                            x       y       z     vdW  Elec       q    Type
REMARK                         _______ _______ _______ _____ _____    ______ ____
ROOT
ATOM      1  C   UNL     1      48.375   7.637  13.786  0.00  0.00    +0.000 C 
ENDROOT
BRANCH   1   2
ATOM      2  C   UNL     1      47.108   7.627  12.963  0.00  0.00    +0.000 A 
ATOM      3  N   UNL     1      46.330   8.713  12.998  0.00  0.00    +0.000 NA
ATOM      4  C   UNL     1      45.211   8.618  12.286  0.00  0.00    +0.000 A 
ATOM      5  N   UNL     1      44.824   7.567  11.572  0.00  0.00    +0.000 NA
ATOM      6  C   UNL     1      45.671   6.534  11.595  0.00  0.00    +0.000 A 
ATOM      7  N   UNL     1      46.823   6.515  12.273  0.00  0.00    +0.000 NA
BRANCH   6   8
ATOM      8  C   UNL     1      45.303   5.322  10.830  0.00  0.00    +0.000 A 
ATOM      9  C   UNL     1      45.590   5.208   9.452  0.00  0.00    +0.000 A 
ATOM     10  C   UNL     1      45.244   4.064   8.725  0.00  0.00    +0.000 A 
ATOM     11  C   UNL     1      44.606   3.013   9.367  0.00  0.00    +0.000 A 
ATOM     12  F   UNL     1      44.278   1.916   8.673  0.00  0.00    +0.000 F 
ATOM     13  C   UNL     1      44.304   3.085  10.719  0.00  0.00    +0.000 A 
ATOM     14  C   UNL     1      44.650   4.232  11.443  0.00  0.00    +0.000 A 
ENDBRANCH   6   8
ENDBRANCH   1   2
BRANCH   1  15
ATOM     15  O   UNL     1      48.773   6.298  14.105  0.00  0.00    +0.000 OA
BRANCH  15  19
ATOM     16  C   UNL     1      48.249   5.525  18.116  0.00  0.00    +0.000 A 
ATOM     17  C   UNL     1      48.870   6.710  17.717  0.00  0.00    +0.000 A 
ATOM     18  C   UNL     1      49.045   6.963  16.354  0.00  0.00    +0.000 A 
ATOM     19  C   UNL     1      48.589   6.018  15.443  0.00  0.00    +0.000 A 
ATOM     20  N   UNL     1      47.993   4.863  15.803  0.00  0.00    +0.000 NA
ATOM     21  C   UNL     1      47.845   4.636  17.130  0.00  0.00    +0.000 A 
BRANCH  16  23
ATOM     22  N   UNL     1      48.553   3.974  19.962  0.00  0.00    +0.000 N 
ATOM     23  C   UNL     1      48.020   5.153  19.527  0.00  0.00    +0.000 C 
ATOM     24  O   UNL     1      47.411   5.892  20.289  0.00  0.00    +0.000 OA
ATOM     25  H   UNL     1      48.486   3.797  20.957  0.00  0.00    +0.000 HD
ATOM     26  H   UNL     1      49.265   3.473  19.449  0.00  0.00    +0.000 HD
ENDBRANCH  16  23
ENDBRANCH  15  19
ENDBRANCH   1  15
TORSDOF 5
ENDMDL
MODEL 9
REMARK VINA RESULT:    -6.552      5.509      8.160
REMARK INTER + INTRA:          -9.008
REMARK INTER:                  -8.413
REMARK INTRA:                  -0.595
REMARK UNBOUND:                -0.541
REMARK  Name = 
REMARK  5 active torsions:
REMARK  status: ('A' for Active; 'I' for Inactive)
REMARK    1  A    between atoms: C_2  and  C_4
REMARK    2  A    between atoms: C_7  and  O_8
REMARK    3  A    between atoms: O_8  and  C_9
REMARK    4  A    between atoms: C_9  and  C_10
REMARK    5  A    between atoms: C_14  and  C_15
REMARK                            x       y       z     vdW  Elec       q    Type
REMARK                         _______ _______ _______ _____ _____    ______ ____
ROOT
ATOM      1  C   UNL     1      48.890   7.121  15.413  0.00  0.00    +0.000 C 
ENDROOT
BRANCH   1   2
ATOM      2  C   UNL     1      49.006   6.223  16.623  0.00  0.00    +0.000 A 
ATOM      3  N   UNL     1      48.211   6.474  17.668  0.00  0.00    +0.000 NA
ATOM      4  C   UNL     1      48.397   5.673  18.713  0.00  0.00    +0.000 A 
ATOM      5  N   UNL     1      49.278   4.683  18.793  0.00  0.00    +0.000 NA
ATOM      6  C   UNL     1      50.022   4.507  17.697  0.00  0.00    +0.000 A 
ATOM      7  N   UNL     1      49.924   5.248  16.589  0.00  0.00    +0.000 NA
BRANCH   6   8
ATOM      8  C   UNL     1      51.033   3.427  17.716  0.00  0.00    +0.000 A 
ATOM      9  C   UNL     1      50.708   2.109  17.328  0.00  0.00    +0.000 A 
ATOM     10  C   UNL     1      51.662   1.085  17.343  0.00  0.00    +0.000 A 
ATOM     11  C   UNL     1      52.958   1.365  17.746  0.00  0.00    +0.000 A 
ATOM     12  F   UNL     1      53.873   0.387  17.757  0.00  0.00    +0.000 F 
ATOM     13  C   UNL     1      53.320   2.646  18.137  0.00  0.00    +0.000 A 
ATOM     14  C   UNL     1      52.363   3.667  18.122  0.00  0.00    +0.000 A 
ENDBRANCH   6   8
ENDBRANCH   1   2
BRANCH   1  15
ATOM     15  O   UNL     1      48.959   6.345  14.210  0.00  0.00    +0.000 OA
BRANCH  15  19
ATOM     16  C   UNL     1      45.272   4.813  13.198  0.00  0.00    +0.000 A 
ATOM     17  C   UNL     1      45.543   6.164  12.975  0.00  0.00    +0.000 A 
ATOM     18  C   UNL     1      46.796   6.676  13.322  0.00  0.00    +0.000 A 
ATOM     19  C   UNL     1      47.730   5.812  13.880  0.00  0.00    +0.000 A 
ATOM     20  N   UNL     1      47.491   4.505  14.112  0.00  0.00    +0.000 NA
ATOM     21  C   UNL     1      46.266   4.036  13.777  0.00  0.00    +0.000 A 
BRANCH  16  23
ATOM     22  N   UNL     1      43.996   2.832  12.604  0.00  0.00    +0.000 N 
ATOM     23  C   UNL     1      43.982   4.170  12.876  0.00  0.00    +0.000 C 
ATOM     24  O   UNL     1      42.935   4.803  12.892  0.00  0.00    +0.000 OA
ATOM     25  H   UNL     1      43.090   2.391  12.502  0.00  0.00    +0.000 HD
ATOM     26  H   UNL     1      44.781   2.237  12.829  0.00  0.00    +0.000 HD
ENDBRANCH  16  23
ENDBRANCH  15  19
ENDBRANCH   1  15
TORSDOF 5
ENDMDL
