MODEL 1
REMARK VINA RESULT:    -8.637      0.000      0.000
REMARK INTER + INTRA:         -12.943
REMARK INTER:                 -11.666
REMARK INTRA:                  -1.277
REMARK UNBOUND:                -1.277
REMARK  Name = 
REMARK  7 active torsions:
REMARK  status: ('A' for Active; 'I' for Inactive)
REMARK    1  A    between atoms: C_1  and  C_2
REMARK    2  A    between atoms: C_5  and  C_6
REMARK    3  A    between atoms: N_8  and  C_9
REMARK    4  A    between atoms: C_9  and  C_10
REMARK    5  A    between atoms: C_13  and  C_14
REMARK    6  A    between atoms: C_14  and  N_15
REMARK    7  A    between atoms: C_16  and  C_18
REMARK                            x       y       z     vdW  Elec       q    Type
REMARK                         _______ _______ _______ _____ _____    ______ ____
ROOT
ATOM      1  C   UNL     1      44.627   5.655  10.938  0.00  0.00    +0.000 A 
ATOM      2  C   UNL     1      45.967   5.877  10.596  0.00  0.00    +0.000 A 
ATOM      3  C   UNL     1      46.783   6.699  11.388  0.00  0.00    +0.000 A 
ATOM      4  C   UNL     1      46.279   7.307  12.546  0.00  0.00    +0.000 A 
ATOM      5  C   UNL     1      44.929   7.102  12.870  0.00  0.00    +0.000 A 
ATOM      6  C   UNL     1      44.116   6.277  12.084  0.00  0.00    +0.000 A 
ENDROOT
BRANCH   1   7
ATOM      7  C   UNL     1      43.759   4.778  10.076  0.00  0.00    +0.000 C 
BRANCH   7  10
ATOM      8  C   UNL     1      44.853   2.987   8.837  0.00  0.00    +0.000 C 
ATOM      9  O   UNL     1      44.665   2.199   9.760  0.00  0.00    +0.000 OA
ATOM     10  N   UNL     1      44.440   4.300   8.895  0.00  0.00    +0.000 N 
ATOM     11  H   UNL     1      44.733   4.961   8.188  0.00  0.00    +0.000 HD
BRANCH   8  16
ATOM     12  C   UNL     1      47.451   2.549   5.019  0.00  0.00    +0.000 C 
ATOM     13  C   UNL     1      47.767   2.801   6.491  0.00  0.00    +0.000 C 
ATOM     14  C   UNL     1      47.775   1.519   7.318  0.00  0.00    +0.000 C 
ATOM     15  C   UNL     1      46.307   1.252   7.654  0.00  0.00    +0.000 C 
ATOM     16  C   UNL     1      45.588   2.607   7.556  0.00  0.00    +0.000 C 
ATOM     17  C   UNL     1      46.682   3.620   7.186  0.00  0.00    +0.000 C 
ENDBRANCH   8  16
ENDBRANCH   7  10
ENDBRANCH   1   7
BRANCH   4  18
ATOM     18  C   UNL     1      47.146   8.165  13.442  0.00  0.00    +0.000 C 
BRANCH  18  19
ATOM     19  N   UNL     1      47.571   7.465  14.626  0.00  0.00    +0.000 N 
ATOM     20  C   UNL     1      48.805   6.861  14.708  0.00  0.00    +0.000 C 
ATOM     21  O   UNL     1      49.619   6.891  13.792  0.00  0.00    +0.000 OA
ATOM     22  H   UNL     1      46.838   7.131  15.241  0.00  0.00    +0.000 HD
BRANCH  20  23
ATOM     23  C   UNL     1      49.115   6.231  15.999  0.00  0.00    +0.000 A 
ATOM     24  C   UNL     1      50.135   6.729  16.796  0.00  0.00    +0.000 A 
ATOM     25  S   UNL     1      50.313   5.895  18.274  0.00  0.00    +0.000 S 
ATOM     26  C   UNL     1      49.068   4.806  17.876  0.00  0.00    +0.000 A 
ATOM     27  N   UNL     1      48.726   3.791  18.711  0.00  0.00    +0.000 NA
ATOM     28  C   UNL     1      47.787   3.021  18.274  0.00  0.00    +0.000 A 
ATOM     29  N   UNL     1      47.151   3.184  17.070  0.00  0.00    +0.000 N 
ATOM     30  C   UNL     1      47.424   4.224  16.215  0.00  0.00    +0.000 A 
ATOM     31  O   UNL     1      46.778   4.387  15.185  0.00  0.00    +0.000 OA
ATOM     32  C   UNL     1      48.502   5.095  16.649  0.00  0.00    +0.000 A 
ATOM     33  H   UNL     1      46.404   2.564  16.794  0.00  0.00    +0.000 HD
ENDBRANCH  20  23
ENDBRANCH  18  19
ENDBRANCH   4  18
TORSDOF 6
ENDMDL
MODEL 2
REMARK VINA RESULT:    -7.826      1.881      2.177
REMARK INTER + INTRA:         -11.848
REMARK INTER:                 -11.050
REMARK INTRA:                  -0.798
REMARK UNBOUND:                -1.277
REMARK  Name = 
REMARK  7 active torsions:
REMARK  status: ('A' for Active; 'I' for Inactive)
REMARK    1  A    between atoms: C_1  and  C_2
REMARK    2  A    between atoms: C_5  and  C_6
REMARK    3  A    between atoms: N_8  and  C_9
REMARK    4  A    between atoms: C_9  and  C_10
REMARK    5  A    between atoms: C_13  and  C_14
REMARK    6  A    between atoms: C_14  and  N_15
REMARK    7  A    between atoms: C_16  and  C_18
REMARK                            x       y       z     vdW  Elec       q    Type
REMARK                         _______ _______ _______ _____ _____    ______ ____
ROOT
ATOM      1  C   UNL     1      45.673   4.564  12.315  0.00  0.00    +0.000 A 
ATOM      2  C   UNL     1      46.320   4.300  13.529  0.00  0.00    +0.000 A 
ATOM      3  C   UNL     1      47.179   5.249  14.106  0.00  0.00    +0.000 A 
ATOM      4  C   UNL     1      47.398   6.487  13.486  0.00  0.00    +0.000 A 
ATOM      5  C   UNL     1      46.767   6.736  12.258  0.00  0.00    +0.000 A 
ATOM      6  C   UNL     1      45.905   5.793  11.685  0.00  0.00    +0.000 A 
ENDROOT
BRANCH   1   7
ATOM      7  C   UNL     1      44.761   3.536  11.702  0.00  0.00    +0.000 C 
BRANCH   7  10
ATOM      8  C   UNL     1      44.665   3.627   9.268  0.00  0.00    +0.000 C 
ATOM      9  O   UNL     1      43.793   4.491   9.311  0.00  0.00    +0.000 OA
ATOM     10  N   UNL     1      45.216   3.082  10.408  0.00  0.00    +0.000 N 
ATOM     11  H   UNL     1      45.823   2.275  10.349  0.00  0.00    +0.000 HD
BRANCH   8  16
ATOM     12  C   UNL     1      46.774   2.515   5.289  0.00  0.00    +0.000 C 
ATOM     13  C   UNL     1      47.269   2.805   6.704  0.00  0.00    +0.000 C 
ATOM     14  C   UNL     1      47.150   1.596   7.627  0.00  0.00    +0.000 C 
ATOM     15  C   UNL     1      45.698   1.601   8.106  0.00  0.00    +0.000 C 
ATOM     16  C   UNL     1      45.201   3.048   7.963  0.00  0.00    +0.000 C 
ATOM     17  C   UNL     1      46.402   3.837   7.421  0.00  0.00    +0.000 C 
ENDBRANCH   8  16
ENDBRANCH   7  10
ENDBRANCH   1   7
BRANCH   4  18
ATOM     18  C   UNL     1      48.285   7.546  14.104  0.00  0.00    +0.000 C 
BRANCH  18  19
ATOM     19  N   UNL     1      48.261   7.508  15.542  0.00  0.00    +0.000 N 
ATOM     20  C   UNL     1      49.229   6.850  16.267  0.00  0.00    +0.000 C 
ATOM     21  O   UNL     1      50.170   6.270  15.740  0.00  0.00    +0.000 OA
ATOM     22  H   UNL     1      47.362   7.665  15.984  0.00  0.00    +0.000 HD
BRANCH  20  23
ATOM     23  C   UNL     1      49.097   6.945  17.728  0.00  0.00    +0.000 A 
ATOM     24  C   UNL     1      49.154   8.180  18.358  0.00  0.00    +0.000 A 
ATOM     25  S   UNL     1      48.936   8.091  20.049  0.00  0.00    +0.000 S 
ATOM     26  C   UNL     1      48.810   6.395  20.003  0.00  0.00    +0.000 A 
ATOM     27  N   UNL     1      48.648   5.670  21.139  0.00  0.00    +0.000 NA
ATOM     28  C   UNL     1      48.599   4.392  20.964  0.00  0.00    +0.000 A 
ATOM     29  N   UNL     1      48.690   3.774  19.744  0.00  0.00    +0.000 N 
ATOM     30  C   UNL     1      48.802   4.465  18.562  0.00  0.00    +0.000 A 
ATOM     31  O   UNL     1      48.796   3.884  17.482  0.00  0.00    +0.000 OA
ATOM     32  C   UNL     1      48.900   5.906  18.713  0.00  0.00    +0.000 A 
ATOM     33  H   UNL     1      48.618   2.770  19.668  0.00  0.00    +0.000 HD
ENDBRANCH  20  23
ENDBRANCH  18  19
ENDBRANCH   4  18
TORSDOF 6
ENDMDL
MODEL 3
REMARK VINA RESULT:    -7.168      2.673      3.246
REMARK INTER + INTRA:         -10.959
REMARK INTER:                 -10.582
REMARK INTRA:                  -0.377
REMARK UNBOUND:                -1.277
REMARK  Name = 
REMARK  7 active torsions:
REMARK  status: ('A' for Active; 'I' for Inactive)
REMARK    1  A    between atoms: C_1  and  C_2
REMARK    2  A    between atoms: C_5  and  C_6
REMARK    3  A    between atoms: N_8  and  C_9
REMARK    4  A    between atoms: C_9  and  C_10
REMARK    5  A    between atoms: C_13  and  C_14
REMARK    6  A    between atoms: C_14  and  N_15
REMARK    7  A    between atoms: C_16  and  C_18
REMARK                            x       y       z     vdW  Elec       q    Type
REMARK                         _______ _______ _______ _____ _____    ______ ____
ROOT
ATOM      1  C   UNL     1      45.037   5.077  12.002  0.00  0.00    +0.000 A 
ATOM      2  C   UNL     1      45.390   6.425  12.152  0.00  0.00    +0.000 A 
ATOM      3  C   UNL     1      46.470   6.796  12.968  0.00  0.00    +0.000 A 
ATOM      4  C   UNL     1      47.226   5.827  13.642  0.00  0.00    +0.000 A 
ATOM      5  C   UNL     1      46.851   4.481  13.508  0.00  0.00    +0.000 A 
ATOM      6  C   UNL     1      45.778   4.109  12.688  0.00  0.00    +0.000 A 
ENDROOT
BRANCH   1   7
ATOM      7  C   UNL     1      43.872   4.692  11.130  0.00  0.00    +0.000 C 
BRANCH   7  10
ATOM      8  C   UNL     1      45.147   4.489   9.063  0.00  0.00    +0.000 C 
ATOM      9  O   UNL     1      45.610   5.617   9.209  0.00  0.00    +0.000 OA
ATOM     10  N   UNL     1      44.268   3.932   9.966  0.00  0.00    +0.000 N 
ATOM     11  H   UNL     1      43.792   3.066   9.751  0.00  0.00    +0.000 HD
BRANCH   8  16
ATOM     12  C   UNL     1      46.775   2.272   5.327  0.00  0.00    +0.000 C 
ATOM     13  C   UNL     1      47.349   2.583   6.707  0.00  0.00    +0.000 C 
ATOM     14  C   UNL     1      46.876   1.600   7.774  0.00  0.00    +0.000 C 
ATOM     15  C   UNL     1      45.500   2.109   8.204  0.00  0.00    +0.000 C 
ATOM     16  C   UNL     1      45.467   3.607   7.861  0.00  0.00    +0.000 C 
ATOM     17  C   UNL     1      46.846   3.915   7.258  0.00  0.00    +0.000 C 
ENDBRANCH   8  16
ENDBRANCH   7  10
ENDBRANCH   1   7
BRANCH   4  18
ATOM     18  C   UNL     1      48.420   6.193  14.495  0.00  0.00    +0.000 C 
BRANCH  18  19
ATOM     19  N   UNL     1      48.062   6.415  15.872  0.00  0.00    +0.000 N 
ATOM     20  C   UNL     1      48.827   5.930  16.908  0.00  0.00    +0.000 C 
ATOM     21  O   UNL     1      49.860   5.296  16.727  0.00  0.00    +0.000 OA
ATOM     22  H   UNL     1      47.087   6.619  16.057  0.00  0.00    +0.000 HD
BRANCH  20  23
ATOM     23  C   UNL     1      48.361   6.283  18.256  0.00  0.00    +0.000 A 
ATOM     24  C   UNL     1      48.223   5.304  19.229  0.00  0.00    +0.000 A 
ATOM     25  S   UNL     1      47.714   5.914  20.740  0.00  0.00    +0.000 S 
ATOM     26  C   UNL     1      47.611   7.499  20.132  0.00  0.00    +0.000 A 
ATOM     27  N   UNL     1      47.191   8.528  20.912  0.00  0.00    +0.000 NA
ATOM     28  C   UNL     1      47.129   9.671  20.317  0.00  0.00    +0.000 A 
ATOM     29  N   UNL     1      47.461   9.878  19.003  0.00  0.00    +0.000 N 
ATOM     30  C   UNL     1      47.940   8.882  18.188  0.00  0.00    +0.000 A 
ATOM     31  O   UNL     1      48.308   9.119  17.041  0.00  0.00    +0.000 OA
ATOM     32  C   UNL     1      47.991   7.568  18.804  0.00  0.00    +0.000 A 
ATOM     33  H   UNL     1      47.418  10.802  18.600  0.00  0.00    +0.000 HD
ENDBRANCH  20  23
ENDBRANCH  18  19
ENDBRANCH   4  18
TORSDOF 6
ENDMDL
MODEL 4
REMARK VINA RESULT:    -7.136      1.564      2.076
REMARK INTER + INTRA:         -10.917
REMARK INTER:                  -9.779
REMARK INTRA:                  -1.138
REMARK UNBOUND:                -1.277
REMARK  Name = 
REMARK  7 active torsions:
REMARK  status: ('A' for Active; 'I' for Inactive)
REMARK    1  A    between atoms: C_1  and  C_2
REMARK    2  A    between atoms: C_5  and  C_6
REMARK    3  A    between atoms: N_8  and  C_9
REMARK    4  A    between atoms: C_9  and  C_10
REMARK    5  A    between atoms: C_13  and  C_14
REMARK    6  A    between atoms: C_14  and  N_15
REMARK    7  A    between atoms: C_16  and  C_18
REMARK                            x       y       z     vdW  Elec       q    Type
REMARK                         _______ _______ _______ _____ _____    ______ ____
ROOT
ATOM      1  C   UNL     1      45.657   6.783  11.842  0.00  0.00    +0.000 A 
ATOM      2  C   UNL     1      45.471   8.086  12.322  0.00  0.00    +0.000 A 
ATOM      3  C   UNL     1      46.516   8.769  12.964  0.00  0.00    +0.000 A 
ATOM      4  C   UNL     1      47.772   8.168  13.128  0.00  0.00    +0.000 A 
ATOM      5  C   UNL     1      47.943   6.853  12.668  0.00  0.00    +0.000 A 
ATOM      6  C   UNL     1      46.904   6.173  12.022  0.00  0.00    +0.000 A 
ENDROOT
BRANCH   1   7
ATOM      7  C   UNL     1      44.527   6.057  11.162  0.00  0.00    +0.000 C 
BRANCH   7  10
ATOM      8  C   UNL     1      44.325   4.203   9.594  0.00  0.00    +0.000 C 
ATOM      9  O   UNL     1      43.434   3.695  10.270  0.00  0.00    +0.000 OA
ATOM     10  N   UNL     1      44.939   5.383   9.953  0.00  0.00    +0.000 N 
ATOM     11  H   UNL     1      45.762   5.703   9.461  0.00  0.00    +0.000 HD
BRANCH   8  16
ATOM     12  C   UNL     1      46.554   2.824   5.767  0.00  0.00    +0.000 C 
ATOM     13  C   UNL     1      46.961   2.982   7.229  0.00  0.00    +0.000 C 
ATOM     14  C   UNL     1      46.541   1.792   8.087  0.00  0.00    +0.000 C 
ATOM     15  C   UNL     1      45.076   2.051   8.440  0.00  0.00    +0.000 C 
ATOM     16  C   UNL     1      44.864   3.568   8.316  0.00  0.00    +0.000 C 
ATOM     17  C   UNL     1      46.233   4.137   7.912  0.00  0.00    +0.000 C 
ENDBRANCH   8  16
ENDBRANCH   7  10
ENDBRANCH   1   7
BRANCH   4  18
ATOM     18  C   UNL     1      48.928   8.894  13.779  0.00  0.00    +0.000 C 
BRANCH  18  19
ATOM     19  N   UNL     1      49.582   8.096  14.782  0.00  0.00    +0.000 N 
ATOM     20  C   UNL     1      49.575   8.452  16.111  0.00  0.00    +0.000 C 
ATOM     21  O   UNL     1      49.006   9.456  16.524  0.00  0.00    +0.000 OA
ATOM     22  H   UNL     1      50.322   7.483  14.459  0.00  0.00    +0.000 HD
BRANCH  20  23
ATOM     23  C   UNL     1      50.241   7.510  17.021  0.00  0.00    +0.000 A 
ATOM     24  C   UNL     1      51.291   7.932  17.823  0.00  0.00    +0.000 A 
ATOM     25  S   UNL     1      51.904   6.707  18.842  0.00  0.00    +0.000 S 
ATOM     26  C   UNL     1      50.821   5.557  18.209  0.00  0.00    +0.000 A 
ATOM     27  N   UNL     1      50.839   4.267  18.631  0.00  0.00    +0.000 NA
ATOM     28  C   UNL     1      49.986   3.494  18.047  0.00  0.00    +0.000 A 
ATOM     29  N   UNL     1      49.107   3.904  17.078  0.00  0.00    +0.000 N 
ATOM     30  C   UNL     1      49.015   5.208  16.656  0.00  0.00    +0.000 A 
ATOM     31  O   UNL     1      48.159   5.557  15.848  0.00  0.00    +0.000 OA
ATOM     32  C   UNL     1      49.982   6.108  17.258  0.00  0.00    +0.000 A 
ATOM     33  H   UNL     1      48.444   3.258  16.676  0.00  0.00    +0.000 HD
ENDBRANCH  20  23
ENDBRANCH  18  19
ENDBRANCH   4  18
TORSDOF 6
ENDMDL
MODEL 5
REMARK VINA RESULT:    -7.106      3.378      4.859
REMARK INTER + INTRA:         -10.876
REMARK INTER:                  -9.711
REMARK INTRA:                  -1.166
REMARK UNBOUND:                -1.277
REMARK  Name = 
REMARK  7 active torsions:
REMARK  status: ('A' for Active; 'I' for Inactive)
REMARK    1  A    between atoms: C_1  and  C_2
REMARK    2  A    between atoms: C_5  and  C_6
REMARK    3  A    between atoms: N_8  and  C_9
REMARK    4  A    between atoms: C_9  and  C_10
REMARK    5  A    between atoms: C_13  and  C_14
REMARK    6  A    between atoms: C_14  and  N_15
REMARK    7  A    between atoms: C_16  and  C_18
REMARK                            x       y       z     vdW  Elec       q    Type
REMARK                         _______ _______ _______ _____ _____    ______ ____
ROOT
ATOM      1  C   UNL     1      45.388   5.877  11.855  0.00  0.00    +0.000 A 
ATOM      2  C   UNL     1      45.846   4.894  12.742  0.00  0.00    +0.000 A 
ATOM      3  C   UNL     1      46.876   5.175  13.654  0.00  0.00    +0.000 A 
ATOM      4  C   UNL     1      47.459   6.448  13.707  0.00  0.00    +0.000 A 
ATOM      5  C   UNL     1      47.013   7.421  12.799  0.00  0.00    +0.000 A 
ATOM      6  C   UNL     1      45.982   7.144  11.893  0.00  0.00    +0.000 A 
ENDROOT
BRANCH   1   7
ATOM      7  C   UNL     1      44.290   5.561  10.876  0.00  0.00    +0.000 C 
BRANCH   7  10
ATOM      8  C   UNL     1      44.520   3.672   9.353  0.00  0.00    +0.000 C 
ATOM      9  O   UNL     1      43.878   2.951  10.111  0.00  0.00    +0.000 OA
ATOM     10  N   UNL     1      44.783   4.994   9.642  0.00  0.00    +0.000 N 
ATOM     11  H   UNL     1      45.432   5.523   9.075  0.00  0.00    +0.000 HD
BRANCH   8  16
ATOM     12  C   UNL     1      46.838   2.797   5.431  0.00  0.00    +0.000 C 
ATOM     13  C   UNL     1      47.252   2.958   6.892  0.00  0.00    +0.000 C 
ATOM     14  C   UNL     1      47.036   1.685   7.705  0.00  0.00    +0.000 C 
ATOM     15  C   UNL     1      45.558   1.706   8.096  0.00  0.00    +0.000 C 
ATOM     16  C   UNL     1      45.117   3.177   8.040  0.00  0.00    +0.000 C 
ATOM     17  C   UNL     1      46.375   3.962   7.636  0.00  0.00    +0.000 C 
ENDBRANCH   8  16
ENDBRANCH   7  10
ENDBRANCH   1   7
BRANCH   4  18
ATOM     18  C   UNL     1      48.541   6.793  14.707  0.00  0.00    +0.000 C 
BRANCH  18  19
ATOM     19  N   UNL     1      49.792   7.111  14.073  0.00  0.00    +0.000 N 
ATOM     20  C   UNL     1      50.617   8.104  14.551  0.00  0.00    +0.000 C 
ATOM     21  O   UNL     1      50.347   8.766  15.546  0.00  0.00    +0.000 OA
ATOM     22  H   UNL     1      49.885   6.845  13.099  0.00  0.00    +0.000 HD
BRANCH  20  23
ATOM     23  C   UNL     1      51.884   8.275  13.827  0.00  0.00    +0.000 A 
ATOM     24  C   UNL     1      53.095   8.114  14.484  0.00  0.00    +0.000 A 
ATOM     25  S   UNL     1      54.453   8.308  13.467  0.00  0.00    +0.000 S 
ATOM     26  C   UNL     1      53.469   8.665  12.126  0.00  0.00    +0.000 A 
ATOM     27  N   UNL     1      54.010   8.971  10.918  0.00  0.00    +0.000 NA
ATOM     28  C   UNL     1      53.152   9.252   9.996  0.00  0.00    +0.000 A 
ATOM     29  N   UNL     1      51.793   9.245  10.175  0.00  0.00    +0.000 N 
ATOM     30  C   UNL     1      51.197   8.892  11.361  0.00  0.00    +0.000 A 
ATOM     31  O   UNL     1      49.977   8.815  11.462  0.00  0.00    +0.000 OA
ATOM     32  C   UNL     1      52.125   8.605  12.440  0.00  0.00    +0.000 A 
ATOM     33  H   UNL     1      51.171   9.447   9.407  0.00  0.00    +0.000 HD
ENDBRANCH  20  23
ENDBRANCH  18  19
ENDBRANCH   4  18
TORSDOF 6
ENDMDL
MODEL 6
REMARK VINA RESULT:    -7.018      2.439      3.034
REMARK INTER + INTRA:         -10.756
REMARK INTER:                  -9.673
REMARK INTRA:                  -1.083
REMARK UNBOUND:                -1.277
REMARK  Name = 
REMARK  7 active torsions:
REMARK  status: ('A' for Active; 'I' for Inactive)
REMARK    1  A    between atoms: C_1  and  C_2
REMARK    2  A    between atoms: C_5  and  C_6
REMARK    3  A    between atoms: N_8  and  C_9
REMARK    4  A    between atoms: C_9  and  C_10
REMARK    5  A    between atoms: C_13  and  C_14
REMARK    6  A    between atoms: C_14  and  N_15
REMARK    7  A    between atoms: C_16  and  C_18
REMARK                            x       y       z     vdW  Elec       q    Type
REMARK                         _______ _______ _______ _____ _____    ______ ____
ROOT
ATOM      1  C   UNL     1      46.155   5.592  12.546  0.00  0.00    +0.000 A 
ATOM      2  C   UNL     1      46.768   5.207  13.744  0.00  0.00    +0.000 A 
ATOM      3  C   UNL     1      47.832   5.950  14.277  0.00  0.00    +0.000 A 
ATOM      4  C   UNL     1      48.297   7.103  13.628  0.00  0.00    +0.000 A 
ATOM      5  C   UNL     1      47.696   7.469  12.414  0.00  0.00    +0.000 A 
ATOM      6  C   UNL     1      46.630   6.732  11.885  0.00  0.00    +0.000 A 
ENDROOT
BRANCH   1   7
ATOM      7  C   UNL     1      45.019   4.782  11.980  0.00  0.00    +0.000 C 
BRANCH   7  10
ATOM      8  C   UNL     1      44.433   4.290   9.666  0.00  0.00    +0.000 C 
ATOM      9  O   UNL     1      43.358   4.871   9.788  0.00  0.00    +0.000 OA
ATOM     10  N   UNL     1      45.336   4.188  10.701  0.00  0.00    +0.000 N 
ATOM     11  H   UNL     1      46.143   3.584  10.620  0.00  0.00    +0.000 HD
BRANCH   8  16
ATOM     12  C   UNL     1      46.382   2.672   5.780  0.00  0.00    +0.000 C 
ATOM     13  C   UNL     1      46.851   2.794   7.227  0.00  0.00    +0.000 C 
ATOM     14  C   UNL     1      46.340   1.658   8.108  0.00  0.00    +0.000 C 
ATOM     15  C   UNL     1      44.922   2.068   8.506  0.00  0.00    +0.000 C 
ATOM     16  C   UNL     1      44.862   3.598   8.376  0.00  0.00    +0.000 C 
ATOM     17  C   UNL     1      46.268   4.021   7.924  0.00  0.00    +0.000 C 
ENDBRANCH   8  16
ENDBRANCH   7  10
ENDBRANCH   1   7
BRANCH   4  18
ATOM     18  C   UNL     1      49.415   7.948  14.199  0.00  0.00    +0.000 C 
BRANCH  18  19
ATOM     19  N   UNL     1      50.464   7.150  14.777  0.00  0.00    +0.000 N 
ATOM     20  C   UNL     1      51.286   7.639  15.767  0.00  0.00    +0.000 C 
ATOM     21  O   UNL     1      51.170   8.770  16.224  0.00  0.00    +0.000 OA
ATOM     22  H   UNL     1      50.805   6.377  14.217  0.00  0.00    +0.000 HD
BRANCH  20  23
ATOM     23  C   UNL     1      52.276   6.689  16.292  0.00  0.00    +0.000 A 
ATOM     24  C   UNL     1      53.630   6.888  16.064  0.00  0.00    +0.000 A 
ATOM     25  S   UNL     1      54.623   5.705  16.791  0.00  0.00    +0.000 S 
ATOM     26  C   UNL     1      53.276   4.858  17.391  0.00  0.00    +0.000 A 
ATOM     27  N   UNL     1      53.424   3.703  18.090  0.00  0.00    +0.000 NA
ATOM     28  C   UNL     1      52.319   3.147  18.459  0.00  0.00    +0.000 A 
ATOM     29  N   UNL     1      51.073   3.653  18.196  0.00  0.00    +0.000 N 
ATOM     30  C   UNL     1      50.872   4.843  17.539  0.00  0.00    +0.000 A 
ATOM     31  O   UNL     1      49.746   5.308  17.395  0.00  0.00    +0.000 OA
ATOM     32  C   UNL     1      52.086   5.485  17.070  0.00  0.00    +0.000 A 
ATOM     33  H   UNL     1      50.245   3.186  18.534  0.00  0.00    +0.000 HD
ENDBRANCH  20  23
ENDBRANCH  18  19
ENDBRANCH   4  18
TORSDOF 6
ENDMDL
MODEL 7
REMARK VINA RESULT:    -6.957      3.358      4.694
REMARK INTER + INTRA:         -10.674
REMARK INTER:                  -9.713
REMARK INTRA:                  -0.962
REMARK UNBOUND:                -1.277
REMARK  Name = 
REMARK  7 active torsions:
REMARK  status: ('A' for Active; 'I' for Inactive)
REMARK    1  A    between atoms: C_1  and  C_2
REMARK    2  A    between atoms: C_5  and  C_6
REMARK    3  A    between atoms: N_8  and  C_9
REMARK    4  A    between atoms: C_9  and  C_10
REMARK    5  A    between atoms: C_13  and  C_14
REMARK    6  A    between atoms: C_14  and  N_15
REMARK    7  A    between atoms: C_16  and  C_18
REMARK                            x       y       z     vdW  Elec       q    Type
REMARK                         _______ _______ _______ _____ _____    ______ ____
ROOT
ATOM      1  C   UNL     1      44.351   5.962  11.529  0.00  0.00    +0.000 A 
ATOM      2  C   UNL     1      45.096   5.445  12.597  0.00  0.00    +0.000 A 
ATOM      3  C   UNL     1      46.004   6.256  13.296  0.00  0.00    +0.000 A 
ATOM      4  C   UNL     1      46.177   7.603  12.950  0.00  0.00    +0.000 A 
ATOM      5  C   UNL     1      45.446   8.108  11.863  0.00  0.00    +0.000 A 
ATOM      6  C   UNL     1      44.535   7.302  11.169  0.00  0.00    +0.000 A 
ENDROOT
BRANCH   1   7
ATOM      7  C   UNL     1      43.387   5.081  10.781  0.00  0.00    +0.000 C 
BRANCH   7  10
ATOM      8  C   UNL     1      44.636   3.415   9.515  0.00  0.00    +0.000 C 
ATOM      9  O   UNL     1      44.836   2.756  10.531  0.00  0.00    +0.000 OA
ATOM     10  N   UNL     1      43.924   4.594   9.531  0.00  0.00    +0.000 N 
ATOM     11  H   UNL     1      43.897   5.188   8.713  0.00  0.00    +0.000 HD
BRANCH   8  16
ATOM     12  C   UNL     1      46.743   2.876   5.417  0.00  0.00    +0.000 C 
ATOM     13  C   UNL     1      47.242   3.012   6.854  0.00  0.00    +0.000 C 
ATOM     14  C   UNL     1      47.179   1.696   7.624  0.00  0.00    +0.000 C 
ATOM     15  C   UNL     1      45.734   1.586   8.109  0.00  0.00    +0.000 C 
ATOM     16  C   UNL     1      45.179   3.019   8.146  0.00  0.00    +0.000 C 
ATOM     17  C   UNL     1      46.343   3.915   7.696  0.00  0.00    +0.000 C 
ENDBRANCH   8  16
ENDBRANCH   7  10
ENDBRANCH   1   7
BRANCH   4  18
ATOM     18  C   UNL     1      47.116   8.512  13.711  0.00  0.00    +0.000 C 
BRANCH  18  19
ATOM     19  N   UNL     1      48.387   8.662  13.053  0.00  0.00    +0.000 N 
ATOM     20  C   UNL     1      49.441   7.814  13.308  0.00  0.00    +0.000 C 
ATOM     21  O   UNL     1      49.362   6.878  14.095  0.00  0.00    +0.000 OA
ATOM     22  H   UNL     1      48.597   9.581  12.680  0.00  0.00    +0.000 HD
BRANCH  20  23
ATOM     23  C   UNL     1      50.656   8.062  12.520  0.00  0.00    +0.000 A 
ATOM     24  C   UNL     1      50.694   7.746  11.170  0.00  0.00    +0.000 A 
ATOM     25  S   UNL     1      52.172   8.149  10.417  0.00  0.00    +0.000 S 
ATOM     26  C   UNL     1      52.831   8.712  11.881  0.00  0.00    +0.000 A 
ATOM     27  N   UNL     1      54.106   9.174  11.948  0.00  0.00    +0.000 NA
ATOM     28  C   UNL     1      54.489   9.541  13.125  0.00  0.00    +0.000 A 
ATOM     29  N   UNL     1      53.700   9.493  14.245  0.00  0.00    +0.000 N 
ATOM     30  C   UNL     1      52.389   9.084  14.219  0.00  0.00    +0.000 A 
ATOM     31  O   UNL     1      51.687   9.133  15.224  0.00  0.00    +0.000 OA
ATOM     32  C   UNL     1      51.926   8.625  12.922  0.00  0.00    +0.000 A 
ATOM     33  H   UNL     1      54.048   9.819  15.134  0.00  0.00    +0.000 HD
ENDBRANCH  20  23
ENDBRANCH  18  19
ENDBRANCH   4  18
TORSDOF 6
ENDMDL
MODEL 8
REMARK VINA RESULT:    -6.763      4.282      5.658
REMARK INTER + INTRA:         -10.412
REMARK INTER:                  -9.351
REMARK INTRA:                  -1.061
REMARK UNBOUND:                -1.277
REMARK  Name = 
REMARK  7 active torsions:
REMARK  status: ('A' for Active; 'I' for Inactive)
REMARK    1  A    between atoms: C_1  and  C_2
REMARK    2  A    between atoms: C_5  and  C_6
REMARK    3  A    between atoms: N_8  and  C_9
REMARK    4  A    between atoms: C_9  and  C_10
REMARK    5  A    between atoms: C_13  and  C_14
REMARK    6  A    between atoms: C_14  and  N_15
REMARK    7  A    between atoms: C_16  and  C_18
REMARK                            x       y       z     vdW  Elec       q    Type
REMARK                         _______ _______ _______ _____ _____    ______ ____
ROOT
ATOM      1  C   UNL     1      45.472   6.619  11.553  0.00  0.00    +0.000 A 
ATOM      2  C   UNL     1      44.947   7.689  12.288  0.00  0.00    +0.000 A 
ATOM      3  C   UNL     1      45.785   8.705  12.775  0.00  0.00    +0.000 A 
ATOM      4  C   UNL     1      47.164   8.678  12.525  0.00  0.00    +0.000 A 
ATOM      5  C   UNL     1      47.687   7.590  11.810  0.00  0.00    +0.000 A 
ATOM      6  C   UNL     1      46.852   6.580  11.318  0.00  0.00    +0.000 A 
ENDROOT
BRANCH   1   7
ATOM      7  C   UNL     1      44.565   5.531  11.043  0.00  0.00    +0.000 C 
BRANCH   7  10
ATOM      8  C   UNL     1      44.605   3.711   9.423  0.00  0.00    +0.000 C 
ATOM      9  O   UNL     1      43.889   3.021  10.144  0.00  0.00    +0.000 OA
ATOM     10  N   UNL     1      45.002   4.981   9.781  0.00  0.00    +0.000 N 
ATOM     11  H   UNL     1      45.704   5.469   9.241  0.00  0.00    +0.000 HD
BRANCH   8  16
ATOM     12  C   UNL     1      46.783   2.859   5.417  0.00  0.00    +0.000 C 
ATOM     13  C   UNL     1      47.246   2.993   6.866  0.00  0.00    +0.000 C 
ATOM     14  C   UNL     1      47.039   1.713   7.669  0.00  0.00    +0.000 C 
ATOM     15  C   UNL     1      45.575   1.748   8.107  0.00  0.00    +0.000 C 
ATOM     16  C   UNL     1      45.153   3.226   8.085  0.00  0.00    +0.000 C 
ATOM     17  C   UNL     1      46.407   3.999   7.651  0.00  0.00    +0.000 C 
ENDBRANCH   8  16
ENDBRANCH   7  10
ENDBRANCH   1   7
BRANCH   4  18
ATOM     18  C   UNL     1      48.085   9.779  13.000  0.00  0.00    +0.000 C 
BRANCH  18  19
ATOM     19  N   UNL     1      49.233   9.941  12.147  0.00  0.00    +0.000 N 
ATOM     20  C   UNL     1      50.477  10.240  12.652  0.00  0.00    +0.000 C 
ATOM     21  O   UNL     1      50.690  10.374  13.851  0.00  0.00    +0.000 OA
ATOM     22  H   UNL     1      49.045  10.174  11.178  0.00  0.00    +0.000 HD
BRANCH  20  23
ATOM     23  C   UNL     1      51.558  10.322  11.660  0.00  0.00    +0.000 A 
ATOM     24  C   UNL     1      52.240  11.514  11.461  0.00  0.00    +0.000 A 
ATOM     25  S   UNL     1      53.488  11.399  10.303  0.00  0.00    +0.000 S 
ATOM     26  C   UNL     1      53.127   9.767   9.989  0.00  0.00    +0.000 A 
ATOM     27  N   UNL     1      53.812   9.061   9.053  0.00  0.00    +0.000 NA
ATOM     28  C   UNL     1      53.416   7.843   8.894  0.00  0.00    +0.000 A 
ATOM     29  N   UNL     1      52.393   7.264   9.600  0.00  0.00    +0.000 N 
ATOM     30  C   UNL     1      51.705   7.919  10.592  0.00  0.00    +0.000 A 
ATOM     31  O   UNL     1      50.852   7.345  11.261  0.00  0.00    +0.000 OA
ATOM     32  C   UNL     1      52.091   9.306  10.780  0.00  0.00    +0.000 A 
ATOM     33  H   UNL     1      52.146   6.298   9.450  0.00  0.00    +0.000 HD
ENDBRANCH  20  23
ENDBRANCH  18  19
ENDBRANCH   4  18
TORSDOF 6
ENDMDL
MODEL 9
REMARK VINA RESULT:    -6.619      4.713      7.508
REMARK INTER + INTRA:         -10.218
REMARK INTER:                  -9.209
REMARK INTRA:                  -1.009
REMARK UNBOUND:                -1.277
REMARK  Name = 
REMARK  7 active torsions:
REMARK  status: ('A' for Active; 'I' for Inactive)
REMARK    1  A    between atoms: C_1  and  C_2
REMARK    2  A    between atoms: C_5  and  C_6
REMARK    3  A    between atoms: N_8  and  C_9
REMARK    4  A    between atoms: C_9  and  C_10
REMARK    5  A    between atoms: C_13  and  C_14
REMARK    6  A    between atoms: C_14  and  N_15
REMARK    7  A    between atoms: C_16  and  C_18
REMARK                            x       y       z     vdW  Elec       q    Type
REMARK                         _______ _______ _______ _____ _____    ______ ____
ROOT
ATOM      1  C   UNL     1      50.243   8.827  11.460  0.00  0.00    +0.000 A 
ATOM      2  C   UNL     1      49.284   9.847  11.505  0.00  0.00    +0.000 A 
ATOM      3  C   UNL     1      47.998   9.599  12.008  0.00  0.00    +0.000 A 
ATOM      4  C   UNL     1      47.648   8.330  12.489  0.00  0.00    +0.000 A 
ATOM      5  C   UNL     1      48.605   7.306  12.418  0.00  0.00    +0.000 A 
ATOM      6  C   UNL     1      49.891   7.553  11.922  0.00  0.00    +0.000 A 
ENDROOT
BRANCH   1   7
ATOM      7  C   UNL     1      51.617   9.101  10.910  0.00  0.00    +0.000 C 
BRANCH   7  10
ATOM      8  C   UNL     1      53.197   7.346  10.308  0.00  0.00    +0.000 C 
ATOM      9  O   UNL     1      53.836   7.532  11.340  0.00  0.00    +0.000 OA
ATOM     10  N   UNL     1      52.072   8.078   9.997  0.00  0.00    +0.000 N 
ATOM     11  H   UNL     1      51.651   8.006   9.080  0.00  0.00    +0.000 HD
BRANCH   8  16
ATOM     12  C   UNL     1      53.789   4.507   6.688  0.00  0.00    +0.000 C 
ATOM     13  C   UNL     1      53.726   6.024   6.843  0.00  0.00    +0.000 C 
ATOM     14  C   UNL     1      55.053   6.622   7.303  0.00  0.00    +0.000 C 
ATOM     15  C   UNL     1      55.067   6.441   8.821  0.00  0.00    +0.000 C 
ATOM     16  C   UNL     1      53.598   6.317   9.256  0.00  0.00    +0.000 C 
ATOM     17  C   UNL     1      52.781   6.453   7.962  0.00  0.00    +0.000 C 
ENDBRANCH   8  16
ENDBRANCH   7  10
ENDBRANCH   1   7
BRANCH   4  18
ATOM     18  C   UNL     1      46.283   8.044  13.076  0.00  0.00    +0.000 C 
BRANCH  18  19
ATOM     19  N   UNL     1      45.799   6.735  12.726  0.00  0.00    +0.000 N 
ATOM     20  C   UNL     1      44.883   6.545  11.717  0.00  0.00    +0.000 C 
ATOM     21  O   UNL     1      44.434   7.469  11.049  0.00  0.00    +0.000 OA
ATOM     22  H   UNL     1      45.870   6.021  13.442  0.00  0.00    +0.000 HD
BRANCH  20  23
ATOM     23  C   UNL     1      44.525   5.146  11.444  0.00  0.00    +0.000 A 
ATOM     24  C   UNL     1      43.771   4.424  12.357  0.00  0.00    +0.000 A 
ATOM     25  S   UNL     1      43.420   2.835  11.843  0.00  0.00    +0.000 S 
ATOM     26  C   UNL     1      44.307   3.041  10.406  0.00  0.00    +0.000 A 
ATOM     27  N   UNL     1      44.443   2.029   9.511  0.00  0.00    +0.000 NA
ATOM     28  C   UNL     1      45.166   2.310   8.480  0.00  0.00    +0.000 A 
ATOM     29  N   UNL     1      45.762   3.525   8.261  0.00  0.00    +0.000 N 
ATOM     30  C   UNL     1      45.611   4.595   9.109  0.00  0.00    +0.000 A 
ATOM     31  O   UNL     1      46.088   5.693   8.840  0.00  0.00    +0.000 OA
ATOM     32  C   UNL     1      44.835   4.314  10.304  0.00  0.00    +0.000 A 
ATOM     33  H   UNL     1      46.295   3.694   7.421  0.00  0.00    +0.000 HD
ENDBRANCH  20  23
ENDBRANCH  18  19
ENDBRANCH   4  18
TORSDOF 6
ENDMDL
