MODEL 1
REMARK VINA RESULT:    -7.938      0.000      0.000
REMARK INTER + INTRA:          -9.509
REMARK INTER:                  -9.098
REMARK INTRA:                  -0.412
REMARK UNBOUND:                -0.412
REMARK  Name = 
REMARK  3 active torsions:
REMARK  status: ('A' for Active; 'I' for Inactive)
REMARK    1  A    between atoms: O_1  and  C_2
REMARK    2  A    between atoms: N_9  and  C_10
REMARK    3  A    between atoms: C_10  and  C_11
REMARK                            x       y       z     vdW  Elec       q    Type
REMARK                         _______ _______ _______ _____ _____    ______ ____
ROOT
ATOM      1  C   UNL     1      46.470   5.983  13.170  0.00  0.00    +0.000 A 
ATOM      2  C   UNL     1      46.715   6.473  11.895  0.00  0.00    +0.000 A 
ATOM      3  C   UNL     1      46.050   5.903  10.808  0.00  0.00    +0.000 A 
ATOM      4  C   UNL     1      45.170   4.857  11.101  0.00  0.00    +0.000 A 
ATOM      5  C   UNL     1      44.974   4.448  12.423  0.00  0.00    +0.000 A 
ATOM      6  C   UNL     1      44.022   3.405  12.418  0.00  0.00    +0.000 A 
ATOM      7  C   UNL     1      43.669   3.172  11.109  0.00  0.00    +0.000 A 
ATOM      8  N   UNL     1      44.377   4.045  10.313  0.00  0.00    +0.000 N 
ATOM      9  N   UNL     1      45.617   4.996  13.478  0.00  0.00    +0.000 NA
ENDROOT
BRANCH   1  10
ATOM     10  O   UNL     1      47.134   6.506  14.246  0.00  0.00    +0.000 OA
ATOM     11  H   UNL     1      47.048   5.888  14.984  0.00  0.00    +0.000 HD
ENDBRANCH   1  10
BRANCH   8  12
ATOM     12  C   UNL     1      44.344   4.027   8.854  0.00  0.00    +0.000 C 
BRANCH  12  13
ATOM     13  C   UNL     1      45.451   3.181   8.282  0.00  0.00    +0.000 A 
ATOM     14  C   UNL     1      46.414   3.744   7.434  0.00  0.00    +0.000 A 
ATOM     15  C   UNL     1      47.402   2.946   6.856  0.00  0.00    +0.000 A 
ATOM     16  C   UNL     1      47.442   1.579   7.121  0.00  0.00    +0.000 A 
ATOM     17  C   UNL     1      46.503   1.010   7.978  0.00  0.00    +0.000 A 
ATOM     18  C   UNL     1      45.515   1.806   8.559  0.00  0.00    +0.000 A 
ENDBRANCH  12  13
ENDBRANCH   8  12
TORSDOF 3
ENDMDL
MODEL 2
REMARK VINA RESULT:    -7.169      1.177      1.995
REMARK INTER + INTRA:          -8.629
REMARK INTER:                  -8.232
REMARK INTRA:                  -0.397
REMARK UNBOUND:                -0.412
REMARK  Name = 
REMARK  3 active torsions:
REMARK  status: ('A' for Active; 'I' for Inactive)
REMARK    1  A    between atoms: O_1  and  C_2
REMARK    2  A    between atoms: N_9  and  C_10
REMARK    3  A    between atoms: C_10  and  C_11
REMARK                            x       y       z     vdW  Elec       q    Type
REMARK                         _______ _______ _______ _____ _____    ______ ____
ROOT
ATOM      1  C   UNL     1      46.547   4.894  14.051  0.00  0.00    +0.000 A 
ATOM      2  C   UNL     1      46.771   3.611  13.569  0.00  0.00    +0.000 A 
ATOM      3  C   UNL     1      46.096   3.189  12.423  0.00  0.00    +0.000 A 
ATOM      4  C   UNL     1      45.227   4.117  11.839  0.00  0.00    +0.000 A 
ATOM      5  C   UNL     1      45.086   5.394  12.388  0.00  0.00    +0.000 A 
ATOM      6  C   UNL     1      44.175   6.114  11.584  0.00  0.00    +0.000 A 
ATOM      7  C   UNL     1      43.754   5.272  10.580  0.00  0.00    +0.000 A 
ATOM      8  N   UNL     1      44.384   4.058  10.746  0.00  0.00    +0.000 N 
ATOM      9  N   UNL     1      45.736   5.806  13.499  0.00  0.00    +0.000 NA
ENDROOT
BRANCH   1  10
ATOM     10  O   UNL     1      47.174   5.317  15.191  0.00  0.00    +0.000 OA
ATOM     11  H   UNL     1      47.075   6.277  15.252  0.00  0.00    +0.000 HD
ENDBRANCH   1  10
BRANCH   8  12
ATOM     12  C   UNL     1      44.110   2.880   9.930  0.00  0.00    +0.000 C 
BRANCH  12  13
ATOM     13  C   UNL     1      45.144   2.697   8.851  0.00  0.00    +0.000 A 
ATOM     14  C   UNL     1      45.725   1.442   8.624  0.00  0.00    +0.000 A 
ATOM     15  C   UNL     1      46.727   1.287   7.666  0.00  0.00    +0.000 A 
ATOM     16  C   UNL     1      47.159   2.383   6.922  0.00  0.00    +0.000 A 
ATOM     17  C   UNL     1      46.576   3.632   7.123  0.00  0.00    +0.000 A 
ATOM     18  C   UNL     1      45.572   3.789   8.079  0.00  0.00    +0.000 A 
ENDBRANCH  12  13
ENDBRANCH   8  12
TORSDOF 3
ENDMDL
MODEL 3
REMARK VINA RESULT:    -7.096      1.395      2.390
REMARK INTER + INTRA:          -8.545
REMARK INTER:                  -8.047
REMARK INTRA:                  -0.498
REMARK UNBOUND:                -0.412
REMARK  Name = 
REMARK  3 active torsions:
REMARK  status: ('A' for Active; 'I' for Inactive)
REMARK    1  A    between atoms: O_1  and  C_2
REMARK    2  A    between atoms: N_9  and  C_10
REMARK    3  A    between atoms: C_10  and  C_11
REMARK                            x       y       z     vdW  Elec       q    Type
REMARK                         _______ _______ _______ _____ _____    ______ ____
ROOT
ATOM      1  C   UNL     1      47.083   4.661  14.309  0.00  0.00    +0.000 A 
ATOM      2  C   UNL     1      46.795   3.458  13.680  0.00  0.00    +0.000 A 
ATOM      3  C   UNL     1      45.959   3.458  12.563  0.00  0.00    +0.000 A 
ATOM      4  C   UNL     1      45.466   4.703  12.158  0.00  0.00    +0.000 A 
ATOM      5  C   UNL     1      45.832   5.864  12.845  0.00  0.00    +0.000 A 
ATOM      6  C   UNL     1      45.213   6.960  12.205  0.00  0.00    +0.000 A 
ATOM      7  C   UNL     1      44.465   6.463  11.163  0.00  0.00    +0.000 A 
ATOM      8  N   UNL     1      44.611   5.093  11.147  0.00  0.00    +0.000 N 
ATOM      9  N   UNL     1      46.640   5.867  13.929  0.00  0.00    +0.000 NA
ENDROOT
BRANCH   1  10
ATOM     10  O   UNL     1      47.875   4.680  15.424  0.00  0.00    +0.000 OA
ATOM     11  H   UNL     1      47.385   4.270  16.150  0.00  0.00    +0.000 HD
ENDBRANCH   1  10
BRANCH   8  12
ATOM     12  C   UNL     1      43.883   4.208  10.243  0.00  0.00    +0.000 C 
BRANCH  12  13
ATOM     13  C   UNL     1      44.803   3.544   9.252  0.00  0.00    +0.000 A 
ATOM     14  C   UNL     1      44.961   2.152   9.246  0.00  0.00    +0.000 A 
ATOM     15  C   UNL     1      45.861   1.544   8.370  0.00  0.00    +0.000 A 
ATOM     16  C   UNL     1      46.610   2.320   7.488  0.00  0.00    +0.000 A 
ATOM     17  C   UNL     1      46.448   3.704   7.469  0.00  0.00    +0.000 A 
ATOM     18  C   UNL     1      45.547   4.313   8.343  0.00  0.00    +0.000 A 
ENDBRANCH  12  13
ENDBRANCH   8  12
TORSDOF 3
ENDMDL
MODEL 4
REMARK VINA RESULT:    -7.061      2.848      5.571
REMARK INTER + INTRA:          -8.505
REMARK INTER:                  -8.026
REMARK INTRA:                  -0.479
REMARK UNBOUND:                -0.412
REMARK  Name = 
REMARK  3 active torsions:
REMARK  status: ('A' for Active; 'I' for Inactive)
REMARK    1  A    between atoms: O_1  and  C_2
REMARK    2  A    between atoms: N_9  and  C_10
REMARK    3  A    between atoms: C_10  and  C_11
REMARK                            x       y       z     vdW  Elec       q    Type
REMARK                         _______ _______ _______ _____ _____    ______ ____
ROOT
ATOM      1  C   UNL     1      47.742   2.187   6.444  0.00  0.00    +0.000 A 
ATOM      2  C   UNL     1      47.619   3.565   6.561  0.00  0.00    +0.000 A 
ATOM      3  C   UNL     1      46.661   4.091   7.428  0.00  0.00    +0.000 A 
ATOM      4  C   UNL     1      45.882   3.162   8.126  0.00  0.00    +0.000 A 
ATOM      5  C   UNL     1      46.096   1.792   7.957  0.00  0.00    +0.000 A 
ATOM      6  C   UNL     1      45.193   1.104   8.798  0.00  0.00    +0.000 A 
ATOM      7  C   UNL     1      44.429   2.048   9.444  0.00  0.00    +0.000 A 
ATOM      8  N   UNL     1      44.841   3.294   9.025  0.00  0.00    +0.000 N 
ATOM      9  N   UNL     1      47.022   1.278   7.116  0.00  0.00    +0.000 NA
ENDROOT
BRANCH   1  10
ATOM     10  O   UNL     1      48.653   1.650   5.577  0.00  0.00    +0.000 OA
ATOM     11  H   UNL     1      49.425   2.232   5.551  0.00  0.00    +0.000 HD
ENDBRANCH   1  10
BRANCH   8  12
ATOM     12  C   UNL     1      44.192   4.541   9.417  0.00  0.00    +0.000 C 
BRANCH  12  13
ATOM     13  C   UNL     1      44.788   5.105  10.680  0.00  0.00    +0.000 A 
ATOM     14  C   UNL     1      45.894   5.963  10.626  0.00  0.00    +0.000 A 
ATOM     15  C   UNL     1      46.483   6.435  11.800  0.00  0.00    +0.000 A 
ATOM     16  C   UNL     1      45.971   6.058  13.040  0.00  0.00    +0.000 A 
ATOM     17  C   UNL     1      44.859   5.222  13.107  0.00  0.00    +0.000 A 
ATOM     18  C   UNL     1      44.267   4.751  11.935  0.00  0.00    +0.000 A 
ENDBRANCH  12  13
ENDBRANCH   8  12
TORSDOF 3
ENDMDL
MODEL 5
REMARK VINA RESULT:    -6.936      3.045      6.045
REMARK INTER + INTRA:          -8.361
REMARK INTER:                  -8.165
REMARK INTRA:                  -0.196
REMARK UNBOUND:                -0.412
REMARK  Name = 
REMARK  3 active torsions:
REMARK  status: ('A' for Active; 'I' for Inactive)
REMARK    1  A    between atoms: O_1  and  C_2
REMARK    2  A    between atoms: N_9  and  C_10
REMARK    3  A    between atoms: C_10  and  C_11
REMARK                            x       y       z     vdW  Elec       q    Type
REMARK                         _______ _______ _______ _____ _____    ______ ____
ROOT
ATOM      1  C   UNL     1      47.747   1.868   6.361  0.00  0.00    +0.000 A 
ATOM      2  C   UNL     1      47.155   0.827   7.064  0.00  0.00    +0.000 A 
ATOM      3  C   UNL     1      46.203   1.123   8.041  0.00  0.00    +0.000 A 
ATOM      4  C   UNL     1      45.918   2.478   8.237  0.00  0.00    +0.000 A 
ATOM      5  C   UNL     1      46.552   3.453   7.462  0.00  0.00    +0.000 A 
ATOM      6  C   UNL     1      46.054   4.714   7.857  0.00  0.00    +0.000 A 
ATOM      7  C   UNL     1      45.151   4.502   8.873  0.00  0.00    +0.000 A 
ATOM      8  N   UNL     1      45.081   3.147   9.109  0.00  0.00    +0.000 N 
ATOM      9  N   UNL     1      47.476   3.170   6.517  0.00  0.00    +0.000 NA
ENDROOT
BRANCH   1  10
ATOM     10  O   UNL     1      48.705   1.602   5.421  0.00  0.00    +0.000 OA
ATOM     11  H   UNL     1      49.503   1.303   5.878  0.00  0.00    +0.000 HD
ENDBRANCH   1  10
BRANCH   8  12
ATOM     12  C   UNL     1      44.302   2.548  10.188  0.00  0.00    +0.000 C 
BRANCH  12  13
ATOM     13  C   UNL     1      44.147   3.491  11.352  0.00  0.00    +0.000 A 
ATOM     14  C   UNL     1      42.954   4.202  11.541  0.00  0.00    +0.000 A 
ATOM     15  C   UNL     1      42.834   5.121  12.584  0.00  0.00    +0.000 A 
ATOM     16  C   UNL     1      43.902   5.338  13.451  0.00  0.00    +0.000 A 
ATOM     17  C   UNL     1      45.086   4.624  13.287  0.00  0.00    +0.000 A 
ATOM     18  C   UNL     1      45.208   3.702  12.247  0.00  0.00    +0.000 A 
ENDBRANCH  12  13
ENDBRANCH   8  12
TORSDOF 3
ENDMDL
MODEL 6
REMARK VINA RESULT:    -6.720      1.508      2.493
REMARK INTER + INTRA:          -8.114
REMARK INTER:                  -7.651
REMARK INTRA:                  -0.463
REMARK UNBOUND:                -0.412
REMARK  Name = 
REMARK  3 active torsions:
REMARK  status: ('A' for Active; 'I' for Inactive)
REMARK    1  A    between atoms: O_1  and  C_2
REMARK    2  A    between atoms: N_9  and  C_10
REMARK    3  A    between atoms: C_10  and  C_11
REMARK                            x       y       z     vdW  Elec       q    Type
REMARK                         _______ _______ _______ _____ _____    ______ ____
ROOT
ATOM      1  C   UNL     1      43.794   4.028  13.082  0.00  0.00    +0.000 A 
ATOM      2  C   UNL     1      43.264   3.093  12.204  0.00  0.00    +0.000 A 
ATOM      3  C   UNL     1      43.628   3.141  10.858  0.00  0.00    +0.000 A 
ATOM      4  C   UNL     1      44.519   4.156  10.494  0.00  0.00    +0.000 A 
ATOM      5  C   UNL     1      45.016   5.038  11.457  0.00  0.00    +0.000 A 
ATOM      6  C   UNL     1      45.905   5.927  10.813  0.00  0.00    +0.000 A 
ATOM      7  C   UNL     1      45.923   5.600   9.477  0.00  0.00    +0.000 A 
ATOM      8  N   UNL     1      45.071   4.534   9.286  0.00  0.00    +0.000 N 
ATOM      9  N   UNL     1      44.665   4.996  12.761  0.00  0.00    +0.000 NA
ENDROOT
BRANCH   1  10
ATOM     10  O   UNL     1      43.427   4.018  14.399  0.00  0.00    +0.000 OA
ATOM     11  H   UNL     1      43.758   4.828  14.812  0.00  0.00    +0.000 HD
ENDBRANCH   1  10
BRANCH   8  12
ATOM     12  C   UNL     1      44.751   3.974   7.977  0.00  0.00    +0.000 C 
BRANCH  12  13
ATOM     13  C   UNL     1      45.841   3.061   7.479  0.00  0.00    +0.000 A 
ATOM     14  C   UNL     1      46.593   3.399   6.346  0.00  0.00    +0.000 A 
ATOM     15  C   UNL     1      47.560   2.523   5.851  0.00  0.00    +0.000 A 
ATOM     16  C   UNL     1      47.789   1.303   6.483  0.00  0.00    +0.000 A 
ATOM     17  C   UNL     1      47.063   0.964   7.622  0.00  0.00    +0.000 A 
ATOM     18  C   UNL     1      46.097   1.839   8.121  0.00  0.00    +0.000 A 
ENDBRANCH  12  13
ENDBRANCH   8  12
TORSDOF 3
ENDMDL
MODEL 7
REMARK VINA RESULT:    -6.116      2.618      5.509
REMARK INTER + INTRA:          -7.421
REMARK INTER:                  -7.110
REMARK INTRA:                  -0.311
REMARK UNBOUND:                -0.412
REMARK  Name = 
REMARK  3 active torsions:
REMARK  status: ('A' for Active; 'I' for Inactive)
REMARK    1  A    between atoms: O_1  and  C_2
REMARK    2  A    between atoms: N_9  and  C_10
REMARK    3  A    between atoms: C_10  and  C_11
REMARK                            x       y       z     vdW  Elec       q    Type
REMARK                         _______ _______ _______ _____ _____    ______ ____
ROOT
ATOM      1  C   UNL     1      46.022   2.508   8.039  0.00  0.00    +0.000 A 
ATOM      2  C   UNL     1      46.154   3.883   7.895  0.00  0.00    +0.000 A 
ATOM      3  C   UNL     1      45.475   4.726   8.775  0.00  0.00    +0.000 A 
ATOM      4  C   UNL     1      44.697   4.102   9.756  0.00  0.00    +0.000 A 
ATOM      5  C   UNL     1      44.646   2.707   9.834  0.00  0.00    +0.000 A 
ATOM      6  C   UNL     1      43.815   2.364  10.923  0.00  0.00    +0.000 A 
ATOM      7  C   UNL     1      43.353   3.535  11.476  0.00  0.00    +0.000 A 
ATOM      8  N   UNL     1      43.879   4.586  10.757  0.00  0.00    +0.000 N 
ATOM      9  N   UNL     1      45.300   1.887   8.982  0.00  0.00    +0.000 NA
ENDROOT
BRANCH   1  10
ATOM     10  O   UNL     1      46.654   1.664   7.168  0.00  0.00    +0.000 OA
ATOM     11  H   UNL     1      46.034   1.440   6.461  0.00  0.00    +0.000 HD
ENDBRANCH   1  10
BRANCH   8  12
ATOM     12  C   UNL     1      43.530   5.985  10.986  0.00  0.00    +0.000 C 
BRANCH  12  13
ATOM     13  C   UNL     1      44.644   6.731  11.674  0.00  0.00    +0.000 A 
ATOM     14  C   UNL     1      45.617   6.042  12.410  0.00  0.00    +0.000 A 
ATOM     15  C   UNL     1      46.611   6.739  13.097  0.00  0.00    +0.000 A 
ATOM     16  C   UNL     1      46.646   8.132  13.054  0.00  0.00    +0.000 A 
ATOM     17  C   UNL     1      45.697   8.828  12.310  0.00  0.00    +0.000 A 
ATOM     18  C   UNL     1      44.703   8.133  11.620  0.00  0.00    +0.000 A 
ENDBRANCH  12  13
ENDBRANCH   8  12
TORSDOF 3
ENDMDL
MODEL 8
REMARK VINA RESULT:    -5.938      2.678      5.557
REMARK INTER + INTRA:          -7.217
REMARK INTER:                  -6.820
REMARK INTRA:                  -0.397
REMARK UNBOUND:                -0.412
REMARK  Name = 
REMARK  3 active torsions:
REMARK  status: ('A' for Active; 'I' for Inactive)
REMARK    1  A    between atoms: O_1  and  C_2
REMARK    2  A    between atoms: N_9  and  C_10
REMARK    3  A    between atoms: C_10  and  C_11
REMARK                            x       y       z     vdW  Elec       q    Type
REMARK                         _______ _______ _______ _____ _____    ______ ____
ROOT
ATOM      1  C   UNL     1      44.519   2.513   9.535  0.00  0.00    +0.000 A 
ATOM      2  C   UNL     1      45.233   3.549   8.948  0.00  0.00    +0.000 A 
ATOM      3  C   UNL     1      45.266   4.794   9.579  0.00  0.00    +0.000 A 
ATOM      4  C   UNL     1      44.557   4.899  10.780  0.00  0.00    +0.000 A 
ATOM      5  C   UNL     1      43.885   3.790  11.302  0.00  0.00    +0.000 A 
ATOM      6  C   UNL     1      43.289   4.178  12.522  0.00  0.00    +0.000 A 
ATOM      7  C   UNL     1      43.577   5.509  12.718  0.00  0.00    +0.000 A 
ATOM      8  N   UNL     1      44.334   5.945  11.653  0.00  0.00    +0.000 N 
ATOM      9  N   UNL     1      43.850   2.583  10.694  0.00  0.00    +0.000 NA
ENDROOT
BRANCH   1  10
ATOM     10  O   UNL     1      44.448   1.295   8.919  0.00  0.00    +0.000 OA
ATOM     11  H   UNL     1      43.516   1.088   8.764  0.00  0.00    +0.000 HD
ENDBRANCH   1  10
BRANCH   8  12
ATOM     12  C   UNL     1      44.744   7.332  11.460  0.00  0.00    +0.000 C 
BRANCH  12  13
ATOM     13  C   UNL     1      46.067   7.620  12.120  0.00  0.00    +0.000 A 
ATOM     14  C   UNL     1      46.154   8.539  13.174  0.00  0.00    +0.000 A 
ATOM     15  C   UNL     1      47.390   8.850  13.743  0.00  0.00    +0.000 A 
ATOM     16  C   UNL     1      48.551   8.244  13.267  0.00  0.00    +0.000 A 
ATOM     17  C   UNL     1      48.476   7.314  12.234  0.00  0.00    +0.000 A 
ATOM     18  C   UNL     1      47.241   7.000  11.665  0.00  0.00    +0.000 A 
ENDBRANCH  12  13
ENDBRANCH   8  12
TORSDOF 3
ENDMDL
MODEL 9
REMARK VINA RESULT:    -5.661      3.588      5.713
REMARK INTER + INTRA:          -6.900
REMARK INTER:                  -7.049
REMARK INTRA:                   0.148
REMARK UNBOUND:                -0.412
REMARK  Name = 
REMARK  3 active torsions:
REMARK  status: ('A' for Active; 'I' for Inactive)
REMARK    1  A    between atoms: O_1  and  C_2
REMARK    2  A    between atoms: N_9  and  C_10
REMARK    3  A    between atoms: C_10  and  C_11
REMARK                            x       y       z     vdW  Elec       q    Type
REMARK                         _______ _______ _______ _____ _____    ______ ____
ROOT
ATOM      1  C   UNL     1      43.715   3.137  11.717  0.00  0.00    +0.000 A 
ATOM      2  C   UNL     1      43.364   4.285  11.020  0.00  0.00    +0.000 A 
ATOM      3  C   UNL     1      44.047   5.474  11.280  0.00  0.00    +0.000 A 
ATOM      4  C   UNL     1      45.055   5.410  12.248  0.00  0.00    +0.000 A 
ATOM      5  C   UNL     1      45.350   4.199  12.881  0.00  0.00    +0.000 A 
ATOM      6  C   UNL     1      46.416   4.427  13.778  0.00  0.00    +0.000 A 
ATOM      7  C   UNL     1      46.741   5.762  13.705  0.00  0.00    +0.000 A 
ATOM      8  N   UNL     1      45.905   6.356  12.786  0.00  0.00    +0.000 N 
ATOM      9  N   UNL     1      44.689   3.046  12.633  0.00  0.00    +0.000 NA
ENDROOT
BRANCH   1  10
ATOM     10  O   UNL     1      43.038   1.969  11.500  0.00  0.00    +0.000 OA
ATOM     11  H   UNL     1      42.292   2.156  10.915  0.00  0.00    +0.000 HD
ENDBRANCH   1  10
BRANCH   8  12
ATOM     12  C   UNL     1      45.882   7.790  12.514  0.00  0.00    +0.000 C 
BRANCH  12  13
ATOM     13  C   UNL     1      47.257   8.318  12.197  0.00  0.00    +0.000 A 
ATOM     14  C   UNL     1      47.527   9.692  12.262  0.00  0.00    +0.000 A 
ATOM     15  C   UNL     1      48.783  10.185  11.909  0.00  0.00    +0.000 A 
ATOM     16  C   UNL     1      49.784   9.312  11.490  0.00  0.00    +0.000 A 
ATOM     17  C   UNL     1      49.536   7.943  11.440  0.00  0.00    +0.000 A 
ATOM     18  C   UNL     1      48.281   7.447  11.795  0.00  0.00    +0.000 A 
ENDBRANCH  12  13
ENDBRANCH   8  12
TORSDOF 3
ENDMDL
