MODEL 1
REMARK VINA RESULT:    -7.714      0.000      0.000
REMARK INTER + INTRA:         -11.195
REMARK INTER:                 -10.420
REMARK INTRA:                  -0.775
REMARK UNBOUND:                -0.775
REMARK  Name = 
REMARK  9 active torsions:
REMARK  status: ('A' for Active; 'I' for Inactive)
REMARK    1  A    between atoms: C_1  and  C_2
REMARK    2  A    between atoms: C_2  and  C_3
REMARK    3  A    between atoms: C_2  and  C_4
REMARK    4  A    between atoms: C_2  and  O_5
REMARK    5  A    between atoms: O_5  and  C_6
REMARK    6  A    between atoms: C_6  and  C_7
REMARK    7  A    between atoms: C_10  and  C_11
REMARK    8  A    between atoms: C_11  and  N_12
REMARK    9  A    between atoms: C_17  and  C_18
REMARK                            x       y       z     vdW  Elec       q    Type
REMARK                         _______ _______ _______ _____ _____    ______ ____
ROOT
ATOM      1  N   UNL     1      43.852   4.344  10.462  0.00  0.00    +0.000 N 
ATOM      2  C   UNL     1      43.368   3.210  11.058  0.00  0.00    +0.000 A 
ATOM      3  N   UNL     1      43.909   2.126  10.553  0.00  0.00    +0.000 NA
ATOM      4  C   UNL     1      44.781   2.573   9.593  0.00  0.00    +0.000 A 
ATOM      5  C   UNL     1      45.604   1.828   8.734  0.00  0.00    +0.000 A 
ATOM      6  C   UNL     1      46.423   2.510   7.823  0.00  0.00    +0.000 A 
ATOM      7  C   UNL     1      46.430   3.915   7.803  0.00  0.00    +0.000 A 
ATOM      8  C   UNL     1      45.618   4.674   8.656  0.00  0.00    +0.000 A 
ATOM      9  C   UNL     1      44.789   3.965   9.530  0.00  0.00    +0.000 A 
ENDROOT
BRANCH   6  10
ATOM     10  C   UNL     1      47.298   1.805   6.844  0.00  0.00    +0.000 C 
ATOM     11  N   UNL     1      48.342   2.487   6.284  0.00  0.00    +0.000 N 
ATOM     12  O   UNL     1      47.106   0.633   6.544  0.00  0.00    +0.000 OA
ATOM     13  H   UNL     1      48.593   3.442   6.488  0.00  0.00    +0.000 HD
ATOM     14  H   UNL     1      48.931   1.971   5.643  0.00  0.00    +0.000 HD
ENDBRANCH   6  10
BRANCH   1  15
ATOM     15  C   UNL     1      43.451   5.696  10.796  0.00  0.00    +0.000 C 
BRANCH  15  19
ATOM     16  C   UNL     1      46.521   7.603  13.059  0.00  0.00    +0.000 A 
ATOM     17  C   UNL     1      45.756   8.372  12.180  0.00  0.00    +0.000 A 
ATOM     18  C   UNL     1      44.735   7.768  11.441  0.00  0.00    +0.000 A 
ATOM     19  C   UNL     1      44.516   6.403  11.589  0.00  0.00    +0.000 A 
ATOM     20  N   UNL     1      45.237   5.642  12.451  0.00  0.00    +0.000 NA
ATOM     21  C   UNL     1      46.207   6.255  13.166  0.00  0.00    +0.000 A 
BRANCH  16  22
ATOM     22  C   UNL     1      47.692   8.177  13.803  0.00  0.00    +0.000 C 
BRANCH  22  23
ATOM     23  O   UNL     1      48.897   7.541  13.387  0.00  0.00    +0.000 OA
BRANCH  23  25
ATOM     24  C   UNL     1      51.164   8.464  13.572  0.00  0.00    +0.000 C 
ATOM     25  C   UNL     1      49.873   8.382  12.748  0.00  0.00    +0.000 C 
ATOM     26  C   UNL     1      49.316   9.782  12.461  0.00  0.00    +0.000 C 
ATOM     27  C   UNL     1      50.193   7.701  11.408  0.00  0.00    +0.000 C 
ENDBRANCH  23  25
ENDBRANCH  22  23
ENDBRANCH  16  22
ENDBRANCH  15  19
ENDBRANCH   1  15
TORSDOF 6
ENDMDL
MODEL 2
REMARK VINA RESULT:    -7.664      1.320      1.855
REMARK INTER + INTRA:         -11.127
REMARK INTER:                 -10.416
REMARK INTRA:                  -0.711
REMARK UNBOUND:                -0.775
REMARK  Name = 
REMARK  9 active torsions:
REMARK  status: ('A' for Active; 'I' for Inactive)
REMARK    1  A    between atoms: C_1  and  C_2
REMARK    2  A    between atoms: C_2  and  C_3
REMARK    3  A    between atoms: C_2  and  C_4
REMARK    4  A    between atoms: C_2  and  O_5
REMARK    5  A    between atoms: O_5  and  C_6
REMARK    6  A    between atoms: C_6  and  C_7
REMARK    7  A    between atoms: C_10  and  C_11
REMARK    8  A    between atoms: C_11  and  N_12
REMARK    9  A    between atoms: C_17  and  C_18
REMARK                            x       y       z     vdW  Elec       q    Type
REMARK                         _______ _______ _______ _____ _____    ______ ____
ROOT
ATOM      1  N   UNL     1      43.945   4.327  10.601  0.00  0.00    +0.000 N 
ATOM      2  C   UNL     1      43.425   3.174  11.126  0.00  0.00    +0.000 A 
ATOM      3  N   UNL     1      43.891   2.108  10.518  0.00  0.00    +0.000 NA
ATOM      4  C   UNL     1      44.751   2.588   9.562  0.00  0.00    +0.000 A 
ATOM      5  C   UNL     1      45.503   1.874   8.617  0.00  0.00    +0.000 A 
ATOM      6  C   UNL     1      46.324   2.586   7.730  0.00  0.00    +0.000 A 
ATOM      7  C   UNL     1      46.402   3.986   7.819  0.00  0.00    +0.000 A 
ATOM      8  C   UNL     1      45.660   4.713   8.758  0.00  0.00    +0.000 A 
ATOM      9  C   UNL     1      44.828   3.978   9.607  0.00  0.00    +0.000 A 
ENDROOT
BRANCH   6  10
ATOM     10  C   UNL     1      47.127   1.919   6.665  0.00  0.00    +0.000 C 
ATOM     11  N   UNL     1      47.873   2.693   5.821  0.00  0.00    +0.000 N 
ATOM     12  O   UNL     1      47.138   0.700   6.543  0.00  0.00    +0.000 OA
ATOM     13  H   UNL     1      47.946   3.698   5.861  0.00  0.00    +0.000 HD
ATOM     14  H   UNL     1      48.425   2.207   5.127  0.00  0.00    +0.000 HD
ENDBRANCH   6  10
BRANCH   1  15
ATOM     15  C   UNL     1      43.626   5.666  11.054  0.00  0.00    +0.000 C 
BRANCH  15  19
ATOM     16  C   UNL     1      46.940   7.311  13.174  0.00  0.00    +0.000 A 
ATOM     17  C   UNL     1      46.175   8.151  12.363  0.00  0.00    +0.000 A 
ATOM     18  C   UNL     1      45.075   7.634  11.673  0.00  0.00    +0.000 A 
ATOM     19  C   UNL     1      44.778   6.281  11.799  0.00  0.00    +0.000 A 
ATOM     20  N   UNL     1      45.499   5.452  12.596  0.00  0.00    +0.000 NA
ATOM     21  C   UNL     1      46.547   5.982  13.266  0.00  0.00    +0.000 A 
BRANCH  16  22
ATOM     22  C   UNL     1      48.187   7.788  13.860  0.00  0.00    +0.000 C 
BRANCH  22  23
ATOM     23  O   UNL     1      48.899   6.683  14.409  0.00  0.00    +0.000 OA
BRANCH  23  25
ATOM     24  C   UNL     1      50.779   6.778  15.985  0.00  0.00    +0.000 C 
ATOM     25  C   UNL     1      49.256   6.783  15.798  0.00  0.00    +0.000 C 
ATOM     26  C   UNL     1      48.597   5.678  16.635  0.00  0.00    +0.000 C 
ATOM     27  C   UNL     1      48.712   8.141  16.270  0.00  0.00    +0.000 C 
ENDBRANCH  23  25
ENDBRANCH  22  23
ENDBRANCH  16  22
ENDBRANCH  15  19
ENDBRANCH   1  15
TORSDOF 6
ENDMDL
MODEL 3
REMARK VINA RESULT:    -6.306      2.186      7.025
REMARK INTER + INTRA:          -9.293
REMARK INTER:                  -8.338
REMARK INTRA:                  -0.955
REMARK UNBOUND:                -0.775
REMARK  Name = 
REMARK  9 active torsions:
REMARK  status: ('A' for Active; 'I' for Inactive)
REMARK    1  A    between atoms: C_1  and  C_2
REMARK    2  A    between atoms: C_2  and  C_3
REMARK    3  A    between atoms: C_2  and  C_4
REMARK    4  A    between atoms: C_2  and  O_5
REMARK    5  A    between atoms: O_5  and  C_6
REMARK    6  A    between atoms: C_6  and  C_7
REMARK    7  A    between atoms: C_10  and  C_11
REMARK    8  A    between atoms: C_11  and  N_12
REMARK    9  A    between atoms: C_17  and  C_18
REMARK                            x       y       z     vdW  Elec       q    Type
REMARK                         _______ _______ _______ _____ _____    ______ ____
ROOT
ATOM      1  N   UNL     1      45.360   7.265  12.586  0.00  0.00    +0.000 N 
ATOM      2  C   UNL     1      44.928   8.509  12.212  0.00  0.00    +0.000 A 
ATOM      3  N   UNL     1      45.931   9.318  11.959  0.00  0.00    +0.000 NA
ATOM      4  C   UNL     1      47.059   8.567  12.173  0.00  0.00    +0.000 A 
ATOM      5  C   UNL     1      48.405   8.950  12.065  0.00  0.00    +0.000 A 
ATOM      6  C   UNL     1      49.401   8.000  12.335  0.00  0.00    +0.000 A 
ATOM      7  C   UNL     1      49.041   6.686  12.677  0.00  0.00    +0.000 A 
ATOM      8  C   UNL     1      47.703   6.287  12.785  0.00  0.00    +0.000 A 
ATOM      9  C   UNL     1      46.734   7.264  12.541  0.00  0.00    +0.000 A 
ENDROOT
BRANCH   6  10
ATOM     10  C   UNL     1      50.856   8.324  12.289  0.00  0.00    +0.000 C 
ATOM     11  N   UNL     1      51.606   8.145  13.417  0.00  0.00    +0.000 N 
ATOM     12  O   UNL     1      51.386   8.732  11.262  0.00  0.00    +0.000 OA
ATOM     13  H   UNL     1      51.265   7.792  14.296  0.00  0.00    +0.000 HD
ATOM     14  H   UNL     1      52.595   8.351  13.342  0.00  0.00    +0.000 HD
ENDBRANCH   6  10
BRANCH   1  15
ATOM     15  C   UNL     1      44.497   6.154  12.933  0.00  0.00    +0.000 C 
BRANCH  15  19
ATOM     16  C   UNL     1      44.598   3.192   9.866  0.00  0.00    +0.000 A 
ATOM     17  C   UNL     1      45.107   2.875  11.126  0.00  0.00    +0.000 A 
ATOM     18  C   UNL     1      45.069   3.826  12.149  0.00  0.00    +0.000 A 
ATOM     19  C   UNL     1      44.534   5.082  11.878  0.00  0.00    +0.000 A 
ATOM     20  N   UNL     1      44.019   5.404  10.666  0.00  0.00    +0.000 NA
ATOM     21  C   UNL     1      44.054   4.458   9.700  0.00  0.00    +0.000 A 
BRANCH  16  22
ATOM     22  C   UNL     1      44.702   2.245   8.706  0.00  0.00    +0.000 C 
BRANCH  22  23
ATOM     23  O   UNL     1      45.013   2.962   7.515  0.00  0.00    +0.000 OA
BRANCH  23  25
ATOM     24  C   UNL     1      46.417   2.815   5.506  0.00  0.00    +0.000 C 
ATOM     25  C   UNL     1      46.365   2.849   7.039  0.00  0.00    +0.000 C 
ATOM     26  C   UNL     1      47.078   1.630   7.638  0.00  0.00    +0.000 C 
ATOM     27  C   UNL     1      47.082   4.119   7.522  0.00  0.00    +0.000 C 
ENDBRANCH  23  25
ENDBRANCH  22  23
ENDBRANCH  16  22
ENDBRANCH  15  19
ENDBRANCH   1  15
TORSDOF 6
ENDMDL
MODEL 4
REMARK VINA RESULT:    -5.982      5.729      8.966
REMARK INTER + INTRA:          -8.855
REMARK INTER:                  -8.456
REMARK INTRA:                  -0.398
REMARK UNBOUND:                -0.775
REMARK  Name = 
REMARK  9 active torsions:
REMARK  status: ('A' for Active; 'I' for Inactive)
REMARK    1  A    between atoms: C_1  and  C_2
REMARK    2  A    between atoms: C_2  and  C_3
REMARK    3  A    between atoms: C_2  and  C_4
REMARK    4  A    between atoms: C_2  and  O_5
REMARK    5  A    between atoms: O_5  and  C_6
REMARK    6  A    between atoms: C_6  and  C_7
REMARK    7  A    between atoms: C_10  and  C_11
REMARK    8  A    between atoms: C_11  and  N_12
REMARK    9  A    between atoms: C_17  and  C_18
REMARK                            x       y       z     vdW  Elec       q    Type
REMARK                         _______ _______ _______ _____ _____    ______ ____
ROOT
ATOM      1  N   UNL     1      49.068   3.684  16.967  0.00  0.00    +0.000 N 
ATOM      2  C   UNL     1      48.815   2.473  16.381  0.00  0.00    +0.000 A 
ATOM      3  N   UNL     1      49.813   1.636  16.543  0.00  0.00    +0.000 NA
ATOM      4  C   UNL     1      50.750   2.330  17.267  0.00  0.00    +0.000 A 
ATOM      5  C   UNL     1      52.018   1.911  17.698  0.00  0.00    +0.000 A 
ATOM      6  C   UNL     1      52.810   2.804  18.434  0.00  0.00    +0.000 A 
ATOM      7  C   UNL     1      52.316   4.080  18.751  0.00  0.00    +0.000 A 
ATOM      8  C   UNL     1      51.052   4.513  18.332  0.00  0.00    +0.000 A 
ATOM      9  C   UNL     1      50.300   3.612  17.573  0.00  0.00    +0.000 A 
ENDROOT
BRANCH   6  10
ATOM     10  C   UNL     1      54.185   2.464  18.899  0.00  0.00    +0.000 C 
ATOM     11  N   UNL     1      54.377   2.153  20.216  0.00  0.00    +0.000 N 
ATOM     12  O   UNL     1      55.135   2.448  18.125  0.00  0.00    +0.000 OA
ATOM     13  H   UNL     1      53.656   2.115  20.918  0.00  0.00    +0.000 HD
ATOM     14  H   UNL     1      55.319   1.904  20.492  0.00  0.00    +0.000 HD
ENDBRANCH   6  10
BRANCH   1  15
ATOM     15  C   UNL     1      48.164   4.817  16.959  0.00  0.00    +0.000 C 
BRANCH  15  19
ATOM     16  C   UNL     1      46.561   5.517  13.070  0.00  0.00    +0.000 A 
ATOM     17  C   UNL     1      47.579   6.348  13.538  0.00  0.00    +0.000 A 
ATOM     18  C   UNL     1      48.129   6.125  14.804  0.00  0.00    +0.000 A 
ATOM     19  C   UNL     1      47.631   5.082  15.578  0.00  0.00    +0.000 A 
ATOM     20  N   UNL     1      46.654   4.252  15.133  0.00  0.00    +0.000 NA
ATOM     21  C   UNL     1      46.153   4.480  13.898  0.00  0.00    +0.000 A 
BRANCH  16  22
ATOM     22  C   UNL     1      45.867   5.769  11.762  0.00  0.00    +0.000 C 
BRANCH  22  23
ATOM     23  O   UNL     1      45.536   4.534  11.137  0.00  0.00    +0.000 OA
BRANCH  23  25
ATOM     24  C   UNL     1      43.320   5.591  11.125  0.00  0.00    +0.000 C 
ATOM     25  C   UNL     1      44.160   4.364  10.753  0.00  0.00    +0.000 C 
ATOM     26  C   UNL     1      43.558   3.085  11.351  0.00  0.00    +0.000 C 
ATOM     27  C   UNL     1      44.172   4.227   9.222  0.00  0.00    +0.000 C 
ENDBRANCH  23  25
ENDBRANCH  22  23
ENDBRANCH  16  22
ENDBRANCH  15  19
ENDBRANCH   1  15
TORSDOF 6
ENDMDL
MODEL 5
REMARK VINA RESULT:    -5.941      3.184      5.351
REMARK INTER + INTRA:          -8.800
REMARK INTER:                  -7.957
REMARK INTRA:                  -0.843
REMARK UNBOUND:                -0.775
REMARK  Name = 
REMARK  9 active torsions:
REMARK  status: ('A' for Active; 'I' for Inactive)
REMARK    1  A    between atoms: C_1  and  C_2
REMARK    2  A    between atoms: C_2  and  C_3
REMARK    3  A    between atoms: C_2  and  C_4
REMARK    4  A    between atoms: C_2  and  O_5
REMARK    5  A    between atoms: O_5  and  C_6
REMARK    6  A    between atoms: C_6  and  C_7
REMARK    7  A    between atoms: C_10  and  C_11
REMARK    8  A    between atoms: C_11  and  N_12
REMARK    9  A    between atoms: C_17  and  C_18
REMARK                            x       y       z     vdW  Elec       q    Type
REMARK                         _______ _______ _______ _____ _____    ______ ____
ROOT
ATOM      1  N   UNL     1      47.472   6.573  13.728  0.00  0.00    +0.000 N 
ATOM      2  C   UNL     1      47.845   5.718  14.730  0.00  0.00    +0.000 A 
ATOM      3  N   UNL     1      47.302   4.531  14.584  0.00  0.00    +0.000 NA
ATOM      4  C   UNL     1      46.550   4.619  13.440  0.00  0.00    +0.000 A 
ATOM      5  C   UNL     1      45.746   3.639  12.837  0.00  0.00    +0.000 A 
ATOM      6  C   UNL     1      45.061   3.960  11.656  0.00  0.00    +0.000 A 
ATOM      7  C   UNL     1      45.213   5.233  11.083  0.00  0.00    +0.000 A 
ATOM      8  C   UNL     1      46.014   6.221  11.669  0.00  0.00    +0.000 A 
ATOM      9  C   UNL     1      46.658   5.882  12.862  0.00  0.00    +0.000 A 
ENDROOT
BRANCH   6  10
ATOM     10  C   UNL     1      44.152   3.000  10.967  0.00  0.00    +0.000 C 
ATOM     11  N   UNL     1      44.634   2.277   9.912  0.00  0.00    +0.000 N 
ATOM     12  O   UNL     1      42.993   2.843  11.335  0.00  0.00    +0.000 OA
ATOM     13  H   UNL     1      45.575   2.320   9.556  0.00  0.00    +0.000 HD
ATOM     14  H   UNL     1      43.997   1.618   9.484  0.00  0.00    +0.000 HD
ENDBRANCH   6  10
BRANCH   1  15
ATOM     15  C   UNL     1      47.901   7.952  13.609  0.00  0.00    +0.000 C 
BRANCH  15  19
ATOM     16  C   UNL     1      51.709   8.228  11.710  0.00  0.00    +0.000 A 
ATOM     17  C   UNL     1      50.596   7.882  10.941  0.00  0.00    +0.000 A 
ATOM     18  C   UNL     1      49.337   7.803  11.542  0.00  0.00    +0.000 A 
ATOM     19  C   UNL     1      49.226   8.055  12.906  0.00  0.00    +0.000 A 
ATOM     20  N   UNL     1      50.292   8.409  13.666  0.00  0.00    +0.000 NA
ATOM     21  C   UNL     1      51.496   8.495  13.055  0.00  0.00    +0.000 A 
BRANCH  16  22
ATOM     22  C   UNL     1      53.098   8.233  11.140  0.00  0.00    +0.000 C 
BRANCH  22  23
ATOM     23  O   UNL     1      53.045   8.297   9.719  0.00  0.00    +0.000 OA
BRANCH  23  25
ATOM     24  C   UNL     1      52.656   6.798   7.813  0.00  0.00    +0.000 C 
ATOM     25  C   UNL     1      53.548   7.152   9.010  0.00  0.00    +0.000 C 
ATOM     26  C   UNL     1      53.726   5.943   9.938  0.00  0.00    +0.000 C 
ATOM     27  C   UNL     1      54.930   7.567   8.482  0.00  0.00    +0.000 C 
ENDBRANCH  23  25
ENDBRANCH  22  23
ENDBRANCH  16  22
ENDBRANCH  15  19
ENDBRANCH   1  15
TORSDOF 6
ENDMDL
MODEL 6
REMARK VINA RESULT:    -5.828      2.934      5.135
REMARK INTER + INTRA:          -8.647
REMARK INTER:                  -7.728
REMARK INTRA:                  -0.919
REMARK UNBOUND:                -0.775
REMARK  Name = 
REMARK  9 active torsions:
REMARK  status: ('A' for Active; 'I' for Inactive)
REMARK    1  A    between atoms: C_1  and  C_2
REMARK    2  A    between atoms: C_2  and  C_3
REMARK    3  A    between atoms: C_2  and  C_4
REMARK    4  A    between atoms: C_2  and  O_5
REMARK    5  A    between atoms: O_5  and  C_6
REMARK    6  A    between atoms: C_6  and  C_7
REMARK    7  A    between atoms: C_10  and  C_11
REMARK    8  A    between atoms: C_11  and  N_12
REMARK    9  A    between atoms: C_17  and  C_18
REMARK                            x       y       z     vdW  Elec       q    Type
REMARK                         _______ _______ _______ _____ _____    ______ ____
ROOT
ATOM      1  N   UNL     1      46.075   7.728  12.717  0.00  0.00    +0.000 N 
ATOM      2  C   UNL     1      45.238   8.541  12.000  0.00  0.00    +0.000 A 
ATOM      3  N   UNL     1      44.354   7.850  11.319  0.00  0.00    +0.000 NA
ATOM      4  C   UNL     1      44.625   6.536  11.609  0.00  0.00    +0.000 A 
ATOM      5  C   UNL     1      43.991   5.379  11.128  0.00  0.00    +0.000 A 
ATOM      6  C   UNL     1      44.446   4.128  11.569  0.00  0.00    +0.000 A 
ATOM      7  C   UNL     1      45.498   4.053  12.498  0.00  0.00    +0.000 A 
ATOM      8  C   UNL     1      46.138   5.197  12.989  0.00  0.00    +0.000 A 
ATOM      9  C   UNL     1      45.684   6.427  12.507  0.00  0.00    +0.000 A 
ENDROOT
BRANCH   6  10
ATOM     10  C   UNL     1      43.864   2.844  11.084  0.00  0.00    +0.000 C 
ATOM     11  N   UNL     1      44.426   2.236   9.996  0.00  0.00    +0.000 N 
ATOM     12  O   UNL     1      42.908   2.324  11.647  0.00  0.00    +0.000 OA
ATOM     13  H   UNL     1      45.227   2.575   9.487  0.00  0.00    +0.000 HD
ATOM     14  H   UNL     1      44.022   1.354   9.710  0.00  0.00    +0.000 HD
ENDBRANCH   6  10
BRANCH   1  15
ATOM     15  C   UNL     1      47.156   8.189  13.566  0.00  0.00    +0.000 C 
BRANCH  15  19
ATOM     16  C   UNL     1      50.700   9.030  11.347  0.00  0.00    +0.000 A 
ATOM     17  C   UNL     1      50.358   7.699  11.591  0.00  0.00    +0.000 A 
ATOM     18  C   UNL     1      49.192   7.402  12.302  0.00  0.00    +0.000 A 
ATOM     19  C   UNL     1      48.404   8.450  12.768  0.00  0.00    +0.000 A 
ATOM     20  N   UNL     1      48.710   9.749  12.527  0.00  0.00    +0.000 NA
ATOM     21  C   UNL     1      49.835  10.007  11.821  0.00  0.00    +0.000 A 
BRANCH  16  22
ATOM     22  C   UNL     1      51.988   9.409  10.676  0.00  0.00    +0.000 C 
BRANCH  22  23
ATOM     23  O   UNL     1      52.815   8.261  10.517  0.00  0.00    +0.000 OA
BRANCH  23  25
ATOM     24  C   UNL     1      52.536   6.914   8.484  0.00  0.00    +0.000 C 
ATOM     25  C   UNL     1      53.325   8.021   9.195  0.00  0.00    +0.000 C 
ATOM     26  C   UNL     1      54.825   7.699   9.215  0.00  0.00    +0.000 C 
ATOM     27  C   UNL     1      53.120   9.336   8.427  0.00  0.00    +0.000 C 
ENDBRANCH  23  25
ENDBRANCH  22  23
ENDBRANCH  16  22
ENDBRANCH  15  19
ENDBRANCH   1  15
TORSDOF 6
ENDMDL
MODEL 7
REMARK VINA RESULT:    -5.310      2.551      7.329
REMARK INTER + INTRA:          -7.947
REMARK INTER:                  -7.252
REMARK INTRA:                  -0.696
REMARK UNBOUND:                -0.775
REMARK  Name = 
REMARK  9 active torsions:
REMARK  status: ('A' for Active; 'I' for Inactive)
REMARK    1  A    between atoms: C_1  and  C_2
REMARK    2  A    between atoms: C_2  and  C_3
REMARK    3  A    between atoms: C_2  and  C_4
REMARK    4  A    between atoms: C_2  and  O_5
REMARK    5  A    between atoms: O_5  and  C_6
REMARK    6  A    between atoms: C_6  and  C_7
REMARK    7  A    between atoms: C_10  and  C_11
REMARK    8  A    between atoms: C_11  and  N_12
REMARK    9  A    between atoms: C_17  and  C_18
REMARK                            x       y       z     vdW  Elec       q    Type
REMARK                         _______ _______ _______ _____ _____    ______ ____
ROOT
ATOM      1  N   UNL     1      45.841   7.205  12.875  0.00  0.00    +0.000 N 
ATOM      2  C   UNL     1      46.674   8.291  12.862  0.00  0.00    +0.000 A 
ATOM      3  N   UNL     1      47.711   8.118  13.648  0.00  0.00    +0.000 NA
ATOM      4  C   UNL     1      47.546   6.869  14.190  0.00  0.00    +0.000 A 
ATOM      5  C   UNL     1      48.359   6.196  15.116  0.00  0.00    +0.000 A 
ATOM      6  C   UNL     1      47.987   4.910  15.531  0.00  0.00    +0.000 A 
ATOM      7  C   UNL     1      46.834   4.308  15.000  0.00  0.00    +0.000 A 
ATOM      8  C   UNL     1      46.014   4.965  14.074  0.00  0.00    +0.000 A 
ATOM      9  C   UNL     1      46.394   6.257  13.703  0.00  0.00    +0.000 A 
ENDROOT
BRANCH   6  10
ATOM     10  C   UNL     1      48.763   4.134  16.541  0.00  0.00    +0.000 C 
ATOM     11  N   UNL     1      48.212   2.998  17.064  0.00  0.00    +0.000 N 
ATOM     12  O   UNL     1      49.881   4.488  16.896  0.00  0.00    +0.000 OA
ATOM     13  H   UNL     1      47.313   2.616  16.815  0.00  0.00    +0.000 HD
ATOM     14  H   UNL     1      48.776   2.483  17.727  0.00  0.00    +0.000 HD
ENDBRANCH   6  10
BRANCH   1  15
ATOM     15  C   UNL     1      44.612   7.090  12.115  0.00  0.00    +0.000 C 
BRANCH  15  19
ATOM     16  C   UNL     1      45.062   4.161   9.049  0.00  0.00    +0.000 A 
ATOM     17  C   UNL     1      43.923   4.123   9.853  0.00  0.00    +0.000 A 
ATOM     18  C   UNL     1      43.749   5.084  10.853  0.00  0.00    +0.000 A 
ATOM     19  C   UNL     1      44.732   6.051  11.033  0.00  0.00    +0.000 A 
ATOM     20  N   UNL     1      45.838   6.115  10.251  0.00  0.00    +0.000 NA
ATOM     21  C   UNL     1      45.973   5.183   9.280  0.00  0.00    +0.000 A 
BRANCH  16  22
ATOM     22  C   UNL     1      45.348   3.098   8.027  0.00  0.00    +0.000 C 
BRANCH  22  23
ATOM     23  O   UNL     1      46.737   3.081   7.713  0.00  0.00    +0.000 OA
BRANCH  23  25
ATOM     24  C   UNL     1      46.879   0.659   7.338  0.00  0.00    +0.000 C 
ATOM     25  C   UNL     1      47.170   2.063   6.794  0.00  0.00    +0.000 C 
ATOM     26  C   UNL     1      48.654   2.216   6.435  0.00  0.00    +0.000 C 
ATOM     27  C   UNL     1      46.336   2.274   5.520  0.00  0.00    +0.000 C 
ENDBRANCH  23  25
ENDBRANCH  22  23
ENDBRANCH  16  22
ENDBRANCH  15  19
ENDBRANCH   1  15
TORSDOF 6
ENDMDL
MODEL 8
REMARK VINA RESULT:    -4.824      3.092      7.387
REMARK INTER + INTRA:          -7.291
REMARK INTER:                  -6.451
REMARK INTRA:                  -0.840
REMARK UNBOUND:                -0.775
REMARK  Name = 
REMARK  9 active torsions:
REMARK  status: ('A' for Active; 'I' for Inactive)
REMARK    1  A    between atoms: C_1  and  C_2
REMARK    2  A    between atoms: C_2  and  C_3
REMARK    3  A    between atoms: C_2  and  C_4
REMARK    4  A    between atoms: C_2  and  O_5
REMARK    5  A    between atoms: O_5  and  C_6
REMARK    6  A    between atoms: C_6  and  C_7
REMARK    7  A    between atoms: C_10  and  C_11
REMARK    8  A    between atoms: C_11  and  N_12
REMARK    9  A    between atoms: C_17  and  C_18
REMARK                            x       y       z     vdW  Elec       q    Type
REMARK                         _______ _______ _______ _____ _____    ______ ____
ROOT
ATOM      1  N   UNL     1      47.586   9.277  12.689  0.00  0.00    +0.000 N 
ATOM      2  C   UNL     1      47.150  10.482  12.205  0.00  0.00    +0.000 A 
ATOM      3  N   UNL     1      48.049  11.052  11.437  0.00  0.00    +0.000 NA
ATOM      4  C   UNL     1      49.109  10.181  11.417  0.00  0.00    +0.000 A 
ATOM      5  C   UNL     1      50.344  10.311  10.763  0.00  0.00    +0.000 A 
ATOM      6  C   UNL     1      51.286   9.279  10.888  0.00  0.00    +0.000 A 
ATOM      7  C   UNL     1      50.972   8.131  11.633  0.00  0.00    +0.000 A 
ATOM      8  C   UNL     1      49.743   7.984  12.289  0.00  0.00    +0.000 A 
ATOM      9  C   UNL     1      48.839   9.043  12.173  0.00  0.00    +0.000 A 
ENDROOT
BRANCH   6  10
ATOM     10  C   UNL     1      52.639   9.345  10.265  0.00  0.00    +0.000 C 
ATOM     11  N   UNL     1      52.810  10.102   9.140  0.00  0.00    +0.000 N 
ATOM     12  O   UNL     1      53.593   8.747  10.747  0.00  0.00    +0.000 OA
ATOM     13  H   UNL     1      52.093  10.648   8.688  0.00  0.00    +0.000 HD
ATOM     14  H   UNL     1      53.746  10.145   8.758  0.00  0.00    +0.000 HD
ENDBRANCH   6  10
BRANCH   1  15
ATOM     15  C   UNL     1      46.826   8.409  13.565  0.00  0.00    +0.000 C 
BRANCH  15  19
ATOM     16  C   UNL     1      44.994   5.288  11.309  0.00  0.00    +0.000 A 
ATOM     17  C   UNL     1      45.830   4.948  12.374  0.00  0.00    +0.000 A 
ATOM     18  C   UNL     1      46.427   5.956  13.135  0.00  0.00    +0.000 A 
ATOM     19  C   UNL     1      46.184   7.284  12.799  0.00  0.00    +0.000 A 
ATOM     20  N   UNL     1      45.362   7.635  11.779  0.00  0.00    +0.000 NA
ATOM     21  C   UNL     1      44.784   6.639  11.070  0.00  0.00    +0.000 A 
BRANCH  16  22
ATOM     22  C   UNL     1      44.406   4.250  10.398  0.00  0.00    +0.000 C 
BRANCH  22  23
ATOM     23  O   UNL     1      45.405   3.309  10.017  0.00  0.00    +0.000 OA
BRANCH  23  25
ATOM     24  C   UNL     1      46.059   1.659   8.320  0.00  0.00    +0.000 C 
ATOM     25  C   UNL     1      45.561   3.082   8.606  0.00  0.00    +0.000 C 
ATOM     26  C   UNL     1      46.485   4.125   7.962  0.00  0.00    +0.000 C 
ATOM     27  C   UNL     1      44.156   3.238   8.003  0.00  0.00    +0.000 C 
ENDBRANCH  23  25
ENDBRANCH  22  23
ENDBRANCH  16  22
ENDBRANCH  15  19
ENDBRANCH   1  15
TORSDOF 6
ENDMDL
