MODEL 1
REMARK VINA RESULT:    -7.850      0.000      0.000
REMARK INTER + INTRA:          -9.904
REMARK INTER:                  -9.686
REMARK INTRA:                  -0.219
REMARK UNBOUND:                -0.219
REMARK  Name = 
REMARK  4 active torsions:
REMARK  status: ('A' for Active; 'I' for Inactive)
REMARK    1  A    between atoms: C_2  and  C_3
REMARK    2  A    between atoms: C_6  and  C_7
REMARK    3  A    between atoms: C_7  and  C_8
REMARK    4  A    between atoms: C_12  and  C_13
REMARK                            x       y       z     vdW  Elec       q    Type
REMARK                         _______ _______ _______ _____ _____    ______ ____
ROOT
ATOM      1  C   UNL     1      44.797   4.585  10.679  0.00  0.00    +0.000 A 
ATOM      2  C   UNL     1      43.905   3.613  11.126  0.00  0.00    +0.000 A 
ATOM      3  N   UNL     1      43.699   2.422  10.521  0.00  0.00    +0.000 NA
ATOM      4  C   UNL     1      44.436   2.174   9.413  0.00  0.00    +0.000 A 
ATOM      5  C   UNL     1      45.324   3.073   8.821  0.00  0.00    +0.000 A 
ATOM      6  C   UNL     1      45.435   4.319   9.454  0.00  0.00    +0.000 A 
ENDROOT
BRANCH   5   7
ATOM      7  C   UNL     1      46.174   2.709   7.675  0.00  0.00    +0.000 A 
ATOM      8  C   UNL     1      46.291   3.508   6.529  0.00  0.00    +0.000 A 
ATOM      9  C   UNL     1      47.128   3.125   5.479  0.00  0.00    +0.000 A 
ATOM     10  C   UNL     1      47.833   1.941   5.597  0.00  0.00    +0.000 A 
ATOM     11  N   UNL     1      47.772   1.144   6.680  0.00  0.00    +0.000 NA
ATOM     12  C   UNL     1      46.956   1.549   7.685  0.00  0.00    +0.000 A 
ENDBRANCH   5   7
BRANCH   1  13
ATOM     13  C   UNL     1      45.218   5.761  11.553  0.00  0.00    +0.000 C 
ATOM     14  C   UNL     1      45.482   7.072  10.807  0.00  0.00    +0.000 C 
ATOM     15  C   UNL     1      44.236   6.940  11.617  0.00  0.00    +0.000 C 
BRANCH  13  19
ATOM     16  C   UNL     1      47.440   4.917  15.139  0.00  0.00    +0.000 A 
ATOM     17  C   UNL     1      47.857   5.977  14.348  0.00  0.00    +0.000 A 
ATOM     18  C   UNL     1      47.153   6.248  13.170  0.00  0.00    +0.000 A 
ATOM     19  C   UNL     1      46.047   5.469  12.797  0.00  0.00    +0.000 A 
ATOM     20  C   UNL     1      45.736   4.419  13.665  0.00  0.00    +0.000 A 
ATOM     21  N   UNL     1      46.391   4.126  14.815  0.00  0.00    +0.000 NA
BRANCH  16  23
ATOM     22  N   UNL     1      48.674   4.365  17.363  0.00  0.00    +0.000 NA
ATOM     23  C   UNL     1      48.103   4.607  16.374  0.00  0.00    +0.000 C 
ENDBRANCH  16  23
ENDBRANCH  13  19
ENDBRANCH   1  13
TORSDOF 4
ENDMDL
MODEL 2
REMARK VINA RESULT:    -7.793      1.276      1.597
REMARK INTER + INTRA:          -9.833
REMARK INTER:                  -9.617
REMARK INTRA:                  -0.216
REMARK UNBOUND:                -0.219
REMARK  Name = 
REMARK  4 active torsions:
REMARK  status: ('A' for Active; 'I' for Inactive)
REMARK    1  A    between atoms: C_2  and  C_3
REMARK    2  A    between atoms: C_6  and  C_7
REMARK    3  A    between atoms: C_7  and  C_8
REMARK    4  A    between atoms: C_12  and  C_13
REMARK                            x       y       z     vdW  Elec       q    Type
REMARK                         _______ _______ _______ _____ _____    ______ ____
ROOT
ATOM      1  C   UNL     1      45.294   6.077  11.243  0.00  0.00    +0.000 A 
ATOM      2  C   UNL     1      43.909   5.986  11.367  0.00  0.00    +0.000 A 
ATOM      3  N   UNL     1      43.126   5.158  10.641  0.00  0.00    +0.000 NA
ATOM      4  C   UNL     1      43.758   4.358   9.749  0.00  0.00    +0.000 A 
ATOM      5  C   UNL     1      45.127   4.380   9.481  0.00  0.00    +0.000 A 
ATOM      6  C   UNL     1      45.873   5.314  10.213  0.00  0.00    +0.000 A 
ENDROOT
BRANCH   5   7
ATOM      7  C   UNL     1      45.772   3.416   8.573  0.00  0.00    +0.000 A 
ATOM      8  C   UNL     1      46.465   3.803   7.418  0.00  0.00    +0.000 A 
ATOM      9  C   UNL     1      47.076   2.848   6.603  0.00  0.00    +0.000 A 
ATOM     10  C   UNL     1      46.979   1.516   6.962  0.00  0.00    +0.000 A 
ATOM     11  N   UNL     1      46.341   1.089   8.068  0.00  0.00    +0.000 NA
ATOM     12  C   UNL     1      45.765   2.043   8.842  0.00  0.00    +0.000 A 
ENDBRANCH   5   7
BRANCH   1  13
ATOM     13  C   UNL     1      46.154   6.785  12.283  0.00  0.00    +0.000 C 
ATOM     14  C   UNL     1      47.036   7.916  11.747  0.00  0.00    +0.000 C 
ATOM     15  C   UNL     1      45.822   8.263  12.542  0.00  0.00    +0.000 C 
BRANCH  13  19
ATOM     16  C   UNL     1      47.505   4.460  15.641  0.00  0.00    +0.000 A 
ATOM     17  C   UNL     1      48.202   5.618  15.328  0.00  0.00    +0.000 A 
ATOM     18  C   UNL     1      47.782   6.370  14.226  0.00  0.00    +0.000 A 
ATOM     19  C   UNL     1      46.679   5.969  13.457  0.00  0.00    +0.000 A 
ATOM     20  C   UNL     1      46.072   4.776  13.860  0.00  0.00    +0.000 A 
ATOM     21  N   UNL     1      46.447   4.020  14.921  0.00  0.00    +0.000 NA
BRANCH  16  23
ATOM     22  N   UNL     1      48.171   2.981  17.677  0.00  0.00    +0.000 NA
ATOM     23  C   UNL     1      47.868   3.660  16.777  0.00  0.00    +0.000 C 
ENDBRANCH  16  23
ENDBRANCH  13  19
ENDBRANCH   1  13
TORSDOF 4
ENDMDL
MODEL 3
REMARK VINA RESULT:    -7.549      1.561      7.565
REMARK INTER + INTRA:          -9.533
REMARK INTER:                  -9.298
REMARK INTRA:                  -0.235
REMARK UNBOUND:                -0.219
REMARK  Name = 
REMARK  4 active torsions:
REMARK  status: ('A' for Active; 'I' for Inactive)
REMARK    1  A    between atoms: C_2  and  C_3
REMARK    2  A    between atoms: C_6  and  C_7
REMARK    3  A    between atoms: C_7  and  C_8
REMARK    4  A    between atoms: C_12  and  C_13
REMARK                            x       y       z     vdW  Elec       q    Type
REMARK                         _______ _______ _______ _____ _____    ______ ____
ROOT
ATOM      1  C   UNL     1      45.397   5.161  12.228  0.00  0.00    +0.000 A 
ATOM      2  C   UNL     1      45.903   6.388  11.804  0.00  0.00    +0.000 A 
ATOM      3  N   UNL     1      46.861   7.090  12.451  0.00  0.00    +0.000 NA
ATOM      4  C   UNL     1      47.359   6.530  13.579  0.00  0.00    +0.000 A 
ATOM      5  C   UNL     1      46.911   5.338  14.149  0.00  0.00    +0.000 A 
ATOM      6  C   UNL     1      45.865   4.698  13.471  0.00  0.00    +0.000 A 
ENDROOT
BRANCH   5   7
ATOM      7  C   UNL     1      47.561   4.728  15.321  0.00  0.00    +0.000 A 
ATOM      8  C   UNL     1      47.526   3.351  15.582  0.00  0.00    +0.000 A 
ATOM      9  C   UNL     1      48.177   2.822  16.698  0.00  0.00    +0.000 A 
ATOM     10  C   UNL     1      48.855   3.688  17.537  0.00  0.00    +0.000 A 
ATOM     11  N   UNL     1      48.937   5.015  17.325  0.00  0.00    +0.000 NA
ATOM     12  C   UNL     1      48.300   5.495  16.229  0.00  0.00    +0.000 A 
ENDBRANCH   5   7
BRANCH   1  13
ATOM     13  C   UNL     1      44.558   4.274  11.316  0.00  0.00    +0.000 C 
ATOM     14  C   UNL     1      43.641   3.278  12.032  0.00  0.00    +0.000 C 
ATOM     15  C   UNL     1      43.037   4.480  11.387  0.00  0.00    +0.000 C 
BRANCH  13  19
ATOM     16  C   UNL     1      46.154   3.212   7.465  0.00  0.00    +0.000 A 
ATOM     17  C   UNL     1      45.740   2.188   8.304  0.00  0.00    +0.000 A 
ATOM     18  C   UNL     1      45.238   2.522   9.566  0.00  0.00    +0.000 A 
ATOM     19  C   UNL     1      45.148   3.861   9.974  0.00  0.00    +0.000 A 
ATOM     20  C   UNL     1      45.614   4.800   9.050  0.00  0.00    +0.000 A 
ATOM     21  N   UNL     1      46.105   4.518   7.818  0.00  0.00    +0.000 NA
BRANCH  16  23
ATOM     22  N   UNL     1      47.088   2.702   5.090  0.00  0.00    +0.000 NA
ATOM     23  C   UNL     1      46.651   2.936   6.146  0.00  0.00    +0.000 C 
ENDBRANCH  16  23
ENDBRANCH  13  19
ENDBRANCH   1  13
TORSDOF 4
ENDMDL
MODEL 4
REMARK VINA RESULT:    -7.183      2.148      7.165
REMARK INTER + INTRA:          -9.081
REMARK INTER:                  -8.875
REMARK INTRA:                  -0.206
REMARK UNBOUND:                -0.219
REMARK  Name = 
REMARK  4 active torsions:
REMARK  status: ('A' for Active; 'I' for Inactive)
REMARK    1  A    between atoms: C_2  and  C_3
REMARK    2  A    between atoms: C_6  and  C_7
REMARK    3  A    between atoms: C_7  and  C_8
REMARK    4  A    between atoms: C_12  and  C_13
REMARK                            x       y       z     vdW  Elec       q    Type
REMARK                         _______ _______ _______ _____ _____    ______ ____
ROOT
ATOM      1  C   UNL     1      44.903   5.682  11.738  0.00  0.00    +0.000 A 
ATOM      2  C   UNL     1      44.198   6.840  11.416  0.00  0.00    +0.000 A 
ATOM      3  N   UNL     1      44.636   8.097  11.649  0.00  0.00    +0.000 NA
ATOM      4  C   UNL     1      45.858   8.212  12.221  0.00  0.00    +0.000 A 
ATOM      5  C   UNL     1      46.650   7.144  12.645  0.00  0.00    +0.000 A 
ATOM      6  C   UNL     1      46.104   5.869  12.445  0.00  0.00    +0.000 A 
ENDROOT
BRANCH   5   7
ATOM      7  C   UNL     1      48.014   7.329  13.168  0.00  0.00    +0.000 A 
ATOM      8  C   UNL     1      48.973   8.129  12.530  0.00  0.00    +0.000 A 
ATOM      9  C   UNL     1      50.247   8.287  13.081  0.00  0.00    +0.000 A 
ATOM     10  C   UNL     1      50.537   7.635  14.266  0.00  0.00    +0.000 A 
ATOM     11  N   UNL     1      49.650   6.870  14.930  0.00  0.00    +0.000 NA
ATOM     12  C   UNL     1      48.421   6.744  14.372  0.00  0.00    +0.000 A 
ENDBRANCH   5   7
BRANCH   1  13
ATOM     13  C   UNL     1      44.514   4.317  11.182  0.00  0.00    +0.000 C 
ATOM     14  C   UNL     1      44.212   3.243  12.231  0.00  0.00    +0.000 C 
ATOM     15  C   UNL     1      43.080   3.852  11.474  0.00  0.00    +0.000 C 
BRANCH  13  19
ATOM     16  C   UNL     1      46.218   3.165   7.404  0.00  0.00    +0.000 A 
ATOM     17  C   UNL     1      45.773   2.161   8.252  0.00  0.00    +0.000 A 
ATOM     18  C   UNL     1      45.236   2.524   9.491  0.00  0.00    +0.000 A 
ATOM     19  C   UNL     1      45.142   3.872   9.868  0.00  0.00    +0.000 A 
ATOM     20  C   UNL     1      45.640   4.789   8.937  0.00  0.00    +0.000 A 
ATOM     21  N   UNL     1      46.166   4.478   7.728  0.00  0.00    +0.000 NA
BRANCH  16  23
ATOM     22  N   UNL     1      47.193   2.645   5.047  0.00  0.00    +0.000 NA
ATOM     23  C   UNL     1      46.753   2.858   6.107  0.00  0.00    +0.000 C 
ENDBRANCH  16  23
ENDBRANCH  13  19
ENDBRANCH   1  13
TORSDOF 4
ENDMDL
MODEL 5
REMARK VINA RESULT:    -6.943      2.406      3.416
REMARK INTER + INTRA:          -8.785
REMARK INTER:                  -8.535
REMARK INTRA:                  -0.251
REMARK UNBOUND:                -0.219
REMARK  Name = 
REMARK  4 active torsions:
REMARK  status: ('A' for Active; 'I' for Inactive)
REMARK    1  A    between atoms: C_2  and  C_3
REMARK    2  A    between atoms: C_6  and  C_7
REMARK    3  A    between atoms: C_7  and  C_8
REMARK    4  A    between atoms: C_12  and  C_13
REMARK                            x       y       z     vdW  Elec       q    Type
REMARK                         _______ _______ _______ _____ _____    ______ ____
ROOT
ATOM      1  C   UNL     1      45.112   4.173  11.625  0.00  0.00    +0.000 A 
ATOM      2  C   UNL     1      43.942   3.462  11.885  0.00  0.00    +0.000 A 
ATOM      3  N   UNL     1      43.382   2.568  11.041  0.00  0.00    +0.000 NA
ATOM      4  C   UNL     1      44.032   2.353   9.872  0.00  0.00    +0.000 A 
ATOM      5  C   UNL     1      45.179   3.030   9.456  0.00  0.00    +0.000 A 
ATOM      6  C   UNL     1      45.667   3.998  10.345  0.00  0.00    +0.000 A 
ENDROOT
BRANCH   5   7
ATOM      7  C   UNL     1      45.900   2.681   8.220  0.00  0.00    +0.000 A 
ATOM      8  C   UNL     1      46.143   3.604   7.193  0.00  0.00    +0.000 A 
ATOM      9  C   UNL     1      46.850   3.225   6.050  0.00  0.00    +0.000 A 
ATOM     10  C   UNL     1      47.301   1.921   5.957  0.00  0.00    +0.000 A 
ATOM     11  N   UNL     1      47.112   0.999   6.919  0.00  0.00    +0.000 NA
ATOM     12  C   UNL     1      46.428   1.402   8.019  0.00  0.00    +0.000 A 
ENDBRANCH   5   7
BRANCH   1  13
ATOM     13  C   UNL     1      45.863   4.923  12.719  0.00  0.00    +0.000 C 
ATOM     14  C   UNL     1      45.553   4.479  14.151  0.00  0.00    +0.000 C 
ATOM     15  C   UNL     1      46.861   4.096  13.543  0.00  0.00    +0.000 C 
BRANCH  13  19
ATOM     16  C   UNL     1      46.911   9.055  12.137  0.00  0.00    +0.000 A 
ATOM     17  C   UNL     1      45.581   8.748  12.385  0.00  0.00    +0.000 A 
ATOM     18  C   UNL     1      45.227   7.406  12.556  0.00  0.00    +0.000 A 
ATOM     19  C   UNL     1      46.193   6.391  12.485  0.00  0.00    +0.000 A 
ATOM     20  C   UNL     1      47.494   6.823  12.210  0.00  0.00    +0.000 A 
ATOM     21  N   UNL     1      47.878   8.112  12.040  0.00  0.00    +0.000 NA
BRANCH  16  23
ATOM     22  N   UNL     1      47.697  11.516  11.817  0.00  0.00    +0.000 NA
ATOM     23  C   UNL     1      47.343  10.415  11.981  0.00  0.00    +0.000 C 
ENDBRANCH  16  23
ENDBRANCH  13  19
ENDBRANCH   1  13
TORSDOF 4
ENDMDL
MODEL 6
REMARK VINA RESULT:    -6.932      2.021      7.215
REMARK INTER + INTRA:          -8.771
REMARK INTER:                  -8.375
REMARK INTRA:                  -0.396
REMARK UNBOUND:                -0.219
REMARK  Name = 
REMARK  4 active torsions:
REMARK  status: ('A' for Active; 'I' for Inactive)
REMARK    1  A    between atoms: C_2  and  C_3
REMARK    2  A    between atoms: C_6  and  C_7
REMARK    3  A    between atoms: C_7  and  C_8
REMARK    4  A    between atoms: C_12  and  C_13
REMARK                            x       y       z     vdW  Elec       q    Type
REMARK                         _______ _______ _______ _____ _____    ______ ____
ROOT
ATOM      1  C   UNL     1      45.624   4.406  11.903  0.00  0.00    +0.000 A 
ATOM      2  C   UNL     1      45.632   3.681  13.094  0.00  0.00    +0.000 A 
ATOM      3  N   UNL     1      46.162   4.120  14.257  0.00  0.00    +0.000 NA
ATOM      4  C   UNL     1      46.702   5.362  14.242  0.00  0.00    +0.000 A 
ATOM      5  C   UNL     1      46.812   6.176  13.115  0.00  0.00    +0.000 A 
ATOM      6  C   UNL     1      46.312   5.632  11.924  0.00  0.00    +0.000 A 
ENDROOT
BRANCH   5   7
ATOM      7  C   UNL     1      47.317   7.558  13.182  0.00  0.00    +0.000 A 
ATOM      8  C   UNL     1      46.985   8.538  12.237  0.00  0.00    +0.000 A 
ATOM      9  C   UNL     1      47.475   9.840  12.360  0.00  0.00    +0.000 A 
ATOM     10  C   UNL     1      48.295  10.135  13.434  0.00  0.00    +0.000 A 
ATOM     11  N   UNL     1      48.632   9.239  14.380  0.00  0.00    +0.000 NA
ATOM     12  C   UNL     1      48.133   7.987  14.235  0.00  0.00    +0.000 A 
ENDBRANCH   5   7
BRANCH   1  13
ATOM     13  C   UNL     1      44.753   4.005  10.718  0.00  0.00    +0.000 C 
ATOM     14  C   UNL     1      43.422   3.339  11.078  0.00  0.00    +0.000 C 
ATOM     15  C   UNL     1      43.414   4.747  10.583  0.00  0.00    +0.000 C 
BRANCH  13  19
ATOM     16  C   UNL     1      46.781   2.672   7.166  0.00  0.00    +0.000 A 
ATOM     17  C   UNL     1      46.599   4.037   7.340  0.00  0.00    +0.000 A 
ATOM     18  C   UNL     1      45.923   4.479   8.482  0.00  0.00    +0.000 A 
ATOM     19  C   UNL     1      45.445   3.567   9.434  0.00  0.00    +0.000 A 
ATOM     20  C   UNL     1      45.672   2.220   9.139  0.00  0.00    +0.000 A 
ATOM     21  N   UNL     1      46.323   1.751   8.046  0.00  0.00    +0.000 NA
BRANCH  16  23
ATOM     22  N   UNL     1      48.087   1.770   5.104  0.00  0.00    +0.000 NA
ATOM     23  C   UNL     1      47.492   2.157   6.030  0.00  0.00    +0.000 C 
ENDBRANCH  16  23
ENDBRANCH  13  19
ENDBRANCH   1  13
TORSDOF 4
ENDMDL
MODEL 7
REMARK VINA RESULT:    -6.456      3.814      6.463
REMARK INTER + INTRA:          -8.184
REMARK INTER:                  -7.918
REMARK INTRA:                  -0.266
REMARK UNBOUND:                -0.219
REMARK  Name = 
REMARK  4 active torsions:
REMARK  status: ('A' for Active; 'I' for Inactive)
REMARK    1  A    between atoms: C_2  and  C_3
REMARK    2  A    between atoms: C_6  and  C_7
REMARK    3  A    between atoms: C_7  and  C_8
REMARK    4  A    between atoms: C_12  and  C_13
REMARK                            x       y       z     vdW  Elec       q    Type
REMARK                         _______ _______ _______ _____ _____    ______ ____
ROOT
ATOM      1  C   UNL     1      48.062   5.372  15.588  0.00  0.00    +0.000 A 
ATOM      2  C   UNL     1      48.573   6.558  15.065  0.00  0.00    +0.000 A 
ATOM      3  N   UNL     1      48.130   7.154  13.936  0.00  0.00    +0.000 NA
ATOM      4  C   UNL     1      47.104   6.543  13.295  0.00  0.00    +0.000 A 
ATOM      5  C   UNL     1      46.532   5.328  13.672  0.00  0.00    +0.000 A 
ATOM      6  C   UNL     1      47.088   4.723  14.808  0.00  0.00    +0.000 A 
ENDROOT
BRANCH   5   7
ATOM      7  C   UNL     1      45.352   4.764  12.994  0.00  0.00    +0.000 A 
ATOM      8  C   UNL     1      45.351   3.497  12.395  0.00  0.00    +0.000 A 
ATOM      9  C   UNL     1      44.197   3.002  11.783  0.00  0.00    +0.000 A 
ATOM     10  C   UNL     1      43.061   3.791  11.783  0.00  0.00    +0.000 A 
ATOM     11  N   UNL     1      43.001   5.007  12.359  0.00  0.00    +0.000 NA
ATOM     12  C   UNL     1      44.136   5.454  12.950  0.00  0.00    +0.000 A 
ENDBRANCH   5   7
BRANCH   1  13
ATOM     13  C   UNL     1      48.377   4.911  17.006  0.00  0.00    +0.000 C 
ATOM     14  C   UNL     1      48.150   5.957  18.101  0.00  0.00    +0.000 C 
ATOM     15  C   UNL     1      47.184   4.828  17.970  0.00  0.00    +0.000 C 
BRANCH  13  19
ATOM     16  C   UNL     1      51.478   1.993  17.613  0.00  0.00    +0.000 A 
ATOM     17  C   UNL     1      51.757   3.315  17.928  0.00  0.00    +0.000 A 
ATOM     18  C   UNL     1      50.762   4.274  17.716  0.00  0.00    +0.000 A 
ATOM     19  C   UNL     1      49.508   3.910  17.202  0.00  0.00    +0.000 A 
ATOM     20  C   UNL     1      49.355   2.553  16.905  0.00  0.00    +0.000 A 
ATOM     21  N   UNL     1      50.292   1.593  17.098  0.00  0.00    +0.000 NA
BRANCH  16  23
ATOM     22  N   UNL     1      53.261   0.141  18.024  0.00  0.00    +0.000 NA
ATOM     23  C   UNL     1      52.448   0.957  17.835  0.00  0.00    +0.000 C 
ENDBRANCH  16  23
ENDBRANCH  13  19
ENDBRANCH   1  13
TORSDOF 4
ENDMDL
MODEL 8
REMARK VINA RESULT:    -6.258      1.960      3.760
REMARK INTER + INTRA:          -7.940
REMARK INTER:                  -7.831
REMARK INTRA:                  -0.109
REMARK UNBOUND:                -0.219
REMARK  Name = 
REMARK  4 active torsions:
REMARK  status: ('A' for Active; 'I' for Inactive)
REMARK    1  A    between atoms: C_2  and  C_3
REMARK    2  A    between atoms: C_6  and  C_7
REMARK    3  A    between atoms: C_7  and  C_8
REMARK    4  A    between atoms: C_12  and  C_13
REMARK                            x       y       z     vdW  Elec       q    Type
REMARK                         _______ _______ _______ _____ _____    ______ ____
ROOT
ATOM      1  C   UNL     1      46.934   7.250  12.363  0.00  0.00    +0.000 A 
ATOM      2  C   UNL     1      45.832   7.990  12.788  0.00  0.00    +0.000 A 
ATOM      3  N   UNL     1      44.559   7.768  12.392  0.00  0.00    +0.000 NA
ATOM      4  C   UNL     1      44.366   6.738  11.535  0.00  0.00    +0.000 A 
ATOM      5  C   UNL     1      45.378   5.949  10.986  0.00  0.00    +0.000 A 
ATOM      6  C   UNL     1      46.682   6.279  11.378  0.00  0.00    +0.000 A 
ENDROOT
BRANCH   5   7
ATOM      7  C   UNL     1      45.097   4.778  10.138  0.00  0.00    +0.000 A 
ATOM      8  C   UNL     1      45.575   4.655   8.826  0.00  0.00    +0.000 A 
ATOM      9  C   UNL     1      45.296   3.512   8.073  0.00  0.00    +0.000 A 
ATOM     10  C   UNL     1      44.538   2.510   8.652  0.00  0.00    +0.000 A 
ATOM     11  N   UNL     1      44.069   2.568   9.912  0.00  0.00    +0.000 NA
ATOM     12  C   UNL     1      44.364   3.687  10.618  0.00  0.00    +0.000 A 
ENDBRANCH   5   7
BRANCH   1  13
ATOM     13  C   UNL     1      48.284   7.335  13.066  0.00  0.00    +0.000 C 
ATOM     14  C   UNL     1      49.505   7.366  12.142  0.00  0.00    +0.000 C 
ATOM     15  C   UNL     1      49.089   8.622  12.831  0.00  0.00    +0.000 C 
BRANCH  13  19
ATOM     16  C   UNL     1      48.568   5.373  16.884  0.00  0.00    +0.000 A 
ATOM     17  C   UNL     1      49.233   6.579  16.720  0.00  0.00    +0.000 A 
ATOM     18  C   UNL     1      49.163   7.215  15.477  0.00  0.00    +0.000 A 
ATOM     19  C   UNL     1      48.433   6.651  14.419  0.00  0.00    +0.000 A 
ATOM     20  C   UNL     1      47.824   5.425  14.700  0.00  0.00    +0.000 A 
ATOM     21  N   UNL     1      47.867   4.778  15.890  0.00  0.00    +0.000 NA
BRANCH  16  23
ATOM     22  N   UNL     1      48.622   4.119  19.165  0.00  0.00    +0.000 NA
ATOM     23  C   UNL     1      48.578   4.685  18.145  0.00  0.00    +0.000 C 
ENDBRANCH  16  23
ENDBRANCH  13  19
ENDBRANCH   1  13
TORSDOF 4
ENDMDL
MODEL 9
REMARK VINA RESULT:    -6.122      2.122      2.732
REMARK INTER + INTRA:          -7.772
REMARK INTER:                  -7.419
REMARK INTRA:                  -0.354
REMARK UNBOUND:                -0.219
REMARK  Name = 
REMARK  4 active torsions:
REMARK  status: ('A' for Active; 'I' for Inactive)
REMARK    1  A    between atoms: C_2  and  C_3
REMARK    2  A    between atoms: C_6  and  C_7
REMARK    3  A    between atoms: C_7  and  C_8
REMARK    4  A    between atoms: C_12  and  C_13
REMARK                            x       y       z     vdW  Elec       q    Type
REMARK                         _______ _______ _______ _____ _____    ______ ____
ROOT
ATOM      1  C   UNL     1      45.103   6.503  11.923  0.00  0.00    +0.000 A 
ATOM      2  C   UNL     1      44.300   5.805  12.823  0.00  0.00    +0.000 A 
ATOM      3  N   UNL     1      43.855   4.543  12.638  0.00  0.00    +0.000 NA
ATOM      4  C   UNL     1      44.247   3.928  11.497  0.00  0.00    +0.000 A 
ATOM      5  C   UNL     1      45.003   4.520  10.484  0.00  0.00    +0.000 A 
ATOM      6  C   UNL     1      45.368   5.855  10.704  0.00  0.00    +0.000 A 
ENDROOT
BRANCH   5   7
ATOM      7  C   UNL     1      45.484   3.768   9.312  0.00  0.00    +0.000 A 
ATOM      8  C   UNL     1      46.018   4.390   8.175  0.00  0.00    +0.000 A 
ATOM      9  C   UNL     1      46.479   3.628   7.099  0.00  0.00    +0.000 A 
ATOM     10  C   UNL     1      46.394   2.250   7.184  0.00  0.00    +0.000 A 
ATOM     11  N   UNL     1      45.908   1.600   8.258  0.00  0.00    +0.000 NA
ATOM     12  C   UNL     1      45.476   2.370   9.288  0.00  0.00    +0.000 A 
ENDBRANCH   5   7
BRANCH   1  13
ATOM     13  C   UNL     1      45.825   7.788  12.312  0.00  0.00    +0.000 C 
ATOM     14  C   UNL     1      45.579   8.984  11.388  0.00  0.00    +0.000 C 
ATOM     15  C   UNL     1      44.932   8.964  12.732  0.00  0.00    +0.000 C 
BRANCH  13  19
ATOM     16  C   UNL     1      49.617   7.442  14.314  0.00  0.00    +0.000 A 
ATOM     17  C   UNL     1      49.482   8.418  13.338  0.00  0.00    +0.000 A 
ATOM     18  C   UNL     1      48.260   8.525  12.668  0.00  0.00    +0.000 A 
ATOM     19  C   UNL     1      47.191   7.671  12.977  0.00  0.00    +0.000 A 
ATOM     20  C   UNL     1      47.455   6.717  13.964  0.00  0.00    +0.000 A 
ATOM     21  N   UNL     1      48.623   6.581  14.637  0.00  0.00    +0.000 NA
BRANCH  16  23
ATOM     22  N   UNL     1      51.837   7.154  15.642  0.00  0.00    +0.000 NA
ATOM     23  C   UNL     1      50.837   7.299  15.059  0.00  0.00    +0.000 C 
ENDBRANCH  16  23
ENDBRANCH  13  19
ENDBRANCH   1  13
TORSDOF 4
ENDMDL
