MODEL 1
REMARK VINA RESULT:    -8.694      0.000      0.000
REMARK INTER + INTRA:         -10.571
REMARK INTER:                 -10.727
REMARK INTRA:                   0.156
REMARK UNBOUND:                 0.156
REMARK  Name = 
REMARK  4 active torsions:
REMARK  status: ('A' for Active; 'I' for Inactive)
REMARK    1  A    between atoms: C_2  and  C_4
REMARK    2  A    between atoms: N_8  and  C_9
REMARK    3  A    between atoms: C_9  and  C_10
REMARK    4  A    between atoms: C_13  and  C_14
REMARK                            x       y       z     vdW  Elec       q    Type
REMARK                         _______ _______ _______ _____ _____    ______ ____
ROOT
ATOM      1  C   UNL     1      44.362   4.536  11.110  0.00  0.00    +0.000 C 
ATOM      2  C   UNL     1      42.859   4.803  11.030  0.00  0.00    +0.000 C 
ATOM      3  C   UNL     1      43.371   3.745  11.942  0.00  0.00    +0.000 C 
ATOM      4  F   UNL     1      43.082   2.436  11.590  0.00  0.00    +0.000 F 
ENDROOT
BRANCH   1   9
ATOM      5  C   UNL     1      47.590   5.249  14.976  0.00  0.00    +0.000 A 
ATOM      6  C   UNL     1      47.832   6.150  13.968  0.00  0.00    +0.000 A 
ATOM      7  N   UNL     1      47.062   6.255  12.862  0.00  0.00    +0.000 NA
ATOM      8  C   UNL     1      46.024   5.410  12.754  0.00  0.00    +0.000 A 
ATOM      9  N   UNL     1      45.170   5.636  11.679  0.00  0.00    +0.000 N 
ATOM     10  N   UNL     1      45.749   4.452  13.655  0.00  0.00    +0.000 NA
ATOM     11  C   UNL     1      46.543   4.388  14.750  0.00  0.00    +0.000 A 
ATOM     12  H   UNL     1      45.664   6.218  11.010  0.00  0.00    +0.000 HD
BRANCH   5  14
ATOM     13  N   UNL     1      48.318   6.263  17.054  0.00  0.00    +0.000 N 
ATOM     14  C   UNL     1      48.368   5.183  16.220  0.00  0.00    +0.000 C 
ATOM     15  O   UNL     1      48.992   4.174  16.517  0.00  0.00    +0.000 OA
ATOM     16  H   UNL     1      48.755   6.146  17.961  0.00  0.00    +0.000 HD
ATOM     17  H   UNL     1      47.621   6.993  16.978  0.00  0.00    +0.000 HD
ENDBRANCH   5  14
ENDBRANCH   1   9
BRANCH   1  18
ATOM     18  C   UNL     1      44.991   3.899   9.868  0.00  0.00    +0.000 A 
ATOM     19  C   UNL     1      45.533   4.668   8.837  0.00  0.00    +0.000 A 
ATOM     20  C   UNL     1      46.190   4.046   7.777  0.00  0.00    +0.000 A 
ATOM     21  C   UNL     1      46.275   2.655   7.739  0.00  0.00    +0.000 A 
ATOM     22  C   UNL     1      45.654   1.954   8.759  0.00  0.00    +0.000 A 
ATOM     23  N   UNL     1      45.019   2.537   9.803  0.00  0.00    +0.000 NA
BRANCH  21  24
ATOM     24  C   UNL     1      47.017   1.914   6.673  0.00  0.00    +0.000 C 
ATOM     25  F   UNL     1      46.787   0.571   6.683  0.00  0.00    +0.000 F 
ATOM     26  F   UNL     1      46.687   2.338   5.421  0.00  0.00    +0.000 F 
ATOM     27  F   UNL     1      48.367   2.063   6.773  0.00  0.00    +0.000 F 
ENDBRANCH  21  24
ENDBRANCH   1  18
TORSDOF 4
ENDMDL
MODEL 2
REMARK VINA RESULT:    -8.372      4.112      6.906
REMARK INTER + INTRA:         -10.174
REMARK INTER:                  -9.958
REMARK INTRA:                  -0.216
REMARK UNBOUND:                 0.156
REMARK  Name = 
REMARK  4 active torsions:
REMARK  status: ('A' for Active; 'I' for Inactive)
REMARK    1  A    between atoms: C_2  and  C_4
REMARK    2  A    between atoms: N_8  and  C_9
REMARK    3  A    between atoms: C_9  and  C_10
REMARK    4  A    between atoms: C_13  and  C_14
REMARK                            x       y       z     vdW  Elec       q    Type
REMARK                         _______ _______ _______ _____ _____    ______ ____
ROOT
ATOM      1  C   UNL     1      43.887   4.864  11.355  0.00  0.00    +0.000 C 
ATOM      2  C   UNL     1      42.691   5.051  12.289  0.00  0.00    +0.000 C 
ATOM      3  C   UNL     1      42.767   5.831  11.024  0.00  0.00    +0.000 C 
ATOM      4  F   UNL     1      42.985   7.193  11.153  0.00  0.00    +0.000 F 
ENDROOT
BRANCH   1   9
ATOM      5  C   UNL     1      46.422   2.690   7.518  0.00  0.00    +0.000 A 
ATOM      6  C   UNL     1      46.071   1.755   8.461  0.00  0.00    +0.000 A 
ATOM      7  N   UNL     1      45.305   2.034   9.539  0.00  0.00    +0.000 NA
ATOM      8  C   UNL     1      44.894   3.304   9.688  0.00  0.00    +0.000 A 
ATOM      9  N   UNL     1      43.993   3.531  10.724  0.00  0.00    +0.000 N 
ATOM     10  N   UNL     1      45.242   4.300   8.855  0.00  0.00    +0.000 NA
ATOM     11  C   UNL     1      46.005   3.972   7.786  0.00  0.00    +0.000 A 
ATOM     12  H   UNL     1      44.048   2.740  11.358  0.00  0.00    +0.000 HD
BRANCH   5  14
ATOM     13  N   UNL     1      47.069   3.244   5.249  0.00  0.00    +0.000 N 
ATOM     14  C   UNL     1      47.181   2.380   6.301  0.00  0.00    +0.000 C 
ATOM     15  O   UNL     1      47.926   1.412   6.254  0.00  0.00    +0.000 OA
ATOM     16  H   UNL     1      47.696   3.083   4.470  0.00  0.00    +0.000 HD
ATOM     17  H   UNL     1      46.682   4.176   5.334  0.00  0.00    +0.000 HD
ENDBRANCH   5  14
ENDBRANCH   1   9
BRANCH   1  18
ATOM     18  C   UNL     1      45.224   5.399  11.874  0.00  0.00    +0.000 A 
ATOM     19  C   UNL     1      45.876   6.474  11.266  0.00  0.00    +0.000 A 
ATOM     20  C   UNL     1      47.036   6.995  11.835  0.00  0.00    +0.000 A 
ATOM     21  C   UNL     1      47.555   6.420  12.995  0.00  0.00    +0.000 A 
ATOM     22  C   UNL     1      46.895   5.314  13.504  0.00  0.00    +0.000 A 
ATOM     23  N   UNL     1      45.762   4.796  12.973  0.00  0.00    +0.000 NA
BRANCH  21  24
ATOM     24  C   UNL     1      48.756   6.960  13.703  0.00  0.00    +0.000 C 
ATOM     25  F   UNL     1      49.899   6.893  12.965  0.00  0.00    +0.000 F 
ATOM     26  F   UNL     1      48.612   8.270  14.046  0.00  0.00    +0.000 F 
ATOM     27  F   UNL     1      49.022   6.299  14.864  0.00  0.00    +0.000 F 
ENDBRANCH  21  24
ENDBRANCH   1  18
TORSDOF 4
ENDMDL
MODEL 3
REMARK VINA RESULT:    -8.058      1.224      1.527
REMARK INTER + INTRA:          -9.786
REMARK INTER:                  -9.755
REMARK INTRA:                  -0.030
REMARK UNBOUND:                 0.156
REMARK  Name = 
REMARK  4 active torsions:
REMARK  status: ('A' for Active; 'I' for Inactive)
REMARK    1  A    between atoms: C_2  and  C_4
REMARK    2  A    between atoms: N_8  and  C_9
REMARK    3  A    between atoms: C_9  and  C_10
REMARK    4  A    between atoms: C_13  and  C_14
REMARK                            x       y       z     vdW  Elec       q    Type
REMARK                         _______ _______ _______ _____ _____    ______ ____
ROOT
ATOM      1  C   UNL     1      44.255   4.821  11.060  0.00  0.00    +0.000 C 
ATOM      2  C   UNL     1      42.730   4.790  10.958  0.00  0.00    +0.000 C 
ATOM      3  C   UNL     1      43.412   4.034  12.044  0.00  0.00    +0.000 C 
ATOM      4  F   UNL     1      43.372   2.652  11.951  0.00  0.00    +0.000 F 
ENDROOT
BRANCH   1   9
ATOM      5  C   UNL     1      48.020   6.663  13.943  0.00  0.00    +0.000 A 
ATOM      6  C   UNL     1      47.738   7.518  12.906  0.00  0.00    +0.000 A 
ATOM      7  N   UNL     1      46.717   7.329  12.041  0.00  0.00    +0.000 NA
ATOM      8  C   UNL     1      45.964   6.231  12.209  0.00  0.00    +0.000 A 
ATOM      9  N   UNL     1      44.839   6.138  11.396  0.00  0.00    +0.000 N 
ATOM     10  N   UNL     1      46.204   5.303  13.152  0.00  0.00    +0.000 NA
ATOM     11  C   UNL     1      47.233   5.537  14.000  0.00  0.00    +0.000 A 
ATOM     12  H   UNL     1      44.966   6.780  10.620  0.00  0.00    +0.000 HD
BRANCH   5  14
ATOM     13  N   UNL     1      49.534   8.179  15.077  0.00  0.00    +0.000 N 
ATOM     14  C   UNL     1      49.071   6.901  14.939  0.00  0.00    +0.000 C 
ATOM     15  O   UNL     1      49.476   5.995  15.654  0.00  0.00    +0.000 OA
ATOM     16  H   UNL     1      50.163   8.345  15.854  0.00  0.00    +0.000 HD
ATOM     17  H   UNL     1      49.052   8.988  14.703  0.00  0.00    +0.000 HD
ENDBRANCH   5  14
ENDBRANCH   1   9
BRANCH   1  18
ATOM     18  C   UNL     1      45.010   4.087   9.949  0.00  0.00    +0.000 A 
ATOM     19  C   UNL     1      45.071   2.694   9.892  0.00  0.00    +0.000 A 
ATOM     20  C   UNL     1      45.678   2.067   8.805  0.00  0.00    +0.000 A 
ATOM     21  C   UNL     1      46.247   2.840   7.793  0.00  0.00    +0.000 A 
ATOM     22  C   UNL     1      46.211   4.216   7.949  0.00  0.00    +0.000 A 
ATOM     23  N   UNL     1      45.619   4.845   8.992  0.00  0.00    +0.000 NA
BRANCH  21  24
ATOM     24  C   UNL     1      46.859   2.247   6.564  0.00  0.00    +0.000 C 
ATOM     25  F   UNL     1      46.733   0.892   6.493  0.00  0.00    +0.000 F 
ATOM     26  F   UNL     1      46.299   2.732   5.420  0.00  0.00    +0.000 F 
ATOM     27  F   UNL     1      48.192   2.505   6.464  0.00  0.00    +0.000 F 
ENDBRANCH  21  24
ENDBRANCH   1  18
TORSDOF 4
ENDMDL
MODEL 4
REMARK VINA RESULT:    -6.694      4.252      7.092
REMARK INTER + INTRA:          -8.103
REMARK INTER:                  -8.717
REMARK INTRA:                   0.615
REMARK UNBOUND:                 0.156
REMARK  Name = 
REMARK  4 active torsions:
REMARK  status: ('A' for Active; 'I' for Inactive)
REMARK    1  A    between atoms: C_2  and  C_4
REMARK    2  A    between atoms: N_8  and  C_9
REMARK    3  A    between atoms: C_9  and  C_10
REMARK    4  A    between atoms: C_13  and  C_14
REMARK                            x       y       z     vdW  Elec       q    Type
REMARK                         _______ _______ _______ _____ _____    ______ ____
ROOT
ATOM      1  C   UNL     1      44.422   5.020  11.187  0.00  0.00    +0.000 C 
ATOM      2  C   UNL     1      43.263   4.034  11.041  0.00  0.00    +0.000 C 
ATOM      3  C   UNL     1      42.983   5.450  11.400  0.00  0.00    +0.000 C 
ATOM      4  F   UNL     1      42.526   5.680  12.688  0.00  0.00    +0.000 F 
ENDROOT
BRANCH   1   9
ATOM      5  C   UNL     1      46.583   2.447   7.368  0.00  0.00    +0.000 A 
ATOM      6  C   UNL     1      46.219   3.707   6.962  0.00  0.00    +0.000 A 
ATOM      7  N   UNL     1      45.713   4.642   7.795  0.00  0.00    +0.000 NA
ATOM      8  C   UNL     1      45.546   4.294   9.081  0.00  0.00    +0.000 A 
ATOM      9  N   UNL     1      45.160   5.317   9.941  0.00  0.00    +0.000 N 
ATOM     10  N   UNL     1      45.810   3.064   9.557  0.00  0.00    +0.000 NA
ATOM     11  C   UNL     1      46.321   2.162   8.688  0.00  0.00    +0.000 A 
ATOM     12  H   UNL     1      44.789   6.073   9.373  0.00  0.00    +0.000 HD
BRANCH   5  14
ATOM     13  N   UNL     1      48.158   1.895   5.610  0.00  0.00    +0.000 N 
ATOM     14  C   UNL     1      47.212   1.453   6.491  0.00  0.00    +0.000 C 
ATOM     15  O   UNL     1      46.934   0.265   6.587  0.00  0.00    +0.000 OA
ATOM     16  H   UNL     1      48.669   1.179   5.108  0.00  0.00    +0.000 HD
ATOM     17  H   UNL     1      48.600   2.803   5.679  0.00  0.00    +0.000 HD
ENDBRANCH   5  14
ENDBRANCH   1   9
BRANCH   1  18
ATOM     18  C   UNL     1      45.334   4.797  12.396  0.00  0.00    +0.000 A 
ATOM     19  C   UNL     1      45.867   5.860  13.127  0.00  0.00    +0.000 A 
ATOM     20  C   UNL     1      46.605   5.610  14.282  0.00  0.00    +0.000 A 
ATOM     21  C   UNL     1      46.831   4.295  14.685  0.00  0.00    +0.000 A 
ATOM     22  C   UNL     1      46.331   3.288  13.875  0.00  0.00    +0.000 A 
ATOM     23  N   UNL     1      45.605   3.508  12.754  0.00  0.00    +0.000 NA
BRANCH  21  24
ATOM     24  C   UNL     1      47.555   3.943  15.945  0.00  0.00    +0.000 C 
ATOM     25  F   UNL     1      46.735   3.806  17.024  0.00  0.00    +0.000 F 
ATOM     26  F   UNL     1      48.233   2.765  15.843  0.00  0.00    +0.000 F 
ATOM     27  F   UNL     1      48.482   4.876  16.296  0.00  0.00    +0.000 F 
ENDBRANCH  21  24
ENDBRANCH   1  18
TORSDOF 4
ENDMDL
MODEL 5
REMARK VINA RESULT:    -6.173      5.520      8.468
REMARK INTER + INTRA:          -7.461
REMARK INTER:                  -7.922
REMARK INTRA:                   0.462
REMARK UNBOUND:                 0.156
REMARK  Name = 
REMARK  4 active torsions:
REMARK  status: ('A' for Active; 'I' for Inactive)
REMARK    1  A    between atoms: C_2  and  C_4
REMARK    2  A    between atoms: N_8  and  C_9
REMARK    3  A    between atoms: C_9  and  C_10
REMARK    4  A    between atoms: C_13  and  C_14
REMARK                            x       y       z     vdW  Elec       q    Type
REMARK                         _______ _______ _______ _____ _____    ______ ____
ROOT
ATOM      1  C   UNL     1      48.283   4.969  16.809  0.00  0.00    +0.000 C 
ATOM      2  C   UNL     1      47.939   5.824  18.029  0.00  0.00    +0.000 C 
ATOM      3  C   UNL     1      48.562   6.459  16.837  0.00  0.00    +0.000 C 
ATOM      4  F   UNL     1      49.866   6.903  16.987  0.00  0.00    +0.000 F 
ENDROOT
BRANCH   1   9
ATOM      5  C   UNL     1      46.030   5.445  12.273  0.00  0.00    +0.000 A 
ATOM      6  C   UNL     1      45.778   4.207  12.814  0.00  0.00    +0.000 A 
ATOM      7  N   UNL     1      46.171   3.843  14.055  0.00  0.00    +0.000 NA
ATOM      8  C   UNL     1      46.859   4.746  14.772  0.00  0.00    +0.000 A 
ATOM      9  N   UNL     1      47.123   4.395  16.093  0.00  0.00    +0.000 N 
ATOM     10  N   UNL     1      47.210   5.955  14.302  0.00  0.00    +0.000 NA
ATOM     11  C   UNL     1      46.790   6.279  13.057  0.00  0.00    +0.000 A 
ATOM     12  H   UNL     1      47.001   3.391  16.175  0.00  0.00    +0.000 HD
BRANCH   5  14
ATOM     13  N   UNL     1      44.907   7.091  10.894  0.00  0.00    +0.000 N 
ATOM     14  C   UNL     1      45.536   5.881  10.962  0.00  0.00    +0.000 C 
ATOM     15  O   UNL     1      45.732   5.206   9.961  0.00  0.00    +0.000 OA
ATOM     16  H   UNL     1      44.690   7.430   9.964  0.00  0.00    +0.000 HD
ATOM     17  H   UNL     1      44.957   7.786  11.629  0.00  0.00    +0.000 HD
ENDBRANCH   5  14
ENDBRANCH   1   9
BRANCH   1  18
ATOM     18  C   UNL     1      49.433   3.977  16.997  0.00  0.00    +0.000 A 
ATOM     19  C   UNL     1      50.657   4.360  17.549  0.00  0.00    +0.000 A 
ATOM     20  C   UNL     1      51.638   3.401  17.799  0.00  0.00    +0.000 A 
ATOM     21  C   UNL     1      51.399   2.068  17.470  0.00  0.00    +0.000 A 
ATOM     22  C   UNL     1      50.189   1.771  16.863  0.00  0.00    +0.000 A 
ATOM     23  N   UNL     1      49.220   2.684  16.618  0.00  0.00    +0.000 NA
BRANCH  21  24
ATOM     24  C   UNL     1      52.370   0.970  17.766  0.00  0.00    +0.000 C 
ATOM     25  F   UNL     1      53.372   1.343  18.611  0.00  0.00    +0.000 F 
ATOM     26  F   UNL     1      51.775  -0.107  18.350  0.00  0.00    +0.000 F 
ATOM     27  F   UNL     1      52.983   0.496  16.646  0.00  0.00    +0.000 F 
ENDBRANCH  21  24
ENDBRANCH   1  18
TORSDOF 4
ENDMDL
MODEL 6
REMARK VINA RESULT:    -6.173      4.580      7.974
REMARK INTER + INTRA:          -7.460
REMARK INTER:                  -7.729
REMARK INTRA:                   0.269
REMARK UNBOUND:                 0.156
REMARK  Name = 
REMARK  4 active torsions:
REMARK  status: ('A' for Active; 'I' for Inactive)
REMARK    1  A    between atoms: C_2  and  C_4
REMARK    2  A    between atoms: N_8  and  C_9
REMARK    3  A    between atoms: C_9  and  C_10
REMARK    4  A    between atoms: C_13  and  C_14
REMARK                            x       y       z     vdW  Elec       q    Type
REMARK                         _______ _______ _______ _____ _____    ______ ____
ROOT
ATOM      1  C   UNL     1      47.906   7.504  13.990  0.00  0.00    +0.000 C 
ATOM      2  C   UNL     1      48.595   8.857  14.173  0.00  0.00    +0.000 C 
ATOM      3  C   UNL     1      48.997   7.972  13.046  0.00  0.00    +0.000 C 
ATOM      4  F   UNL     1      50.258   7.403  13.129  0.00  0.00    +0.000 F 
ENDROOT
BRANCH   1   9
ATOM      5  C   UNL     1      44.608   4.925  11.100  0.00  0.00    +0.000 A 
ATOM      6  C   UNL     1      43.957   5.575  12.120  0.00  0.00    +0.000 A 
ATOM      7  N   UNL     1      44.573   6.415  12.982  0.00  0.00    +0.000 NA
ATOM      8  C   UNL     1      45.895   6.593  12.827  0.00  0.00    +0.000 A 
ATOM      9  N   UNL     1      46.472   7.568  13.635  0.00  0.00    +0.000 N 
ATOM     10  N   UNL     1      46.628   5.949  11.903  0.00  0.00    +0.000 NA
ATOM     11  C   UNL     1      45.968   5.123  11.058  0.00  0.00    +0.000 A 
ATOM     12  H   UNL     1      45.831   7.754  14.400  0.00  0.00    +0.000 HD
BRANCH   5  14
ATOM     13  N   UNL     1      43.993   4.470   8.800  0.00  0.00    +0.000 N 
ATOM     14  C   UNL     1      43.936   4.078  10.108  0.00  0.00    +0.000 C 
ATOM     15  O   UNL     1      43.392   3.034  10.438  0.00  0.00    +0.000 OA
ATOM     16  H   UNL     1      43.637   3.809   8.121  0.00  0.00    +0.000 HD
ATOM     17  H   UNL     1      44.643   5.167   8.457  0.00  0.00    +0.000 HD
ENDBRANCH   5  14
ENDBRANCH   1   9
BRANCH   1  18
ATOM     18  C   UNL     1      48.223   6.449  15.052  0.00  0.00    +0.000 A 
ATOM     19  C   UNL     1      49.059   6.719  16.137  0.00  0.00    +0.000 A 
ATOM     20  C   UNL     1      49.234   5.762  17.136  0.00  0.00    +0.000 A 
ATOM     21  C   UNL     1      48.594   4.529  17.029  0.00  0.00    +0.000 A 
ATOM     22  C   UNL     1      47.835   4.304  15.892  0.00  0.00    +0.000 A 
ATOM     23  N   UNL     1      47.644   5.221  14.914  0.00  0.00    +0.000 NA
BRANCH  21  24
ATOM     24  C   UNL     1      48.677   3.475  18.087  0.00  0.00    +0.000 C 
ATOM     25  F   UNL     1      48.748   3.978  19.351  0.00  0.00    +0.000 F 
ATOM     26  F   UNL     1      47.597   2.644  18.078  0.00  0.00    +0.000 F 
ATOM     27  F   UNL     1      49.766   2.671  17.943  0.00  0.00    +0.000 F 
ENDBRANCH  21  24
ENDBRANCH   1  18
TORSDOF 4
ENDMDL
MODEL 7
REMARK VINA RESULT:    -6.084      3.849      5.684
REMARK INTER + INTRA:          -7.351
REMARK INTER:                  -7.883
REMARK INTRA:                   0.533
REMARK UNBOUND:                 0.156
REMARK  Name = 
REMARK  4 active torsions:
REMARK  status: ('A' for Active; 'I' for Inactive)
REMARK    1  A    between atoms: C_2  and  C_4
REMARK    2  A    between atoms: N_8  and  C_9
REMARK    3  A    between atoms: C_9  and  C_10
REMARK    4  A    between atoms: C_13  and  C_14
REMARK                            x       y       z     vdW  Elec       q    Type
REMARK                         _______ _______ _______ _____ _____    ______ ____
ROOT
ATOM      1  C   UNL     1      48.578   7.844  13.141  0.00  0.00    +0.000 C 
ATOM      2  C   UNL     1      49.806   7.268  12.436  0.00  0.00    +0.000 C 
ATOM      3  C   UNL     1      49.496   8.717  12.309  0.00  0.00    +0.000 C 
ATOM      4  F   UNL     1      49.076   9.150  11.062  0.00  0.00    +0.000 F 
ENDROOT
BRANCH   1   9
ATOM      5  C   UNL     1      47.975   4.470  16.900  0.00  0.00    +0.000 A 
ATOM      6  C   UNL     1      48.784   5.505  17.300  0.00  0.00    +0.000 A 
ATOM      7  N   UNL     1      49.035   6.593  16.538  0.00  0.00    +0.000 NA
ATOM      8  C   UNL     1      48.470   6.633  15.321  0.00  0.00    +0.000 A 
ATOM      9  N   UNL     1      48.630   7.824  14.619  0.00  0.00    +0.000 N 
ATOM     10  N   UNL     1      47.720   5.638  14.817  0.00  0.00    +0.000 NA
ATOM     11  C   UNL     1      47.490   4.572  15.618  0.00  0.00    +0.000 A 
ATOM     12  H   UNL     1      49.400   8.331  15.045  0.00  0.00    +0.000 HD
BRANCH   5  14
ATOM     13  N   UNL     1      48.430   3.070  18.826  0.00  0.00    +0.000 N 
ATOM     14  C   UNL     1      47.628   3.326  17.751  0.00  0.00    +0.000 C 
ATOM     15  O   UNL     1      46.624   2.662  17.532  0.00  0.00    +0.000 OA
ATOM     16  H   UNL     1      48.102   2.360  19.470  0.00  0.00    +0.000 HD
ATOM     17  H   UNL     1      49.101   3.737  19.190  0.00  0.00    +0.000 HD
ENDBRANCH   5  14
ENDBRANCH   1   9
BRANCH   1  18
ATOM     18  C   UNL     1      47.223   7.411  12.575  0.00  0.00    +0.000 A 
ATOM     19  C   UNL     1      47.109   6.387  11.633  0.00  0.00    +0.000 A 
ATOM     20  C   UNL     1      45.848   5.954  11.225  0.00  0.00    +0.000 A 
ATOM     21  C   UNL     1      44.708   6.568  11.741  0.00  0.00    +0.000 A 
ATOM     22  C   UNL     1      44.897   7.623  12.619  0.00  0.00    +0.000 A 
ATOM     23  N   UNL     1      46.112   8.054  13.035  0.00  0.00    +0.000 NA
BRANCH  21  24
ATOM     24  C   UNL     1      43.321   6.121  11.406  0.00  0.00    +0.000 C 
ATOM     25  F   UNL     1      42.493   7.141  11.042  0.00  0.00    +0.000 F 
ATOM     26  F   UNL     1      43.296   5.237  10.370  0.00  0.00    +0.000 F 
ATOM     27  F   UNL     1      42.705   5.494  12.446  0.00  0.00    +0.000 F 
ENDBRANCH  21  24
ENDBRANCH   1  18
TORSDOF 4
ENDMDL
MODEL 8
REMARK VINA RESULT:    -6.056      4.855      8.323
REMARK INTER + INTRA:          -7.315
REMARK INTER:                  -7.227
REMARK INTRA:                  -0.088
REMARK UNBOUND:                 0.156
REMARK  Name = 
REMARK  4 active torsions:
REMARK  status: ('A' for Active; 'I' for Inactive)
REMARK    1  A    between atoms: C_2  and  C_4
REMARK    2  A    between atoms: N_8  and  C_9
REMARK    3  A    between atoms: C_9  and  C_10
REMARK    4  A    between atoms: C_13  and  C_14
REMARK                            x       y       z     vdW  Elec       q    Type
REMARK                         _______ _______ _______ _____ _____    ______ ____
ROOT
ATOM      1  C   UNL     1      47.422   8.002  13.171  0.00  0.00    +0.000 C 
ATOM      2  C   UNL     1      47.762   9.317  12.469  0.00  0.00    +0.000 C 
ATOM      3  C   UNL     1      48.230   8.029  11.889  0.00  0.00    +0.000 C 
ATOM      4  F   UNL     1      49.594   7.790  11.940  0.00  0.00    +0.000 F 
ENDROOT
BRANCH   1   9
ATOM      5  C   UNL     1      44.460   4.112  11.768  0.00  0.00    +0.000 A 
ATOM      6  C   UNL     1      43.872   4.830  12.780  0.00  0.00    +0.000 A 
ATOM      7  N   UNL     1      44.390   5.974  13.281  0.00  0.00    +0.000 NA
ATOM      8  C   UNL     1      45.552   6.402  12.760  0.00  0.00    +0.000 A 
ATOM      9  N   UNL     1      45.985   7.651  13.193  0.00  0.00    +0.000 N 
ATOM     10  N   UNL     1      46.233   5.732  11.815  0.00  0.00    +0.000 NA
ATOM     11  C   UNL     1      45.673   4.595  11.339  0.00  0.00    +0.000 A 
ATOM     12  H   UNL     1      45.486   7.870  14.050  0.00  0.00    +0.000 HD
BRANCH   5  14
ATOM     13  N   UNL     1      44.408   2.465   9.990  0.00  0.00    +0.000 N 
ATOM     14  C   UNL     1      43.864   2.917  11.159  0.00  0.00    +0.000 C 
ATOM     15  O   UNL     1      42.949   2.321  11.710  0.00  0.00    +0.000 OA
ATOM     16  H   UNL     1      44.068   1.570   9.657  0.00  0.00    +0.000 HD
ATOM     17  H   UNL     1      45.312   2.763   9.646  0.00  0.00    +0.000 HD
ENDBRANCH   5  14
ENDBRANCH   1   9
BRANCH   1  18
ATOM     18  C   UNL     1      48.127   7.763  14.508  0.00  0.00    +0.000 A 
ATOM     19  C   UNL     1      48.251   8.768  15.469  0.00  0.00    +0.000 A 
ATOM     20  C   UNL     1      48.806   8.475  16.714  0.00  0.00    +0.000 A 
ATOM     21  C   UNL     1      49.260   7.184  16.981  0.00  0.00    +0.000 A 
ATOM     22  C   UNL     1      49.168   6.255  15.957  0.00  0.00    +0.000 A 
ATOM     23  N   UNL     1      48.625   6.515  14.745  0.00  0.00    +0.000 NA
BRANCH  21  24
ATOM     24  C   UNL     1      49.807   6.773  18.311  0.00  0.00    +0.000 C 
ATOM     25  F   UNL     1      49.582   5.463  18.609  0.00  0.00    +0.000 F 
ATOM     26  F   UNL     1      51.156   6.945  18.393  0.00  0.00    +0.000 F 
ATOM     27  F   UNL     1      49.276   7.488  19.341  0.00  0.00    +0.000 F 
ENDBRANCH  21  24
ENDBRANCH   1  18
TORSDOF 4
ENDMDL
MODEL 9
REMARK VINA RESULT:    -5.868      4.163      5.871
REMARK INTER + INTRA:          -7.084
REMARK INTER:                  -6.893
REMARK INTRA:                  -0.192
REMARK UNBOUND:                 0.156
REMARK  Name = 
REMARK  4 active torsions:
REMARK  status: ('A' for Active; 'I' for Inactive)
REMARK    1  A    between atoms: C_2  and  C_4
REMARK    2  A    between atoms: N_8  and  C_9
REMARK    3  A    between atoms: C_9  and  C_10
REMARK    4  A    between atoms: C_13  and  C_14
REMARK                            x       y       z     vdW  Elec       q    Type
REMARK                         _______ _______ _______ _____ _____    ______ ____
ROOT
ATOM      1  C   UNL     1      48.650   7.544  12.824  0.00  0.00    +0.000 C 
ATOM      2  C   UNL     1      49.235   7.797  11.434  0.00  0.00    +0.000 C 
ATOM      3  C   UNL     1      48.757   8.945  12.252  0.00  0.00    +0.000 C 
ATOM      4  F   UNL     1      47.612   9.585  11.804  0.00  0.00    +0.000 F 
ENDROOT
BRANCH   1   9
ATOM      5  C   UNL     1      49.186   7.536  17.882  0.00  0.00    +0.000 A 
ATOM      6  C   UNL     1      49.832   6.461  17.323  0.00  0.00    +0.000 A 
ATOM      7  N   UNL     1      49.939   6.267  15.989  0.00  0.00    +0.000 NA
ATOM      8  C   UNL     1      49.357   7.174  15.188  0.00  0.00    +0.000 A 
ATOM      9  N   UNL     1      49.604   7.025  13.827  0.00  0.00    +0.000 N 
ATOM     10  N   UNL     1      48.647   8.220  15.644  0.00  0.00    +0.000 NA
ATOM     11  C   UNL     1      48.572   8.378  16.986  0.00  0.00    +0.000 A 
ATOM     12  H   UNL     1      49.939   6.079  13.676  0.00  0.00    +0.000 HD
BRANCH   5  14
ATOM     13  N   UNL     1      47.919   7.735  19.939  0.00  0.00    +0.000 N 
ATOM     14  C   UNL     1      49.137   7.802  19.325  0.00  0.00    +0.000 C 
ATOM     15  O   UNL     1      50.160   8.023  19.958  0.00  0.00    +0.000 OA
ATOM     16  H   UNL     1      47.926   7.795  20.951  0.00  0.00    +0.000 HD
ATOM     17  H   UNL     1      47.106   7.305  19.516  0.00  0.00    +0.000 HD
ENDBRANCH   5  14
ENDBRANCH   1   9
BRANCH   1  18
ATOM     18  C   UNL     1      47.292   6.838  12.854  0.00  0.00    +0.000 A 
ATOM     19  C   UNL     1      46.091   7.537  12.720  0.00  0.00    +0.000 A 
ATOM     20  C   UNL     1      44.886   6.841  12.646  0.00  0.00    +0.000 A 
ATOM     21  C   UNL     1      44.885   5.450  12.735  0.00  0.00    +0.000 A 
ATOM     22  C   UNL     1      46.106   4.827  12.936  0.00  0.00    +0.000 A 
ATOM     23  N   UNL     1      47.290   5.482  13.002  0.00  0.00    +0.000 NA
BRANCH  21  24
ATOM     24  C   UNL     1      43.645   4.626  12.599  0.00  0.00    +0.000 C 
ATOM     25  F   UNL     1      43.845   3.299  12.835  0.00  0.00    +0.000 F 
ATOM     26  F   UNL     1      42.667   5.014  13.465  0.00  0.00    +0.000 F 
ATOM     27  F   UNL     1      43.095   4.706  11.357  0.00  0.00    +0.000 F 
ENDBRANCH  21  24
ENDBRANCH   1  18
TORSDOF 4
ENDMDL
