MODEL 1
REMARK VINA RESULT:    -7.770      0.000      0.000
REMARK INTER + INTRA:         -12.523
REMARK INTER:                 -11.859
REMARK INTRA:                  -0.664
REMARK UNBOUND:                -0.664
REMARK  Name = 
REMARK  11 active torsions:
REMARK  status: ('A' for Active; 'I' for Inactive)
REMARK    1  A    between atoms: C_1  and  C_2
REMARK    2  A    between atoms: C_2  and  C_3
REMARK    3  A    between atoms: C_3  and  N_4
REMARK    4  A    between atoms: C_3  and  C_21
REMARK    5  A    between atoms: N_4  and  C_5
REMARK    6  A    between atoms: C_5  and  C_6
REMARK    7  A    between atoms: C_9  and  C_10
REMARK    8  A    between atoms: C_10  and  N_11
REMARK    9  A    between atoms: N_11  and  C_12
REMARK   10  A    between atoms: C_12  and  C_13
REMARK   11  A    between atoms: N_16  and  C_17
REMARK                            x       y       z     vdW  Elec       q    Type
REMARK                         _______ _______ _______ _____ _____    ______ ____
ROOT
ATOM      1  C   UNL     1      47.245   4.371  15.761  0.00  0.00    +0.000 C 
ENDROOT
BRANCH   1   2
ATOM      2  C   UNL     1      46.738   4.799  14.395  0.00  0.00    +0.000 A 
ATOM      3  C   UNL     1      47.381   5.814  13.688  0.00  0.00    +0.000 A 
ATOM      4  C   UNL     1      46.834   6.241  12.479  0.00  0.00    +0.000 A 
ATOM      5  C   UNL     1      45.667   5.649  11.998  0.00  0.00    +0.000 A 
ATOM      6  C   UNL     1      45.102   4.636  12.766  0.00  0.00    +0.000 A 
ATOM      7  N   UNL     1      45.607   4.205  13.942  0.00  0.00    +0.000 NA
BRANCH   5   8
ATOM      8  C   UNL     1      44.964   6.160  10.774  0.00  0.00    +0.000 C 
BRANCH   8   9
ATOM      9  N   UNL     1      44.524   5.116   9.831  0.00  0.00    +0.000 NA
ATOM     10  H   UNL     1      43.801   5.513   9.229  0.00  0.00    +0.000 HD
BRANCH   9  11
ATOM     11  C   UNL     1      45.696   4.748   9.035  0.00  0.00    +0.000 C 
BRANCH  11  12
ATOM     12  C   UNL     1      45.538   3.617   8.018  0.00  0.00    +0.000 C 
ATOM     13  C   UNL     1      46.665   3.752   6.970  0.00  0.00    +0.000 C 
ATOM     14  C   UNL     1      47.409   2.431   7.021  0.00  0.00    +0.000 C 
ATOM     15  N   UNL     1      46.338   1.517   7.402  0.00  0.00    +0.000 NA
ATOM     16  C   UNL     1      46.821   0.179   7.690  0.00  0.00    +0.000 C 
ATOM     17  C   UNL     1      45.683   2.182   8.541  0.00  0.00    +0.000 C 
ENDBRANCH  11  12
ENDBRANCH   9  11
ENDBRANCH   8   9
ENDBRANCH   5   8
ENDBRANCH   1   2
BRANCH   1  18
ATOM     18  N   UNL     1      48.657   4.691  15.966  0.00  0.00    +0.000 NA
ATOM     19  H   UNL     1      48.935   5.417  15.308  0.00  0.00    +0.000 HD
BRANCH  18  20
ATOM     20  C   UNL     1      49.003   5.101  17.336  0.00  0.00    +0.000 C 
BRANCH  20  21
ATOM     21  C   UNL     1      50.449   4.666  17.525  0.00  0.00    +0.000 A 
ATOM     22  C   UNL     1      51.482   5.535  17.861  0.00  0.00    +0.000 A 
ATOM     23  S   UNL     1      52.971   4.752  18.139  0.00  0.00    +0.000 S 
ATOM     24  C   UNL     1      52.293   3.226  17.816  0.00  0.00    +0.000 A 
ATOM     25  N   UNL     1      53.030   2.087  17.937  0.00  0.00    +0.000 NA
ATOM     26  C   UNL     1      52.378   1.003  17.669  0.00  0.00    +0.000 A 
ATOM     27  N   UNL     1      51.070   0.956  17.259  0.00  0.00    +0.000 N 
ATOM     28  C   UNL     1      50.304   2.084  17.057  0.00  0.00    +0.000 A 
ATOM     29  O   UNL     1      49.178   2.018  16.576  0.00  0.00    +0.000 OA
ATOM     30  C   UNL     1      50.966   3.321  17.435  0.00  0.00    +0.000 A 
ATOM     31  H   UNL     1      50.640   0.076  17.014  0.00  0.00    +0.000 HD
ENDBRANCH  20  21
BRANCH  20  33
ATOM     32  C   UNL     1      47.556   5.469  19.428  0.00  0.00    +0.000 C 
ATOM     33  C   UNL     1      48.056   4.480  18.387  0.00  0.00    +0.000 C 
ENDBRANCH  20  33
ENDBRANCH  18  20
ENDBRANCH   1  18
TORSDOF 9
ENDMDL
MODEL 2
REMARK VINA RESULT:    -7.323      2.400      3.409
REMARK INTER + INTRA:         -11.840
REMARK INTER:                 -10.782
REMARK INTRA:                  -1.058
REMARK UNBOUND:                -0.664
REMARK  Name = 
REMARK  11 active torsions:
REMARK  status: ('A' for Active; 'I' for Inactive)
REMARK    1  A    between atoms: C_1  and  C_2
REMARK    2  A    between atoms: C_2  and  C_3
REMARK    3  A    between atoms: C_3  and  N_4
REMARK    4  A    between atoms: C_3  and  C_21
REMARK    5  A    between atoms: N_4  and  C_5
REMARK    6  A    between atoms: C_5  and  C_6
REMARK    7  A    between atoms: C_9  and  C_10
REMARK    8  A    between atoms: C_10  and  N_11
REMARK    9  A    between atoms: N_11  and  C_12
REMARK   10  A    between atoms: C_12  and  C_13
REMARK   11  A    between atoms: N_16  and  C_17
REMARK                            x       y       z     vdW  Elec       q    Type
REMARK                         _______ _______ _______ _____ _____    ______ ____
ROOT
ATOM      1  C   UNL     1      48.008   7.191  13.587  0.00  0.00    +0.000 C 
ENDROOT
BRANCH   1   2
ATOM      2  C   UNL     1      46.796   6.328  13.289  0.00  0.00    +0.000 A 
ATOM      3  C   UNL     1      46.820   4.959  13.548  0.00  0.00    +0.000 A 
ATOM      4  C   UNL     1      45.721   4.185  13.177  0.00  0.00    +0.000 A 
ATOM      5  C   UNL     1      44.624   4.787  12.563  0.00  0.00    +0.000 A 
ATOM      6  C   UNL     1      44.684   6.162  12.356  0.00  0.00    +0.000 A 
ATOM      7  N   UNL     1      45.736   6.935  12.699  0.00  0.00    +0.000 NA
BRANCH   5   8
ATOM      8  C   UNL     1      43.476   3.984  12.024  0.00  0.00    +0.000 C 
BRANCH   8   9
ATOM      9  N   UNL     1      43.458   3.836  10.557  0.00  0.00    +0.000 NA
ATOM     10  H   UNL     1      43.842   4.687  10.145  0.00  0.00    +0.000 HD
BRANCH   9  11
ATOM     11  C   UNL     1      44.316   2.693  10.240  0.00  0.00    +0.000 C 
BRANCH  11  12
ATOM     12  C   UNL     1      44.662   2.450   8.770  0.00  0.00    +0.000 C 
ATOM     13  C   UNL     1      44.930   3.818   8.106  0.00  0.00    +0.000 C 
ATOM     14  C   UNL     1      46.338   3.718   7.553  0.00  0.00    +0.000 C 
ATOM     15  N   UNL     1      46.425   2.294   7.255  0.00  0.00    +0.000 NA
ATOM     16  C   UNL     1      47.760   1.886   6.858  0.00  0.00    +0.000 C 
ATOM     17  C   UNL     1      45.930   1.638   8.477  0.00  0.00    +0.000 C 
ENDBRANCH  11  12
ENDBRANCH   9  11
ENDBRANCH   8   9
ENDBRANCH   5   8
ENDBRANCH   1   2
BRANCH   1  18
ATOM     18  N   UNL     1      48.115   7.547  15.002  0.00  0.00    +0.000 NA
ATOM     19  H   UNL     1      47.264   7.264  15.483  0.00  0.00    +0.000 HD
BRANCH  18  20
ATOM     20  C   UNL     1      49.288   6.986  15.691  0.00  0.00    +0.000 C 
BRANCH  20  21
ATOM     21  C   UNL     1      48.957   7.081  17.173  0.00  0.00    +0.000 A 
ATOM     22  C   UNL     1      48.499   8.240  17.792  0.00  0.00    +0.000 A 
ATOM     23  S   UNL     1      48.081   8.020  19.431  0.00  0.00    +0.000 S 
ATOM     24  C   UNL     1      48.499   6.372  19.375  0.00  0.00    +0.000 A 
ATOM     25  N   UNL     1      48.322   5.562  20.455  0.00  0.00    +0.000 NA
ATOM     26  C   UNL     1      48.677   4.334  20.261  0.00  0.00    +0.000 A 
ATOM     27  N   UNL     1      49.222   3.850  19.099  0.00  0.00    +0.000 N 
ATOM     28  C   UNL     1      49.483   4.644  18.003  0.00  0.00    +0.000 A 
ATOM     29  O   UNL     1      50.081   4.210  17.024  0.00  0.00    +0.000 OA
ATOM     30  C   UNL     1      49.016   6.013  18.142  0.00  0.00    +0.000 A 
ATOM     31  H   UNL     1      49.527   2.890  19.036  0.00  0.00    +0.000 HD
ENDBRANCH  20  21
BRANCH  20  33
ATOM     32  C   UNL     1      51.852   7.064  15.849  0.00  0.00    +0.000 C 
ATOM     33  C   UNL     1      50.590   7.733  15.327  0.00  0.00    +0.000 C 
ENDBRANCH  20  33
ENDBRANCH  18  20
ENDBRANCH   1  18
TORSDOF 9
ENDMDL
MODEL 3
REMARK VINA RESULT:    -7.167      2.131      2.773
REMARK INTER + INTRA:         -11.603
REMARK INTER:                 -10.508
REMARK INTRA:                  -1.094
REMARK UNBOUND:                -0.664
REMARK  Name = 
REMARK  11 active torsions:
REMARK  status: ('A' for Active; 'I' for Inactive)
REMARK    1  A    between atoms: C_1  and  C_2
REMARK    2  A    between atoms: C_2  and  C_3
REMARK    3  A    between atoms: C_3  and  N_4
REMARK    4  A    between atoms: C_3  and  C_21
REMARK    5  A    between atoms: N_4  and  C_5
REMARK    6  A    between atoms: C_5  and  C_6
REMARK    7  A    between atoms: C_9  and  C_10
REMARK    8  A    between atoms: C_10  and  N_11
REMARK    9  A    between atoms: N_11  and  C_12
REMARK   10  A    between atoms: C_12  and  C_13
REMARK   11  A    between atoms: N_16  and  C_17
REMARK                            x       y       z     vdW  Elec       q    Type
REMARK                         _______ _______ _______ _____ _____    ______ ____
ROOT
ATOM      1  C   UNL     1      48.910   7.546  14.132  0.00  0.00    +0.000 C 
ENDROOT
BRANCH   1   2
ATOM      2  C   UNL     1      47.910   6.554  13.568  0.00  0.00    +0.000 A 
ATOM      3  C   UNL     1      47.168   6.865  12.430  0.00  0.00    +0.000 A 
ATOM      4  C   UNL     1      46.195   5.967  11.995  0.00  0.00    +0.000 A 
ATOM      5  C   UNL     1      45.984   4.779  12.694  0.00  0.00    +0.000 A 
ATOM      6  C   UNL     1      46.781   4.548  13.811  0.00  0.00    +0.000 A 
ATOM      7  N   UNL     1      47.726   5.401  14.259  0.00  0.00    +0.000 NA
BRANCH   5   8
ATOM      8  C   UNL     1      44.863   3.843  12.350  0.00  0.00    +0.000 C 
BRANCH   8   9
ATOM      9  N   UNL     1      45.180   2.858  11.299  0.00  0.00    +0.000 NA
ATOM     10  H   UNL     1      45.139   1.926  11.712  0.00  0.00    +0.000 HD
BRANCH   9  11
ATOM     11  C   UNL     1      44.150   2.997  10.269  0.00  0.00    +0.000 C 
BRANCH  11  12
ATOM     12  C   UNL     1      44.538   2.671   8.826  0.00  0.00    +0.000 C 
ATOM     13  C   UNL     1      44.996   3.979   8.145  0.00  0.00    +0.000 C 
ATOM     14  C   UNL     1      46.410   3.700   7.670  0.00  0.00    +0.000 C 
ATOM     15  N   UNL     1      46.344   2.267   7.411  0.00  0.00    +0.000 NA
ATOM     16  C   UNL     1      47.640   1.696   7.096  0.00  0.00    +0.000 C 
ATOM     17  C   UNL     1      45.715   1.710   8.620  0.00  0.00    +0.000 C 
ENDBRANCH  11  12
ENDBRANCH   9  11
ENDBRANCH   8   9
ENDBRANCH   5   8
ENDBRANCH   1   2
BRANCH   1  18
ATOM     18  N   UNL     1      50.060   6.896  14.760  0.00  0.00    +0.000 NA
ATOM     19  H   UNL     1      50.902   7.128  14.238  0.00  0.00    +0.000 HD
BRANCH  18  20
ATOM     20  C   UNL     1      50.249   7.220  16.183  0.00  0.00    +0.000 C 
BRANCH  20  21
ATOM     21  C   UNL     1      50.288   5.874  16.892  0.00  0.00    +0.000 A 
ATOM     22  C   UNL     1      49.153   5.145  17.233  0.00  0.00    +0.000 A 
ATOM     23  S   UNL     1      49.499   3.613  17.898  0.00  0.00    +0.000 S 
ATOM     24  C   UNL     1      51.175   3.869  17.759  0.00  0.00    +0.000 A 
ATOM     25  N   UNL     1      52.067   2.900  18.104  0.00  0.00    +0.000 NA
ATOM     26  C   UNL     1      53.305   3.235  17.936  0.00  0.00    +0.000 A 
ATOM     27  N   UNL     1      53.732   4.458  17.488  0.00  0.00    +0.000 N 
ATOM     28  C   UNL     1      52.871   5.493  17.191  0.00  0.00    +0.000 A 
ATOM     29  O   UNL     1      53.286   6.612  16.909  0.00  0.00    +0.000 OA
ATOM     30  C   UNL     1      51.466   5.133  17.277  0.00  0.00    +0.000 A 
ATOM     31  H   UNL     1      54.718   4.670  17.432  0.00  0.00    +0.000 HD
ENDBRANCH  20  21
BRANCH  20  33
ATOM     32  C   UNL     1      49.444   8.755  18.080  0.00  0.00    +0.000 C 
ATOM     33  C   UNL     1      49.134   8.142  16.724  0.00  0.00    +0.000 C 
ENDBRANCH  20  33
ENDBRANCH  18  20
ENDBRANCH   1  18
TORSDOF 9
ENDMDL
MODEL 4
REMARK VINA RESULT:    -7.093      2.490      3.815
REMARK INTER + INTRA:         -11.489
REMARK INTER:                 -10.451
REMARK INTRA:                  -1.038
REMARK UNBOUND:                -0.664
REMARK  Name = 
REMARK  11 active torsions:
REMARK  status: ('A' for Active; 'I' for Inactive)
REMARK    1  A    between atoms: C_1  and  C_2
REMARK    2  A    between atoms: C_2  and  C_3
REMARK    3  A    between atoms: C_3  and  N_4
REMARK    4  A    between atoms: C_3  and  C_21
REMARK    5  A    between atoms: N_4  and  C_5
REMARK    6  A    between atoms: C_5  and  C_6
REMARK    7  A    between atoms: C_9  and  C_10
REMARK    8  A    between atoms: C_10  and  N_11
REMARK    9  A    between atoms: N_11  and  C_12
REMARK   10  A    between atoms: C_12  and  C_13
REMARK   11  A    between atoms: N_16  and  C_17
REMARK                            x       y       z     vdW  Elec       q    Type
REMARK                         _______ _______ _______ _____ _____    ______ ____
ROOT
ATOM      1  C   UNL     1      46.029   8.498  13.185  0.00  0.00    +0.000 C 
ENDROOT
BRANCH   1   2
ATOM      2  C   UNL     1      45.407   7.300  12.490  0.00  0.00    +0.000 A 
ATOM      3  C   UNL     1      45.726   7.005  11.166  0.00  0.00    +0.000 A 
ATOM      4  C   UNL     1      45.067   5.952  10.534  0.00  0.00    +0.000 A 
ATOM      5  C   UNL     1      44.111   5.214  11.231  0.00  0.00    +0.000 A 
ATOM      6  C   UNL     1      43.867   5.573  12.553  0.00  0.00    +0.000 A 
ATOM      7  N   UNL     1      44.486   6.591  13.188  0.00  0.00    +0.000 NA
BRANCH   5   8
ATOM      8  C   UNL     1      43.278   4.160  10.561  0.00  0.00    +0.000 C 
BRANCH   8   9
ATOM      9  N   UNL     1      43.739   2.776  10.776  0.00  0.00    +0.000 NA
ATOM     10  H   UNL     1      43.079   2.145  10.320  0.00  0.00    +0.000 HD
BRANCH   9  11
ATOM     11  C   UNL     1      45.056   2.669  10.146  0.00  0.00    +0.000 C 
BRANCH  11  12
ATOM     12  C   UNL     1      45.104   2.424   8.637  0.00  0.00    +0.000 C 
ATOM     13  C   UNL     1      45.180   3.795   7.930  0.00  0.00    +0.000 C 
ATOM     14  C   UNL     1      46.450   3.740   7.102  0.00  0.00    +0.000 C 
ATOM     15  N   UNL     1      46.527   2.316   6.795  0.00  0.00    +0.000 NA
ATOM     16  C   UNL     1      47.767   1.953   6.135  0.00  0.00    +0.000 C 
ATOM     17  C   UNL     1      46.315   1.655   8.093  0.00  0.00    +0.000 C 
ENDBRANCH  11  12
ENDBRANCH   9  11
ENDBRANCH   8   9
ENDBRANCH   5   8
ENDBRANCH   1   2
BRANCH   1  18
ATOM     18  N   UNL     1      46.997   8.116  14.213  0.00  0.00    +0.000 NA
ATOM     19  H   UNL     1      46.536   7.526  14.903  0.00  0.00    +0.000 HD
BRANCH  18  20
ATOM     20  C   UNL     1      48.202   7.442  13.704  0.00  0.00    +0.000 C 
BRANCH  20  21
ATOM     21  C   UNL     1      48.898   6.893  14.941  0.00  0.00    +0.000 A 
ATOM     22  C   UNL     1      50.035   7.462  15.507  0.00  0.00    +0.000 A 
ATOM     23  S   UNL     1      50.520   6.717  16.962  0.00  0.00    +0.000 S 
ATOM     24  C   UNL     1      49.234   5.606  16.888  0.00  0.00    +0.000 A 
ATOM     25  N   UNL     1      49.027   4.699  17.882  0.00  0.00    +0.000 NA
ATOM     26  C   UNL     1      48.008   3.927  17.692  0.00  0.00    +0.000 A 
ATOM     27  N   UNL     1      47.198   3.956  16.585  0.00  0.00    +0.000 N 
ATOM     28  C   UNL     1      47.408   4.808  15.522  0.00  0.00    +0.000 A 
ATOM     29  O   UNL     1      46.743   4.729  14.495  0.00  0.00    +0.000 OA
ATOM     30  C   UNL     1      48.487   5.758  15.732  0.00  0.00    +0.000 A 
ATOM     31  H   UNL     1      46.451   3.286  16.477  0.00  0.00    +0.000 HD
ENDBRANCH  20  21
BRANCH  20  33
ATOM     32  C   UNL     1      49.573   7.822  11.564  0.00  0.00    +0.000 C 
ATOM     33  C   UNL     1      49.104   8.396  12.891  0.00  0.00    +0.000 C 
ENDBRANCH  20  33
ENDBRANCH  18  20
ENDBRANCH   1  18
TORSDOF 9
ENDMDL
MODEL 5
REMARK VINA RESULT:    -6.857      2.558      4.047
REMARK INTER + INTRA:         -11.130
REMARK INTER:                 -10.264
REMARK INTRA:                  -0.866
REMARK UNBOUND:                -0.664
REMARK  Name = 
REMARK  11 active torsions:
REMARK  status: ('A' for Active; 'I' for Inactive)
REMARK    1  A    between atoms: C_1  and  C_2
REMARK    2  A    between atoms: C_2  and  C_3
REMARK    3  A    between atoms: C_3  and  N_4
REMARK    4  A    between atoms: C_3  and  C_21
REMARK    5  A    between atoms: N_4  and  C_5
REMARK    6  A    between atoms: C_5  and  C_6
REMARK    7  A    between atoms: C_9  and  C_10
REMARK    8  A    between atoms: C_10  and  N_11
REMARK    9  A    between atoms: N_11  and  C_12
REMARK   10  A    between atoms: C_12  and  C_13
REMARK   11  A    between atoms: N_16  and  C_17
REMARK                            x       y       z     vdW  Elec       q    Type
REMARK                         _______ _______ _______ _____ _____    ______ ____
ROOT
ATOM      1  C   UNL     1      47.281   4.198  15.642  0.00  0.00    +0.000 C 
ENDROOT
BRANCH   1   2
ATOM      2  C   UNL     1      46.790   4.662  14.282  0.00  0.00    +0.000 A 
ATOM      3  C   UNL     1      47.289   5.831  13.711  0.00  0.00    +0.000 A 
ATOM      4  C   UNL     1      46.750   6.273  12.504  0.00  0.00    +0.000 A 
ATOM      5  C   UNL     1      45.732   5.543  11.890  0.00  0.00    +0.000 A 
ATOM      6  C   UNL     1      45.307   4.382  12.528  0.00  0.00    +0.000 A 
ATOM      7  N   UNL     1      45.807   3.933  13.699  0.00  0.00    +0.000 NA
BRANCH   5   8
ATOM      8  C   UNL     1      45.026   6.042  10.664  0.00  0.00    +0.000 C 
BRANCH   8   9
ATOM      9  N   UNL     1      44.613   4.991   9.716  0.00  0.00    +0.000 NA
ATOM     10  H   UNL     1      43.847   5.355   9.148  0.00  0.00    +0.000 HD
BRANCH   9  11
ATOM     11  C   UNL     1      45.774   4.707   8.871  0.00  0.00    +0.000 C 
BRANCH  11  12
ATOM     12  C   UNL     1      45.656   3.565   7.860  0.00  0.00    +0.000 C 
ATOM     13  C   UNL     1      46.847   3.664   6.883  0.00  0.00    +0.000 C 
ATOM     14  C   UNL     1      47.559   2.329   6.996  0.00  0.00    +0.000 C 
ATOM     15  N   UNL     1      46.449   1.442   7.321  0.00  0.00    +0.000 NA
ATOM     16  C   UNL     1      46.885   0.099   7.654  0.00  0.00    +0.000 C 
ATOM     17  C   UNL     1      45.739   2.135   8.408  0.00  0.00    +0.000 C 
ENDBRANCH  11  12
ENDBRANCH   9  11
ENDBRANCH   8   9
ENDBRANCH   5   8
ENDBRANCH   1   2
BRANCH   1  18
ATOM     18  N   UNL     1      47.516   5.307  16.567  0.00  0.00    +0.000 NA
ATOM     19  H   UNL     1      46.620   5.689  16.865  0.00  0.00    +0.000 HD
BRANCH  18  20
ATOM     20  C   UNL     1      48.329   4.965  17.745  0.00  0.00    +0.000 C 
BRANCH  20  21
ATOM     21  C   UNL     1      48.074   6.088  18.739  0.00  0.00    +0.000 A 
ATOM     22  C   UNL     1      47.568   5.889  20.020  0.00  0.00    +0.000 A 
ATOM     23  S   UNL     1      47.512   7.310  20.962  0.00  0.00    +0.000 S 
ATOM     24  C   UNL     1      48.157   8.243  19.694  0.00  0.00    +0.000 A 
ATOM     25  N   UNL     1      48.427   9.567  19.860  0.00  0.00    +0.000 NA
ATOM     26  C   UNL     1      48.922  10.142  18.813  0.00  0.00    +0.000 A 
ATOM     27  N   UNL     1      49.140   9.523  17.608  0.00  0.00    +0.000 N 
ATOM     28  C   UNL     1      48.820   8.204  17.372  0.00  0.00    +0.000 A 
ATOM     29  O   UNL     1      48.914   7.712  16.252  0.00  0.00    +0.000 OA
ATOM     30  C   UNL     1      48.347   7.492  18.546  0.00  0.00    +0.000 A 
ATOM     31  H   UNL     1      49.479  10.048  16.815  0.00  0.00    +0.000 HD
ENDBRANCH  20  21
BRANCH  20  33
ATOM     32  C   UNL     1      50.701   4.436  18.580  0.00  0.00    +0.000 C 
ATOM     33  C   UNL     1      49.825   4.811  17.395  0.00  0.00    +0.000 C 
ENDBRANCH  20  33
ENDBRANCH  18  20
ENDBRANCH   1  18
TORSDOF 9
ENDMDL
MODEL 6
REMARK VINA RESULT:    -6.556      3.588      8.685
REMARK INTER + INTRA:         -10.670
REMARK INTER:                  -9.055
REMARK INTRA:                  -1.615
REMARK UNBOUND:                -0.664
REMARK  Name = 
REMARK  11 active torsions:
REMARK  status: ('A' for Active; 'I' for Inactive)
REMARK    1  A    between atoms: C_1  and  C_2
REMARK    2  A    between atoms: C_2  and  C_3
REMARK    3  A    between atoms: C_3  and  N_4
REMARK    4  A    between atoms: C_3  and  C_21
REMARK    5  A    between atoms: N_4  and  C_5
REMARK    6  A    between atoms: C_5  and  C_6
REMARK    7  A    between atoms: C_9  and  C_10
REMARK    8  A    between atoms: C_10  and  N_11
REMARK    9  A    between atoms: N_11  and  C_12
REMARK   10  A    between atoms: C_12  and  C_13
REMARK   11  A    between atoms: N_16  and  C_17
REMARK                            x       y       z     vdW  Elec       q    Type
REMARK                         _______ _______ _______ _____ _____    ______ ____
ROOT
ATOM      1  C   UNL     1      48.441   8.117  12.010  0.00  0.00    +0.000 C 
ENDROOT
BRANCH   1   2
ATOM      2  C   UNL     1      48.647   8.115  13.514  0.00  0.00    +0.000 A 
ATOM      3  C   UNL     1      49.284   7.045  14.140  0.00  0.00    +0.000 A 
ATOM      4  C   UNL     1      49.374   7.037  15.531  0.00  0.00    +0.000 A 
ATOM      5  C   UNL     1      48.835   8.091  16.267  0.00  0.00    +0.000 A 
ATOM      6  C   UNL     1      48.228   9.121  15.556  0.00  0.00    +0.000 A 
ATOM      7  N   UNL     1      48.122   9.153  14.210  0.00  0.00    +0.000 NA
BRANCH   5   8
ATOM      8  C   UNL     1      48.786   8.067  17.767  0.00  0.00    +0.000 C 
BRANCH   8   9
ATOM      9  N   UNL     1      47.758   7.179  18.339  0.00  0.00    +0.000 NA
ATOM     10  H   UNL     1      47.262   6.727  17.570  0.00  0.00    +0.000 HD
BRANCH   9  11
ATOM     11  C   UNL     1      48.465   6.178  19.139  0.00  0.00    +0.000 C 
BRANCH  11  12
ATOM     12  C   UNL     1      48.164   4.704  18.864  0.00  0.00    +0.000 C 
ATOM     13  C   UNL     1      47.167   4.629  17.687  0.00  0.00    +0.000 C 
ATOM     14  C   UNL     1      47.862   3.784  16.637  0.00  0.00    +0.000 C 
ATOM     15  N   UNL     1      48.676   2.909  17.471  0.00  0.00    +0.000 NA
ATOM     16  C   UNL     1      49.590   2.090  16.696  0.00  0.00    +0.000 C 
ATOM     17  C   UNL     1      49.337   3.823  18.417  0.00  0.00    +0.000 C 
ENDBRANCH  11  12
ENDBRANCH   9  11
ENDBRANCH   8   9
ENDBRANCH   5   8
ENDBRANCH   1   2
BRANCH   1  18
ATOM     18  N   UNL     1      47.699   6.948  11.538  0.00  0.00    +0.000 NA
ATOM     19  H   UNL     1      48.111   6.107  11.937  0.00  0.00    +0.000 HD
BRANCH  18  20
ATOM     20  C   UNL     1      46.255   6.979  11.823  0.00  0.00    +0.000 C 
BRANCH  20  21
ATOM     21  C   UNL     1      45.659   5.879  10.957  0.00  0.00    +0.000 A 
ATOM     22  C   UNL     1      45.941   5.720   9.604  0.00  0.00    +0.000 A 
ATOM     23  S   UNL     1      45.238   4.325   8.919  0.00  0.00    +0.000 S 
ATOM     24  C   UNL     1      44.530   3.885  10.401  0.00  0.00    +0.000 A 
ATOM     25  N   UNL     1      43.822   2.729  10.529  0.00  0.00    +0.000 NA
ATOM     26  C   UNL     1      43.351   2.524  11.716  0.00  0.00    +0.000 A 
ATOM     27  N   UNL     1      43.495   3.383  12.776  0.00  0.00    +0.000 N 
ATOM     28  C   UNL     1      44.144   4.595  12.678  0.00  0.00    +0.000 A 
ATOM     29  O   UNL     1      44.153   5.395  13.608  0.00  0.00    +0.000 OA
ATOM     30  C   UNL     1      44.769   4.827  11.387  0.00  0.00    +0.000 A 
ATOM     31  H   UNL     1      43.054   3.185  13.662  0.00  0.00    +0.000 HD
ENDBRANCH  20  21
BRANCH  20  33
ATOM     32  C   UNL     1      44.125   8.336  11.350  0.00  0.00    +0.000 C 
ATOM     33  C   UNL     1      45.634   8.363  11.532  0.00  0.00    +0.000 C 
ENDBRANCH  20  33
ENDBRANCH  18  20
ENDBRANCH   1  18
TORSDOF 9
ENDMDL
MODEL 7
REMARK VINA RESULT:    -6.466      3.613      9.608
REMARK INTER + INTRA:         -10.533
REMARK INTER:                  -9.266
REMARK INTRA:                  -1.266
REMARK UNBOUND:                -0.664
REMARK  Name = 
REMARK  11 active torsions:
REMARK  status: ('A' for Active; 'I' for Inactive)
REMARK    1  A    between atoms: C_1  and  C_2
REMARK    2  A    between atoms: C_2  and  C_3
REMARK    3  A    between atoms: C_3  and  N_4
REMARK    4  A    between atoms: C_3  and  C_21
REMARK    5  A    between atoms: N_4  and  C_5
REMARK    6  A    between atoms: C_5  and  C_6
REMARK    7  A    between atoms: C_9  and  C_10
REMARK    8  A    between atoms: C_10  and  N_11
REMARK    9  A    between atoms: N_11  and  C_12
REMARK   10  A    between atoms: C_12  and  C_13
REMARK   11  A    between atoms: N_16  and  C_17
REMARK                            x       y       z     vdW  Elec       q    Type
REMARK                         _______ _______ _______ _____ _____    ______ ____
ROOT
ATOM      1  C   UNL     1      47.060   5.543  13.665  0.00  0.00    +0.000 C 
ENDROOT
BRANCH   1   2
ATOM      2  C   UNL     1      47.555   5.143  15.044  0.00  0.00    +0.000 A 
ATOM      3  C   UNL     1      48.456   5.952  15.734  0.00  0.00    +0.000 A 
ATOM      4  C   UNL     1      48.957   5.508  16.957  0.00  0.00    +0.000 A 
ATOM      5  C   UNL     1      48.550   4.276  17.468  0.00  0.00    +0.000 A 
ATOM      6  C   UNL     1      47.637   3.544  16.714  0.00  0.00    +0.000 A 
ATOM      7  N   UNL     1      47.139   3.946  15.526  0.00  0.00    +0.000 NA
BRANCH   5   8
ATOM      8  C   UNL     1      49.157   3.692  18.709  0.00  0.00    +0.000 C 
BRANCH   8   9
ATOM      9  N   UNL     1      48.279   3.703  19.894  0.00  0.00    +0.000 NA
ATOM     10  H   UNL     1      48.135   2.739  20.194  0.00  0.00    +0.000 HD
BRANCH   9  11
ATOM     11  C   UNL     1      48.986   4.453  20.933  0.00  0.00    +0.000 C 
BRANCH  11  12
ATOM     12  C   UNL     1      48.603   5.919  21.139  0.00  0.00    +0.000 C 
ATOM     13  C   UNL     1      49.839   6.788  20.822  0.00  0.00    +0.000 C 
ATOM     14  C   UNL     1      49.387   7.728  19.720  0.00  0.00    +0.000 C 
ATOM     15  N   UNL     1      47.969   7.869  20.033  0.00  0.00    +0.000 NA
ATOM     16  C   UNL     1      47.243   8.603  19.013  0.00  0.00    +0.000 C 
ATOM     17  C   UNL     1      47.504   6.487  20.232  0.00  0.00    +0.000 C 
ENDBRANCH  11  12
ENDBRANCH   9  11
ENDBRANCH   8   9
ENDBRANCH   5   8
ENDBRANCH   1   2
BRANCH   1  18
ATOM     18  N   UNL     1      45.620   5.801  13.634  0.00  0.00    +0.000 NA
ATOM     19  H   UNL     1      45.335   6.215  14.520  0.00  0.00    +0.000 HD
BRANCH  18  20
ATOM     20  C   UNL     1      45.171   6.650  12.519  0.00  0.00    +0.000 C 
BRANCH  20  21
ATOM     21  C   UNL     1      45.130   5.725  11.311  0.00  0.00    +0.000 A 
ATOM     22  C   UNL     1      45.762   6.002  10.103  0.00  0.00    +0.000 A 
ATOM     23  S   UNL     1      45.661   4.729   8.972  0.00  0.00    +0.000 S 
ATOM     24  C   UNL     1      44.768   3.765  10.052  0.00  0.00    +0.000 A 
ATOM     25  N   UNL     1      44.399   2.496   9.725  0.00  0.00    +0.000 NA
ATOM     26  C   UNL     1      43.732   1.883  10.648  0.00  0.00    +0.000 A 
ATOM     27  N   UNL     1      43.373   2.433  11.852  0.00  0.00    +0.000 N 
ATOM     28  C   UNL     1      43.663   3.735  12.200  0.00  0.00    +0.000 A 
ATOM     29  O   UNL     1      43.225   4.236  13.230  0.00  0.00    +0.000 OA
ATOM     30  C   UNL     1      44.491   4.434  11.232  0.00  0.00    +0.000 A 
ATOM     31  H   UNL     1      42.804   1.914  12.505  0.00  0.00    +0.000 HD
ENDBRANCH  20  21
BRANCH  20  33
ATOM     32  C   UNL     1      45.365   9.198  12.250  0.00  0.00    +0.000 C 
ATOM     33  C   UNL     1      46.097   7.867  12.303  0.00  0.00    +0.000 C 
ENDBRANCH  20  33
ENDBRANCH  18  20
ENDBRANCH   1  18
TORSDOF 9
ENDMDL
MODEL 8
REMARK VINA RESULT:    -6.433      4.130      5.836
REMARK INTER + INTRA:         -10.482
REMARK INTER:                  -9.285
REMARK INTRA:                  -1.196
REMARK UNBOUND:                -0.664
REMARK  Name = 
REMARK  11 active torsions:
REMARK  status: ('A' for Active; 'I' for Inactive)
REMARK    1  A    between atoms: C_1  and  C_2
REMARK    2  A    between atoms: C_2  and  C_3
REMARK    3  A    between atoms: C_3  and  N_4
REMARK    4  A    between atoms: C_3  and  C_21
REMARK    5  A    between atoms: N_4  and  C_5
REMARK    6  A    between atoms: C_5  and  C_6
REMARK    7  A    between atoms: C_9  and  C_10
REMARK    8  A    between atoms: C_10  and  N_11
REMARK    9  A    between atoms: N_11  and  C_12
REMARK   10  A    between atoms: C_12  and  C_13
REMARK   11  A    between atoms: N_16  and  C_17
REMARK                            x       y       z     vdW  Elec       q    Type
REMARK                         _______ _______ _______ _____ _____    ______ ____
ROOT
ATOM      1  C   UNL     1      48.864   6.790  15.001  0.00  0.00    +0.000 C 
ENDROOT
BRANCH   1   2
ATOM      2  C   UNL     1      47.872   6.086  14.091  0.00  0.00    +0.000 A 
ATOM      3  C   UNL     1      47.337   6.743  12.985  0.00  0.00    +0.000 A 
ATOM      4  C   UNL     1      46.363   6.097  12.225  0.00  0.00    +0.000 A 
ATOM      5  C   UNL     1      45.946   4.815  12.578  0.00  0.00    +0.000 A 
ATOM      6  C   UNL     1      46.545   4.233  13.691  0.00  0.00    +0.000 A 
ATOM      7  N   UNL     1      47.486   4.836  14.448  0.00  0.00    +0.000 NA
BRANCH   5   8
ATOM      8  C   UNL     1      44.809   4.129  11.878  0.00  0.00    +0.000 C 
BRANCH   8   9
ATOM      9  N   UNL     1      45.164   2.862  11.215  0.00  0.00    +0.000 NA
ATOM     10  H   UNL     1      45.158   2.121  11.917  0.00  0.00    +0.000 HD
BRANCH   9  11
ATOM     11  C   UNL     1      44.130   2.609  10.210  0.00  0.00    +0.000 C 
BRANCH  11  12
ATOM     12  C   UNL     1      44.574   2.461   8.754  0.00  0.00    +0.000 C 
ATOM     13  C   UNL     1      44.887   3.868   8.200  0.00  0.00    +0.000 C 
ATOM     14  C   UNL     1      46.330   3.796   7.738  0.00  0.00    +0.000 C 
ATOM     15  N   UNL     1      46.434   2.393   7.354  0.00  0.00    +0.000 NA
ATOM     16  C   UNL     1      47.792   2.005   7.021  0.00  0.00    +0.000 C 
ATOM     17  C   UNL     1      45.857   1.662   8.493  0.00  0.00    +0.000 C 
ENDBRANCH  11  12
ENDBRANCH   9  11
ENDBRANCH   8   9
ENDBRANCH   5   8
ENDBRANCH   1   2
BRANCH   1  18
ATOM     18  N   UNL     1      50.151   7.036  14.352  0.00  0.00    +0.000 NA
ATOM     19  H   UNL     1      50.007   7.130  13.348  0.00  0.00    +0.000 HD
BRANCH  18  20
ATOM     20  C   UNL     1      50.885   8.205  14.862  0.00  0.00    +0.000 C 
BRANCH  20  21
ATOM     21  C   UNL     1      51.379   8.933  13.621  0.00  0.00    +0.000 A 
ATOM     22  C   UNL     1      52.695   8.889  13.171  0.00  0.00    +0.000 A 
ATOM     23  S   UNL     1      52.934   9.688  11.683  0.00  0.00    +0.000 S 
ATOM     24  C   UNL     1      51.293  10.124  11.588  0.00  0.00    +0.000 A 
ATOM     25  N   UNL     1      50.801  10.790  10.507  0.00  0.00    +0.000 NA
ATOM     26  C   UNL     1      49.535  11.045  10.572  0.00  0.00    +0.000 A 
ATOM     27  N   UNL     1      48.725  10.726  11.632  0.00  0.00    +0.000 N 
ATOM     28  C   UNL     1      49.190  10.115  12.777  0.00  0.00    +0.000 A 
ATOM     29  O   UNL     1      48.469   9.952  13.755  0.00  0.00    +0.000 OA
ATOM     30  C   UNL     1      50.588   9.725  12.711  0.00  0.00    +0.000 A 
ATOM     31  H   UNL     1      47.755  11.005  11.640  0.00  0.00    +0.000 HD
ENDBRANCH  20  21
BRANCH  20  33
ATOM     32  C   UNL     1      51.768   8.116  17.274  0.00  0.00    +0.000 C 
ATOM     33  C   UNL     1      52.036   7.802  15.811  0.00  0.00    +0.000 C 
ENDBRANCH  20  33
ENDBRANCH  18  20
ENDBRANCH   1  18
TORSDOF 9
ENDMDL
MODEL 9
REMARK VINA RESULT:    -6.176      4.269      9.346
REMARK INTER + INTRA:         -10.090
REMARK INTER:                  -8.338
REMARK INTRA:                  -1.753
REMARK UNBOUND:                -0.664
REMARK  Name = 
REMARK  11 active torsions:
REMARK  status: ('A' for Active; 'I' for Inactive)
REMARK    1  A    between atoms: C_1  and  C_2
REMARK    2  A    between atoms: C_2  and  C_3
REMARK    3  A    between atoms: C_3  and  N_4
REMARK    4  A    between atoms: C_3  and  C_21
REMARK    5  A    between atoms: N_4  and  C_5
REMARK    6  A    between atoms: C_5  and  C_6
REMARK    7  A    between atoms: C_9  and  C_10
REMARK    8  A    between atoms: C_10  and  N_11
REMARK    9  A    between atoms: N_11  and  C_12
REMARK   10  A    between atoms: C_12  and  C_13
REMARK   11  A    between atoms: N_16  and  C_17
REMARK                            x       y       z     vdW  Elec       q    Type
REMARK                         _______ _______ _______ _____ _____    ______ ____
ROOT
ATOM      1  C   UNL     1      48.646   9.308  14.741  0.00  0.00    +0.000 C 
ENDROOT
BRANCH   1   2
ATOM      2  C   UNL     1      49.447   8.556  15.789  0.00  0.00    +0.000 A 
ATOM      3  C   UNL     1      49.833   7.235  15.572  0.00  0.00    +0.000 A 
ATOM      4  C   UNL     1      50.489   6.549  16.593  0.00  0.00    +0.000 A 
ATOM      5  C   UNL     1      50.749   7.190  17.803  0.00  0.00    +0.000 A 
ATOM      6  C   UNL     1      50.337   8.513  17.925  0.00  0.00    +0.000 A 
ATOM      7  N   UNL     1      49.697   9.201  16.955  0.00  0.00    +0.000 NA
BRANCH   5   8
ATOM      8  C   UNL     1      51.329   6.460  18.979  0.00  0.00    +0.000 C 
BRANCH   8   9
ATOM      9  N   UNL     1      50.486   6.465  20.189  0.00  0.00    +0.000 NA
ATOM     10  H   UNL     1      49.629   6.977  19.979  0.00  0.00    +0.000 HD
BRANCH   9  11
ATOM     11  C   UNL     1      50.175   5.067  20.490  0.00  0.00    +0.000 C 
BRANCH  11  12
ATOM     12  C   UNL     1      48.835   4.514  20.002  0.00  0.00    +0.000 C 
ATOM     13  C   UNL     1      47.845   5.693  19.881  0.00  0.00    +0.000 C 
ATOM     14  C   UNL     1      47.390   5.677  18.435  0.00  0.00    +0.000 C 
ATOM     15  N   UNL     1      47.481   4.255  18.124  0.00  0.00    +0.000 NA
ATOM     16  C   UNL     1      47.254   3.975  16.719  0.00  0.00    +0.000 C 
ATOM     17  C   UNL     1      48.813   3.863  18.613  0.00  0.00    +0.000 C 
ENDBRANCH  11  12
ENDBRANCH   9  11
ENDBRANCH   8   9
ENDBRANCH   5   8
ENDBRANCH   1   2
BRANCH   1  18
ATOM     18  N   UNL     1      47.297   8.771  14.567  0.00  0.00    +0.000 NA
ATOM     19  H   UNL     1      46.647   9.306  15.140  0.00  0.00    +0.000 HD
BRANCH  18  20
ATOM     20  C   UNL     1      46.823   8.736  13.174  0.00  0.00    +0.000 C 
BRANCH  20  21
ATOM     21  C   UNL     1      46.340   7.310  12.958  0.00  0.00    +0.000 A 
ATOM     22  C   UNL     1      46.987   6.187  13.466  0.00  0.00    +0.000 A 
ATOM     23  S   UNL     1      46.150   4.729  13.181  0.00  0.00    +0.000 S 
ATOM     24  C   UNL     1      44.898   5.541  12.366  0.00  0.00    +0.000 A 
ATOM     25  N   UNL     1      43.807   4.870  11.903  0.00  0.00    +0.000 NA
ATOM     26  C   UNL     1      42.934   5.621  11.313  0.00  0.00    +0.000 A 
ATOM     27  N   UNL     1      43.068   6.971  11.114  0.00  0.00    +0.000 N 
ATOM     28  C   UNL     1      44.184   7.681  11.503  0.00  0.00    +0.000 A 
ATOM     29  O   UNL     1      44.329   8.862  11.205  0.00  0.00    +0.000 OA
ATOM     30  C   UNL     1      45.150   6.897  12.253  0.00  0.00    +0.000 A 
ATOM     31  H   UNL     1      42.371   7.486  10.596  0.00  0.00    +0.000 HD
ENDBRANCH  20  21
BRANCH  20  33
ATOM     32  C   UNL     1      47.693  10.500  11.520  0.00  0.00    +0.000 C 
ATOM     33  C   UNL     1      47.925   9.147  12.173  0.00  0.00    +0.000 C 
ENDBRANCH  20  33
ENDBRANCH  18  20
ENDBRANCH   1  18
TORSDOF 9
ENDMDL
