MODEL 1
REMARK VINA RESULT:    -8.480      0.000      0.000
REMARK INTER + INTRA:         -13.021
REMARK INTER:                 -11.950
REMARK INTRA:                  -1.071
REMARK UNBOUND:                -1.071
REMARK  Name = 
REMARK  8 active torsions:
REMARK  status: ('A' for Active; 'I' for Inactive)
REMARK    1  A    between atoms: C_1  and  C_2
REMARK    2  A    between atoms: C_2  and  N_3
REMARK    3  A    between atoms: C_2  and  C_25
REMARK    4  A    between atoms: N_3  and  C_4
REMARK    5  A    between atoms: C_4  and  C_5
REMARK    6  A    between atoms: C_8  and  C_9
REMARK    7  A    between atoms: C_9  and  N_10
REMARK    8  A    between atoms: C_11  and  C_13
REMARK                            x       y       z     vdW  Elec       q    Type
REMARK                         _______ _______ _______ _____ _____    ______ ____
ROOT
ATOM      1  C   UNL     1      44.717   6.011  11.153  0.00  0.00    +0.000 A 
ATOM      2  C   UNL     1      44.363   7.331  11.419  0.00  0.00    +0.000 A 
ATOM      3  C   UNL     1      45.219   8.119  12.186  0.00  0.00    +0.000 A 
ATOM      4  C   UNL     1      46.404   7.576  12.690  0.00  0.00    +0.000 A 
ATOM      5  C   UNL     1      46.679   6.253  12.365  0.00  0.00    +0.000 A 
ATOM      6  N   UNL     1      45.865   5.462  11.621  0.00  0.00    +0.000 NA
ENDROOT
BRANCH   1   7
ATOM      7  C   UNL     1      43.782   5.118  10.361  0.00  0.00    +0.000 C 
BRANCH   7   8
ATOM      8  N   UNL     1      44.386   4.620   9.118  0.00  0.00    +0.000 NA
ATOM      9  H   UNL     1      43.892   5.009   8.315  0.00  0.00    +0.000 HD
BRANCH   8  11
ATOM     10  C   UNL     1      44.338   2.476  10.385  0.00  0.00    +0.000 C 
ATOM     11  C   UNL     1      44.355   3.147   9.008  0.00  0.00    +0.000 C 
BRANCH  11  12
ATOM     12  C   UNL     1      45.576   2.652   8.231  0.00  0.00    +0.000 A 
ATOM     13  C   UNL     1      46.232   3.501   7.334  0.00  0.00    +0.000 A 
ATOM     14  C   UNL     1      47.291   3.007   6.581  0.00  0.00    +0.000 A 
ATOM     15  C   UNL     1      47.680   1.686   6.748  0.00  0.00    +0.000 A 
ATOM     16  C   UNL     1      46.998   0.915   7.674  0.00  0.00    +0.000 A 
ATOM     17  N   UNL     1      45.960   1.362   8.415  0.00  0.00    +0.000 NA
ENDBRANCH  11  12
ENDBRANCH   8  11
ENDBRANCH   7   8
ENDBRANCH   1   7
BRANCH   4  18
ATOM     18  C   UNL     1      47.353   8.335  13.571  0.00  0.00    +0.000 C 
BRANCH  18  19
ATOM     19  N   UNL     1      47.736   7.602  14.755  0.00  0.00    +0.000 N 
ATOM     20  C   UNL     1      48.956   6.990  14.889  0.00  0.00    +0.000 C 
ATOM     21  O   UNL     1      49.821   7.025  14.015  0.00  0.00    +0.000 OA
ATOM     22  H   UNL     1      46.967   7.218  15.294  0.00  0.00    +0.000 HD
BRANCH  20  23
ATOM     23  C   UNL     1      49.172   6.303  16.166  0.00  0.00    +0.000 A 
ATOM     24  C   UNL     1      50.130   6.767  17.051  0.00  0.00    +0.000 A 
ATOM     25  S   UNL     1      50.237   5.842  18.483  0.00  0.00    +0.000 S 
ATOM     26  C   UNL     1      49.026   4.766  17.959  0.00  0.00    +0.000 A 
ATOM     27  N   UNL     1      48.652   3.701  18.702  0.00  0.00    +0.000 NA
ATOM     28  C   UNL     1      47.739   2.962  18.165  0.00  0.00    +0.000 A 
ATOM     29  N   UNL     1      47.151   3.205  16.951  0.00  0.00    +0.000 N 
ATOM     30  C   UNL     1      47.456   4.303  16.187  0.00  0.00    +0.000 A 
ATOM     31  O   UNL     1      46.843   4.548  15.145  0.00  0.00    +0.000 OA
ATOM     32  C   UNL     1      48.518   5.138  16.722  0.00  0.00    +0.000 A 
ATOM     33  H   UNL     1      46.416   2.609  16.605  0.00  0.00    +0.000 HD
ENDBRANCH  20  23
ENDBRANCH  18  19
ENDBRANCH   4  18
TORSDOF 7
ENDMDL
MODEL 2
REMARK VINA RESULT:    -8.067      1.685      2.053
REMARK INTER + INTRA:         -12.439
REMARK INTER:                 -11.605
REMARK INTRA:                  -0.835
REMARK UNBOUND:                -1.071
REMARK  Name = 
REMARK  8 active torsions:
REMARK  status: ('A' for Active; 'I' for Inactive)
REMARK    1  A    between atoms: C_1  and  C_2
REMARK    2  A    between atoms: C_2  and  N_3
REMARK    3  A    between atoms: C_2  and  C_25
REMARK    4  A    between atoms: N_3  and  C_4
REMARK    5  A    between atoms: C_4  and  C_5
REMARK    6  A    between atoms: C_8  and  C_9
REMARK    7  A    between atoms: C_9  and  N_10
REMARK    8  A    between atoms: C_11  and  C_13
REMARK                            x       y       z     vdW  Elec       q    Type
REMARK                         _______ _______ _______ _____ _____    ______ ____
ROOT
ATOM      1  C   UNL     1      45.126   5.425  11.546  0.00  0.00    +0.000 A 
ATOM      2  C   UNL     1      45.270   4.948  12.846  0.00  0.00    +0.000 A 
ATOM      3  C   UNL     1      46.334   5.405  13.620  0.00  0.00    +0.000 A 
ATOM      4  C   UNL     1      47.248   6.315  13.082  0.00  0.00    +0.000 A 
ATOM      5  C   UNL     1      47.019   6.743  11.780  0.00  0.00    +0.000 A 
ATOM      6  N   UNL     1      45.992   6.315  11.003  0.00  0.00    +0.000 NA
ENDROOT
BRANCH   1   7
ATOM      7  C   UNL     1      44.004   4.909  10.666  0.00  0.00    +0.000 C 
BRANCH   7   8
ATOM      8  N   UNL     1      44.453   4.569   9.310  0.00  0.00    +0.000 NA
ATOM      9  H   UNL     1      43.898   5.081   8.625  0.00  0.00    +0.000 HD
BRANCH   8  11
ATOM     10  C   UNL     1      44.190   2.291  10.282  0.00  0.00    +0.000 C 
ATOM     11  C   UNL     1      44.344   3.127   9.008  0.00  0.00    +0.000 C 
BRANCH  11  12
ATOM     12  C   UNL     1      45.587   2.653   8.252  0.00  0.00    +0.000 A 
ATOM     13  C   UNL     1      46.267   3.526   7.398  0.00  0.00    +0.000 A 
ATOM     14  C   UNL     1      47.347   3.053   6.661  0.00  0.00    +0.000 A 
ATOM     15  C   UNL     1      47.731   1.727   6.801  0.00  0.00    +0.000 A 
ATOM     16  C   UNL     1      47.023   0.930   7.685  0.00  0.00    +0.000 A 
ATOM     17  N   UNL     1      45.965   1.358   8.410  0.00  0.00    +0.000 NA
ENDBRANCH  11  12
ENDBRANCH   8  11
ENDBRANCH   7   8
ENDBRANCH   1   7
BRANCH   4  18
ATOM     18  C   UNL     1      48.454   6.814  13.825  0.00  0.00    +0.000 C 
BRANCH  18  19
ATOM     19  N   UNL     1      48.217   6.985  15.239  0.00  0.00    +0.000 N 
ATOM     20  C   UNL     1      49.112   6.584  16.198  0.00  0.00    +0.000 C 
ATOM     21  O   UNL     1      50.189   6.056  15.926  0.00  0.00    +0.000 OA
ATOM     22  H   UNL     1      47.241   7.031  15.513  0.00  0.00    +0.000 HD
BRANCH  20  23
ATOM     23  C   UNL     1      48.707   6.852  17.581  0.00  0.00    +0.000 A 
ATOM     24  C   UNL     1      48.379   8.138  17.972  0.00  0.00    +0.000 A 
ATOM     25  S   UNL     1      47.931   8.255  19.617  0.00  0.00    +0.000 S 
ATOM     26  C   UNL     1      48.189   6.592  19.875  0.00  0.00    +0.000 A 
ATOM     27  N   UNL     1      48.026   6.028  21.092  0.00  0.00    +0.000 NA
ATOM     28  C   UNL     1      48.280   4.762  21.139  0.00  0.00    +0.000 A 
ATOM     29  N   UNL     1      48.670   4.003  20.067  0.00  0.00    +0.000 N 
ATOM     30  C   UNL     1      48.795   4.518  18.802  0.00  0.00    +0.000 A 
ATOM     31  O   UNL     1      49.054   3.792  17.839  0.00  0.00    +0.000 OA
ATOM     32  C   UNL     1      48.572   5.951  18.704  0.00  0.00    +0.000 A 
ATOM     33  H   UNL     1      48.817   3.010  20.163  0.00  0.00    +0.000 HD
ENDBRANCH  20  23
ENDBRANCH  18  19
ENDBRANCH   4  18
TORSDOF 7
ENDMDL
MODEL 3
REMARK VINA RESULT:    -7.427      2.042      2.625
REMARK INTER + INTRA:         -11.538
REMARK INTER:                 -10.514
REMARK INTRA:                  -1.023
REMARK UNBOUND:                -1.071
REMARK  Name = 
REMARK  8 active torsions:
REMARK  status: ('A' for Active; 'I' for Inactive)
REMARK    1  A    between atoms: C_1  and  C_2
REMARK    2  A    between atoms: C_2  and  N_3
REMARK    3  A    between atoms: C_2  and  C_25
REMARK    4  A    between atoms: N_3  and  C_4
REMARK    5  A    between atoms: C_4  and  C_5
REMARK    6  A    between atoms: C_8  and  C_9
REMARK    7  A    between atoms: C_9  and  N_10
REMARK    8  A    between atoms: C_11  and  C_13
REMARK                            x       y       z     vdW  Elec       q    Type
REMARK                         _______ _______ _______ _____ _____    ______ ____
ROOT
ATOM      1  C   UNL     1      45.322   6.443  11.554  0.00  0.00    +0.000 A 
ATOM      2  C   UNL     1      44.926   7.678  12.061  0.00  0.00    +0.000 A 
ATOM      3  C   UNL     1      45.787   8.367  12.912  0.00  0.00    +0.000 A 
ATOM      4  C   UNL     1      47.019   7.809  13.260  0.00  0.00    +0.000 A 
ATOM      5  C   UNL     1      47.334   6.577  12.699  0.00  0.00    +0.000 A 
ATOM      6  N   UNL     1      46.516   5.883  11.868  0.00  0.00    +0.000 NA
ENDROOT
BRANCH   1   7
ATOM      7  C   UNL     1      44.386   5.651  10.662  0.00  0.00    +0.000 C 
BRANCH   7   8
ATOM      8  N   UNL     1      45.053   5.114   9.469  0.00  0.00    +0.000 NA
ATOM      9  H   UNL     1      44.950   5.769   8.693  0.00  0.00    +0.000 HD
BRANCH   8  11
ATOM     10  C   UNL     1      44.168   2.918  10.241  0.00  0.00    +0.000 C 
ATOM     11  C   UNL     1      44.514   3.807   9.043  0.00  0.00    +0.000 C 
BRANCH  11  12
ATOM     12  C   UNL     1      45.534   3.079   8.165  0.00  0.00    +0.000 A 
ATOM     13  C   UNL     1      45.845   1.738   8.410  0.00  0.00    +0.000 A 
ATOM     14  C   UNL     1      46.831   1.119   7.650  0.00  0.00    +0.000 A 
ATOM     15  C   UNL     1      47.474   1.844   6.658  0.00  0.00    +0.000 A 
ATOM     16  C   UNL     1      47.093   3.160   6.458  0.00  0.00    +0.000 A 
ATOM     17  N   UNL     1      46.145   3.793   7.184  0.00  0.00    +0.000 NA
ENDBRANCH  11  12
ENDBRANCH   8  11
ENDBRANCH   7   8
ENDBRANCH   1   7
BRANCH   4  18
ATOM     18  C   UNL     1      47.981   8.455  14.215  0.00  0.00    +0.000 C 
BRANCH  18  19
ATOM     19  N   UNL     1      48.002   7.819  15.512  0.00  0.00    +0.000 N 
ATOM     20  C   UNL     1      48.977   6.930  15.889  0.00  0.00    +0.000 C 
ATOM     21  O   UNL     1      49.911   6.613  15.154  0.00  0.00    +0.000 OA
ATOM     22  H   UNL     1      47.101   7.732  15.968  0.00  0.00    +0.000 HD
BRANCH  20  23
ATOM     23  C   UNL     1      48.843   6.397  17.248  0.00  0.00    +0.000 A 
ATOM     24  C   UNL     1      48.854   5.029  17.461  0.00  0.00    +0.000 A 
ATOM     25  S   UNL     1      48.688   4.597  19.106  0.00  0.00    +0.000 S 
ATOM     26  C   UNL     1      48.564   6.223  19.591  0.00  0.00    +0.000 A 
ATOM     27  N   UNL     1      48.365   6.566  20.882  0.00  0.00    +0.000 NA
ATOM     28  C   UNL     1      48.268   7.837  21.095  0.00  0.00    +0.000 A 
ATOM     29  N   UNL     1      48.370   8.801  20.127  0.00  0.00    +0.000 N 
ATOM     30  C   UNL     1      48.627   8.506  18.812  0.00  0.00    +0.000 A 
ATOM     31  O   UNL     1      48.808   9.398  17.980  0.00  0.00    +0.000 OA
ATOM     32  C   UNL     1      48.691   7.086  18.510  0.00  0.00    +0.000 A 
ATOM     33  H   UNL     1      48.321   9.779  20.366  0.00  0.00    +0.000 HD
ENDBRANCH  20  23
ENDBRANCH  18  19
ENDBRANCH   4  18
TORSDOF 7
ENDMDL
MODEL 4
REMARK VINA RESULT:    -7.390      3.145      7.959
REMARK INTER + INTRA:         -11.486
REMARK INTER:                  -9.876
REMARK INTRA:                  -1.610
REMARK UNBOUND:                -1.071
REMARK  Name = 
REMARK  8 active torsions:
REMARK  status: ('A' for Active; 'I' for Inactive)
REMARK    1  A    between atoms: C_1  and  C_2
REMARK    2  A    between atoms: C_2  and  N_3
REMARK    3  A    between atoms: C_2  and  C_25
REMARK    4  A    between atoms: N_3  and  C_4
REMARK    5  A    between atoms: C_4  and  C_5
REMARK    6  A    between atoms: C_8  and  C_9
REMARK    7  A    between atoms: C_9  and  N_10
REMARK    8  A    between atoms: C_11  and  C_13
REMARK                            x       y       z     vdW  Elec       q    Type
REMARK                         _______ _______ _______ _____ _____    ______ ____
ROOT
ATOM      1  C   UNL     1      48.667   7.924  16.259  0.00  0.00    +0.000 A 
ATOM      2  C   UNL     1      49.063   6.815  15.516  0.00  0.00    +0.000 A 
ATOM      3  C   UNL     1      48.962   6.861  14.127  0.00  0.00    +0.000 A 
ATOM      4  C   UNL     1      48.452   8.001  13.501  0.00  0.00    +0.000 A 
ATOM      5  C   UNL     1      48.091   9.062  14.323  0.00  0.00    +0.000 A 
ATOM      6  N   UNL     1      48.177   9.046  15.677  0.00  0.00    +0.000 NA
ENDROOT
BRANCH   1   7
ATOM      7  C   UNL     1      48.722   7.883  17.774  0.00  0.00    +0.000 C 
BRANCH   7   8
ATOM      8  N   UNL     1      47.497   7.340  18.374  0.00  0.00    +0.000 NA
ATOM      9  H   UNL     1      47.023   8.068  18.910  0.00  0.00    +0.000 HD
BRANCH   8  11
ATOM     10  C   UNL     1      48.964   6.443  20.176  0.00  0.00    +0.000 C 
ATOM     11  C   UNL     1      47.750   6.197  19.274  0.00  0.00    +0.000 C 
BRANCH  11  12
ATOM     12  C   UNL     1      47.992   4.927  18.456  0.00  0.00    +0.000 A 
ATOM     13  C   UNL     1      49.244   4.305  18.474  0.00  0.00    +0.000 A 
ATOM     14  C   UNL     1      49.465   3.197  17.663  0.00  0.00    +0.000 A 
ATOM     15  C   UNL     1      48.433   2.728  16.864  0.00  0.00    +0.000 A 
ATOM     16  C   UNL     1      47.213   3.383  16.919  0.00  0.00    +0.000 A 
ATOM     17  N   UNL     1      46.969   4.466  17.690  0.00  0.00    +0.000 NA
ENDBRANCH  11  12
ENDBRANCH   8  11
ENDBRANCH   7   8
ENDBRANCH   1   7
BRANCH   4  18
ATOM     18  C   UNL     1      48.255   8.113  12.017  0.00  0.00    +0.000 C 
BRANCH  18  19
ATOM     19  N   UNL     1      47.534   6.994  11.456  0.00  0.00    +0.000 N 
ATOM     20  C   UNL     1      46.164   6.926  11.437  0.00  0.00    +0.000 C 
ATOM     21  O   UNL     1      45.445   7.817  11.888  0.00  0.00    +0.000 OA
ATOM     22  H   UNL     1      48.037   6.114  11.448  0.00  0.00    +0.000 HD
BRANCH  20  23
ATOM     23  C   UNL     1      45.608   5.721  10.815  0.00  0.00    +0.000 A 
ATOM     24  C   UNL     1      45.785   5.493   9.461  0.00  0.00    +0.000 A 
ATOM     25  S   UNL     1      45.069   4.040   8.917  0.00  0.00    +0.000 S 
ATOM     26  C   UNL     1      44.468   3.677  10.468  0.00  0.00    +0.000 A 
ATOM     27  N   UNL     1      43.719   2.577  10.700  0.00  0.00    +0.000 NA
ATOM     28  C   UNL     1      43.315   2.446  11.920  0.00  0.00    +0.000 A 
ATOM     29  N   UNL     1      43.610   3.314  12.938  0.00  0.00    +0.000 N 
ATOM     30  C   UNL     1      44.413   4.413  12.764  0.00  0.00    +0.000 A 
ATOM     31  O   UNL     1      44.739   5.123  13.718  0.00  0.00    +0.000 OA
ATOM     32  C   UNL     1      44.849   4.636  11.397  0.00  0.00    +0.000 A 
ATOM     33  H   UNL     1      43.294   3.134  13.878  0.00  0.00    +0.000 HD
ENDBRANCH  20  23
ENDBRANCH  18  19
ENDBRANCH   4  18
TORSDOF 7
ENDMDL
MODEL 5
REMARK VINA RESULT:    -7.352      1.759      2.500
REMARK INTER + INTRA:         -11.433
REMARK INTER:                 -10.663
REMARK INTRA:                  -0.769
REMARK UNBOUND:                -1.071
REMARK  Name = 
REMARK  8 active torsions:
REMARK  status: ('A' for Active; 'I' for Inactive)
REMARK    1  A    between atoms: C_1  and  C_2
REMARK    2  A    between atoms: C_2  and  N_3
REMARK    3  A    between atoms: C_2  and  C_25
REMARK    4  A    between atoms: N_3  and  C_4
REMARK    5  A    between atoms: C_4  and  C_5
REMARK    6  A    between atoms: C_8  and  C_9
REMARK    7  A    between atoms: C_9  and  N_10
REMARK    8  A    between atoms: C_11  and  C_13
REMARK                            x       y       z     vdW  Elec       q    Type
REMARK                         _______ _______ _______ _____ _____    ______ ____
ROOT
ATOM      1  C   UNL     1      44.731   5.468  11.297  0.00  0.00    +0.000 A 
ATOM      2  C   UNL     1      45.036   4.826  12.494  0.00  0.00    +0.000 A 
ATOM      3  C   UNL     1      45.995   5.387  13.336  0.00  0.00    +0.000 A 
ATOM      4  C   UNL     1      46.647   6.565  12.965  0.00  0.00    +0.000 A 
ATOM      5  C   UNL     1      46.271   7.139  11.756  0.00  0.00    +0.000 A 
ATOM      6  N   UNL     1      45.342   6.616  10.917  0.00  0.00    +0.000 NA
ENDROOT
BRANCH   1   7
ATOM      7  C   UNL     1      43.726   4.855  10.341  0.00  0.00    +0.000 C 
BRANCH   7   8
ATOM      8  N   UNL     1      44.327   4.453   9.063  0.00  0.00    +0.000 NA
ATOM      9  H   UNL     1      43.812   4.877   8.291  0.00  0.00    +0.000 HD
BRANCH   8  11
ATOM     10  C   UNL     1      44.223   2.234  10.189  0.00  0.00    +0.000 C 
ATOM     11  C   UNL     1      44.337   2.990   8.862  0.00  0.00    +0.000 C 
BRANCH  11  12
ATOM     12  C   UNL     1      45.628   2.564   8.160  0.00  0.00    +0.000 A 
ATOM     13  C   UNL     1      46.328   3.473   7.362  0.00  0.00    +0.000 A 
ATOM     14  C   UNL     1      47.456   3.044   6.671  0.00  0.00    +0.000 A 
ATOM     15  C   UNL     1      47.866   1.725   6.800  0.00  0.00    +0.000 A 
ATOM     16  C   UNL     1      47.134   0.890   7.628  0.00  0.00    +0.000 A 
ATOM     17  N   UNL     1      46.030   1.275   8.307  0.00  0.00    +0.000 NA
ENDBRANCH  11  12
ENDBRANCH   8  11
ENDBRANCH   7   8
ENDBRANCH   1   7
BRANCH   4  18
ATOM     18  C   UNL     1      47.732   7.204  13.783  0.00  0.00    +0.000 C 
BRANCH  18  19
ATOM     19  N   UNL     1      48.250   6.335  14.814  0.00  0.00    +0.000 N 
ATOM     20  C   UNL     1      48.840   6.807  15.958  0.00  0.00    +0.000 C 
ATOM     21  O   UNL     1      48.965   8.008  16.198  0.00  0.00    +0.000 OA
ATOM     22  H   UNL     1      48.527   5.410  14.502  0.00  0.00    +0.000 HD
BRANCH  20  23
ATOM     23  C   UNL     1      49.294   5.777  16.897  0.00  0.00    +0.000 A 
ATOM     24  C   UNL     1      48.372   4.986  17.559  0.00  0.00    +0.000 A 
ATOM     25  S   UNL     1      49.087   3.843  18.609  0.00  0.00    +0.000 S 
ATOM     26  C   UNL     1      50.658   4.386  18.239  0.00  0.00    +0.000 A 
ATOM     27  N   UNL     1      51.750   3.854  18.830  0.00  0.00    +0.000 NA
ATOM     28  C   UNL     1      52.872   4.383  18.467  0.00  0.00    +0.000 A 
ATOM     29  N   UNL     1      52.999   5.391  17.547  0.00  0.00    +0.000 N 
ATOM     30  C   UNL     1      51.925   5.923  16.880  0.00  0.00    +0.000 A 
ATOM     31  O   UNL     1      52.078   6.762  15.989  0.00  0.00    +0.000 OA
ATOM     32  C   UNL     1      50.634   5.401  17.292  0.00  0.00    +0.000 A 
ATOM     33  H   UNL     1      53.908   5.734  17.280  0.00  0.00    +0.000 HD
ENDBRANCH  20  23
ENDBRANCH  18  19
ENDBRANCH   4  18
TORSDOF 7
ENDMDL
MODEL 6
REMARK VINA RESULT:    -7.275      2.784      8.327
REMARK INTER + INTRA:         -11.324
REMARK INTER:                  -9.681
REMARK INTRA:                  -1.643
REMARK UNBOUND:                -1.071
REMARK  Name = 
REMARK  8 active torsions:
REMARK  status: ('A' for Active; 'I' for Inactive)
REMARK    1  A    between atoms: C_1  and  C_2
REMARK    2  A    between atoms: C_2  and  N_3
REMARK    3  A    between atoms: C_2  and  C_25
REMARK    4  A    between atoms: N_3  and  C_4
REMARK    5  A    between atoms: C_4  and  C_5
REMARK    6  A    between atoms: C_8  and  C_9
REMARK    7  A    between atoms: C_9  and  N_10
REMARK    8  A    between atoms: C_11  and  C_13
REMARK                            x       y       z     vdW  Elec       q    Type
REMARK                         _______ _______ _______ _____ _____    ______ ____
ROOT
ATOM      1  C   UNL     1      48.648   8.001  15.956  0.00  0.00    +0.000 A 
ATOM      2  C   UNL     1      49.072   6.858  15.282  0.00  0.00    +0.000 A 
ATOM      3  C   UNL     1      48.749   6.709  13.935  0.00  0.00    +0.000 A 
ATOM      4  C   UNL     1      47.994   7.689  13.286  0.00  0.00    +0.000 A 
ATOM      5  C   UNL     1      47.623   8.798  14.035  0.00  0.00    +0.000 A 
ATOM      6  N   UNL     1      47.923   8.971  15.347  0.00  0.00    +0.000 NA
ENDROOT
BRANCH   1   7
ATOM      7  C   UNL     1      48.946   8.167  17.433  0.00  0.00    +0.000 C 
BRANCH   7   8
ATOM      8  N   UNL     1      47.899   7.599  18.293  0.00  0.00    +0.000 NA
ATOM      9  H   UNL     1      47.514   8.327  18.894  0.00  0.00    +0.000 HD
BRANCH   8  11
ATOM     10  C   UNL     1      49.814   6.761  19.646  0.00  0.00    +0.000 C 
ATOM     11  C   UNL     1      48.388   6.502  19.153  0.00  0.00    +0.000 C 
BRANCH  11  12
ATOM     12  C   UNL     1      48.362   5.179  18.385  0.00  0.00    +0.000 A 
ATOM     13  C   UNL     1      49.528   4.420  18.251  0.00  0.00    +0.000 A 
ATOM     14  C   UNL     1      49.501   3.261  17.483  0.00  0.00    +0.000 A 
ATOM     15  C   UNL     1      48.312   2.880  16.877  0.00  0.00    +0.000 A 
ATOM     16  C   UNL     1      47.193   3.671  17.076  0.00  0.00    +0.000 A 
ATOM     17  N   UNL     1      47.189   4.807  17.810  0.00  0.00    +0.000 NA
ENDBRANCH  11  12
ENDBRANCH   8  11
ENDBRANCH   7   8
ENDBRANCH   1   7
BRANCH   4  18
ATOM     18  C   UNL     1      47.553   7.580  11.855  0.00  0.00    +0.000 C 
BRANCH  18  19
ATOM     19  N   UNL     1      46.791   6.383  11.586  0.00  0.00    +0.000 N 
ATOM     20  C   UNL     1      45.445   6.287  11.830  0.00  0.00    +0.000 C 
ATOM     21  O   UNL     1      44.781   7.216  12.288  0.00  0.00    +0.000 OA
ATOM     22  H   UNL     1      47.323   5.519  11.599  0.00  0.00    +0.000 HD
BRANCH  20  23
ATOM     23  C   UNL     1      44.838   4.998  11.483  0.00  0.00    +0.000 A 
ATOM     24  C   UNL     1      44.059   4.326  12.409  0.00  0.00    +0.000 A 
ATOM     25  S   UNL     1      43.438   2.845  11.826  0.00  0.00    +0.000 S 
ATOM     26  C   UNL     1      44.213   3.034  10.323  0.00  0.00    +0.000 A 
ATOM     27  N   UNL     1      44.129   2.092   9.357  0.00  0.00    +0.000 NA
ATOM     28  C   UNL     1      44.789   2.364   8.280  0.00  0.00    +0.000 A 
ATOM     29  N   UNL     1      45.516   3.507   8.076  0.00  0.00    +0.000 N 
ATOM     30  C   UNL     1      45.585   4.516   9.003  0.00  0.00    +0.000 A 
ATOM     31  O   UNL     1      46.167   5.574   8.754  0.00  0.00    +0.000 OA
ATOM     32  C   UNL     1      44.904   4.236  10.256  0.00  0.00    +0.000 A 
ATOM     33  H   UNL     1      45.978   3.675   7.196  0.00  0.00    +0.000 HD
ENDBRANCH  20  23
ENDBRANCH  18  19
ENDBRANCH   4  18
TORSDOF 7
ENDMDL
MODEL 7
REMARK VINA RESULT:    -7.150      3.294      4.382
REMARK INTER + INTRA:         -11.148
REMARK INTER:                 -10.234
REMARK INTRA:                  -0.913
REMARK UNBOUND:                -1.071
REMARK  Name = 
REMARK  8 active torsions:
REMARK  status: ('A' for Active; 'I' for Inactive)
REMARK    1  A    between atoms: C_1  and  C_2
REMARK    2  A    between atoms: C_2  and  N_3
REMARK    3  A    between atoms: C_2  and  C_25
REMARK    4  A    between atoms: N_3  and  C_4
REMARK    5  A    between atoms: C_4  and  C_5
REMARK    6  A    between atoms: C_8  and  C_9
REMARK    7  A    between atoms: C_9  and  N_10
REMARK    8  A    between atoms: C_11  and  C_13
REMARK                            x       y       z     vdW  Elec       q    Type
REMARK                         _______ _______ _______ _____ _____    ______ ____
ROOT
ATOM      1  C   UNL     1      46.999   5.546  13.548  0.00  0.00    +0.000 A 
ATOM      2  C   UNL     1      47.914   6.462  14.060  0.00  0.00    +0.000 A 
ATOM      3  C   UNL     1      48.457   6.240  15.324  0.00  0.00    +0.000 A 
ATOM      4  C   UNL     1      48.067   5.121  16.064  0.00  0.00    +0.000 A 
ATOM      5  C   UNL     1      47.156   4.257  15.469  0.00  0.00    +0.000 A 
ATOM      6  N   UNL     1      46.611   4.449  14.241  0.00  0.00    +0.000 NA
ENDROOT
BRANCH   1   7
ATOM      7  C   UNL     1      46.358   5.789  12.195  0.00  0.00    +0.000 C 
BRANCH   7   8
ATOM      8  N   UNL     1      45.568   4.643  11.726  0.00  0.00    +0.000 NA
ATOM      9  H   UNL     1      46.181   3.843  11.568  0.00  0.00    +0.000 HD
BRANCH   8  11
ATOM     10  C   UNL     1      43.335   4.658  10.623  0.00  0.00    +0.000 C 
ATOM     11  C   UNL     1      44.837   4.918  10.472  0.00  0.00    +0.000 C 
BRANCH  11  12
ATOM     12  C   UNL     1      45.380   4.040   9.343  0.00  0.00    +0.000 A 
ATOM     13  C   UNL     1      45.275   2.649   9.420  0.00  0.00    +0.000 A 
ATOM     14  C   UNL     1      45.844   1.867   8.422  0.00  0.00    +0.000 A 
ATOM     15  C   UNL     1      46.493   2.488   7.365  0.00  0.00    +0.000 A 
ATOM     16  C   UNL     1      46.535   3.873   7.346  0.00  0.00    +0.000 A 
ATOM     17  N   UNL     1      45.999   4.660   8.304  0.00  0.00    +0.000 NA
ENDBRANCH  11  12
ENDBRANCH   8  11
ENDBRANCH   7   8
ENDBRANCH   1   7
BRANCH   4  18
ATOM     18  C   UNL     1      48.557   4.836  17.455  0.00  0.00    +0.000 C 
BRANCH  18  19
ATOM     19  N   UNL     1      49.926   4.375  17.489  0.00  0.00    +0.000 N 
ATOM     20  C   UNL     1      50.671   4.343  18.640  0.00  0.00    +0.000 C 
ATOM     21  O   UNL     1      50.229   4.696  19.732  0.00  0.00    +0.000 OA
ATOM     22  H   UNL     1      50.434   4.460  16.615  0.00  0.00    +0.000 HD
BRANCH  20  23
ATOM     23  C   UNL     1      52.037   3.832  18.485  0.00  0.00    +0.000 A 
ATOM     24  C   UNL     1      53.116   4.609  18.869  0.00  0.00    +0.000 A 
ATOM     25  S   UNL     1      54.625   3.848  18.614  0.00  0.00    +0.000 S 
ATOM     26  C   UNL     1      53.891   2.462  17.952  0.00  0.00    +0.000 A 
ATOM     27  N   UNL     1      54.621   1.425  17.486  0.00  0.00    +0.000 NA
ATOM     28  C   UNL     1      53.926   0.455  16.992  0.00  0.00    +0.000 A 
ATOM     29  N   UNL     1      52.557   0.422  16.936  0.00  0.00    +0.000 N 
ATOM     30  C   UNL     1      51.772   1.425  17.446  0.00  0.00    +0.000 A 
ATOM     31  O   UNL     1      50.543   1.326  17.469  0.00  0.00    +0.000 OA
ATOM     32  C   UNL     1      52.506   2.566  17.966  0.00  0.00    +0.000 A 
ATOM     33  H   UNL     1      52.074  -0.383  16.570  0.00  0.00    +0.000 HD
ENDBRANCH  20  23
ENDBRANCH  18  19
ENDBRANCH   4  18
TORSDOF 7
ENDMDL
MODEL 8
REMARK VINA RESULT:    -7.071      3.396      5.778
REMARK INTER + INTRA:         -11.036
REMARK INTER:                  -9.957
REMARK INTRA:                  -1.079
REMARK UNBOUND:                -1.071
REMARK  Name = 
REMARK  8 active torsions:
REMARK  status: ('A' for Active; 'I' for Inactive)
REMARK    1  A    between atoms: C_1  and  C_2
REMARK    2  A    between atoms: C_2  and  N_3
REMARK    3  A    between atoms: C_2  and  C_25
REMARK    4  A    between atoms: N_3  and  C_4
REMARK    5  A    between atoms: C_4  and  C_5
REMARK    6  A    between atoms: C_8  and  C_9
REMARK    7  A    between atoms: C_9  and  N_10
REMARK    8  A    between atoms: C_11  and  C_13
REMARK                            x       y       z     vdW  Elec       q    Type
REMARK                         _______ _______ _______ _____ _____    ______ ____
ROOT
ATOM      1  C   UNL     1      47.702   5.671  14.544  0.00  0.00    +0.000 A 
ATOM      2  C   UNL     1      47.022   4.457  14.578  0.00  0.00    +0.000 A 
ATOM      3  C   UNL     1      47.173   3.627  15.687  0.00  0.00    +0.000 A 
ATOM      4  C   UNL     1      48.013   4.011  16.736  0.00  0.00    +0.000 A 
ATOM      5  C   UNL     1      48.644   5.244  16.620  0.00  0.00    +0.000 A 
ATOM      6  N   UNL     1      48.515   6.071  15.552  0.00  0.00    +0.000 NA
ENDROOT
BRANCH   1   7
ATOM      7  C   UNL     1      47.592   6.571  13.329  0.00  0.00    +0.000 C 
BRANCH   7   8
ATOM      8  N   UNL     1      46.256   7.161  13.176  0.00  0.00    +0.000 NA
ATOM      9  H   UNL     1      45.626   6.775  13.879  0.00  0.00    +0.000 HD
BRANCH   8  11
ATOM     10  C   UNL     1      44.713   8.045  11.432  0.00  0.00    +0.000 C 
ATOM     11  C   UNL     1      45.664   6.917  11.845  0.00  0.00    +0.000 C 
BRANCH  11  12
ATOM     12  C   UNL     1      44.893   5.596  11.846  0.00  0.00    +0.000 A 
ATOM     13  C   UNL     1      45.017   4.707  10.775  0.00  0.00    +0.000 A 
ATOM     14  C   UNL     1      44.249   3.548  10.759  0.00  0.00    +0.000 A 
ATOM     15  C   UNL     1      43.384   3.297  11.814  0.00  0.00    +0.000 A 
ATOM     16  C   UNL     1      43.334   4.213  12.852  0.00  0.00    +0.000 A 
ATOM     17  N   UNL     1      44.062   5.352  12.893  0.00  0.00    +0.000 NA
ENDBRANCH  11  12
ENDBRANCH   8  11
ENDBRANCH   7   8
ENDBRANCH   1   7
BRANCH   4  18
ATOM     18  C   UNL     1      48.278   3.153  17.939  0.00  0.00    +0.000 C 
BRANCH  18  19
ATOM     19  N   UNL     1      49.678   2.843  18.116  0.00  0.00    +0.000 N 
ATOM     20  C   UNL     1      50.396   2.102  17.211  0.00  0.00    +0.000 C 
ATOM     21  O   UNL     1      49.904   1.651  16.178  0.00  0.00    +0.000 OA
ATOM     22  H   UNL     1      50.003   2.836  19.076  0.00  0.00    +0.000 HD
BRANCH  20  23
ATOM     23  C   UNL     1      51.807   1.900  17.551  0.00  0.00    +0.000 A 
ATOM     24  C   UNL     1      52.315   0.618  17.674  0.00  0.00    +0.000 A 
ATOM     25  S   UNL     1      53.976   0.581  18.073  0.00  0.00    +0.000 S 
ATOM     26  C   UNL     1      54.071   2.280  18.124  0.00  0.00    +0.000 A 
ATOM     27  N   UNL     1      55.216   2.918  18.450  0.00  0.00    +0.000 NA
ATOM     28  C   UNL     1      55.129   4.207  18.470  0.00  0.00    +0.000 A 
ATOM     29  N   UNL     1      53.996   4.919  18.176  0.00  0.00    +0.000 N 
ATOM     30  C   UNL     1      52.826   4.318  17.786  0.00  0.00    +0.000 A 
ATOM     31  O   UNL     1      51.851   4.987  17.435  0.00  0.00    +0.000 OA
ATOM     32  C   UNL     1      52.854   2.866  17.799  0.00  0.00    +0.000 A 
ATOM     33  H   UNL     1      54.005   5.927  18.174  0.00  0.00    +0.000 HD
ENDBRANCH  20  23
ENDBRANCH  18  19
ENDBRANCH   4  18
TORSDOF 7
ENDMDL
MODEL 9
REMARK VINA RESULT:    -6.865      3.190      7.949
REMARK INTER + INTRA:         -10.746
REMARK INTER:                  -9.551
REMARK INTRA:                  -1.195
REMARK UNBOUND:                -1.071
REMARK  Name = 
REMARK  8 active torsions:
REMARK  status: ('A' for Active; 'I' for Inactive)
REMARK    1  A    between atoms: C_1  and  C_2
REMARK    2  A    between atoms: C_2  and  N_3
REMARK    3  A    between atoms: C_2  and  C_25
REMARK    4  A    between atoms: N_3  and  C_4
REMARK    5  A    between atoms: C_4  and  C_5
REMARK    6  A    between atoms: C_8  and  C_9
REMARK    7  A    between atoms: C_9  and  N_10
REMARK    8  A    between atoms: C_11  and  C_13
REMARK                            x       y       z     vdW  Elec       q    Type
REMARK                         _______ _______ _______ _____ _____    ______ ____
ROOT
ATOM      1  C   UNL     1      50.377   7.441  15.327  0.00  0.00    +0.000 A 
ATOM      2  C   UNL     1      50.610   8.633  14.647  0.00  0.00    +0.000 A 
ATOM      3  C   UNL     1      49.795   8.965  13.568  0.00  0.00    +0.000 A 
ATOM      4  C   UNL     1      48.773   8.099  13.171  0.00  0.00    +0.000 A 
ATOM      5  C   UNL     1      48.609   6.936  13.915  0.00  0.00    +0.000 A 
ATOM      6  N   UNL     1      49.387   6.587  14.969  0.00  0.00    +0.000 NA
ENDROOT
BRANCH   1   7
ATOM      7  C   UNL     1      51.279   7.032  16.476  0.00  0.00    +0.000 C 
BRANCH   7   8
ATOM      8  N   UNL     1      51.598   5.599  16.467  0.00  0.00    +0.000 NA
ATOM      9  H   UNL     1      51.141   5.149  15.674  0.00  0.00    +0.000 HD
BRANCH   8  11
ATOM     10  C   UNL     1      52.120   3.754  18.057  0.00  0.00    +0.000 C 
ATOM     11  C   UNL     1      51.173   4.903  17.699  0.00  0.00    +0.000 C 
BRANCH  11  12
ATOM     12  C   UNL     1      49.760   4.343  17.525  0.00  0.00    +0.000 A 
ATOM     13  C   UNL     1      48.658   5.046  18.021  0.00  0.00    +0.000 A 
ATOM     14  C   UNL     1      47.391   4.483  17.922  0.00  0.00    +0.000 A 
ATOM     15  C   UNL     1      47.249   3.241  17.321  0.00  0.00    +0.000 A 
ATOM     16  C   UNL     1      48.385   2.617  16.832  0.00  0.00    +0.000 A 
ATOM     17  N   UNL     1      49.631   3.134  16.920  0.00  0.00    +0.000 NA
ENDBRANCH  11  12
ENDBRANCH   8  11
ENDBRANCH   7   8
ENDBRANCH   1   7
BRANCH   4  18
ATOM     18  C   UNL     1      47.887   8.351  11.986  0.00  0.00    +0.000 C 
BRANCH  18  19
ATOM     19  N   UNL     1      47.272   7.149  11.473  0.00  0.00    +0.000 N 
ATOM     20  C   UNL     1      45.919   7.029  11.278  0.00  0.00    +0.000 C 
ATOM     21  O   UNL     1      45.128   7.940  11.518  0.00  0.00    +0.000 OA
ATOM     22  H   UNL     1      47.789   6.292  11.639  0.00  0.00    +0.000 HD
BRANCH  20  23
ATOM     23  C   UNL     1      45.478   5.740  10.738  0.00  0.00    +0.000 A 
ATOM     24  C   UNL     1      45.711   5.428   9.410  0.00  0.00    +0.000 A 
ATOM     25  S   UNL     1      45.127   3.885   8.963  0.00  0.00    +0.000 S 
ATOM     26  C   UNL     1      44.514   3.590  10.524  0.00  0.00    +0.000 A 
ATOM     27  N   UNL     1      43.848   2.453  10.823  0.00  0.00    +0.000 NA
ATOM     28  C   UNL     1      43.423   2.381  12.040  0.00  0.00    +0.000 A 
ATOM     29  N   UNL     1      43.619   3.343  12.995  0.00  0.00    +0.000 N 
ATOM     30  C   UNL     1      44.336   4.488  12.756  0.00  0.00    +0.000 A 
ATOM     31  O   UNL     1      44.579   5.291  13.660  0.00  0.00    +0.000 OA
ATOM     32  C   UNL     1      44.792   4.644  11.385  0.00  0.00    +0.000 A 
ATOM     33  H   UNL     1      43.292   3.208  13.939  0.00  0.00    +0.000 HD
ENDBRANCH  20  23
ENDBRANCH  18  19
ENDBRANCH   4  18
TORSDOF 7
ENDMDL
