MODEL 1
REMARK VINA RESULT:    -7.588      0.000      0.000
REMARK INTER + INTRA:         -10.314
REMARK INTER:                  -9.806
REMARK INTRA:                  -0.507
REMARK UNBOUND:                -0.507
REMARK  Name = 
REMARK  6 active torsions:
REMARK  status: ('A' for Active; 'I' for Inactive)
REMARK    1  A    between atoms: N_1  and  C_2
REMARK    2  A    between atoms: C_2  and  C_3
REMARK    3  A    between atoms: C_6  and  O_7
REMARK    4  A    between atoms: O_7  and  C_8
REMARK    5  A    between atoms: C_8  and  C_9
REMARK    6  A    between atoms: C_12  and  O_13
REMARK                            x       y       z     vdW  Elec       q    Type
REMARK                         _______ _______ _______ _____ _____    ______ ____
ROOT
ATOM      1  C   UNL     1      46.414   5.594  12.634  0.00  0.00    +0.000 A 
ATOM      2  C   UNL     1      46.319   6.217  11.381  0.00  0.00    +0.000 A 
ATOM      3  C   UNL     1      45.573   5.633  10.354  0.00  0.00    +0.000 A 
ATOM      4  C   UNL     1      44.930   4.414  10.560  0.00  0.00    +0.000 A 
ATOM      5  C   UNL     1      44.966   3.821  11.823  0.00  0.00    +0.000 A 
ATOM      6  C   UNL     1      45.714   4.401  12.849  0.00  0.00    +0.000 A 
ENDROOT
BRANCH   1   7
ATOM      7  C   UNL     1      47.273   6.172  13.728  0.00  0.00    +0.000 C 
BRANCH   7   8
ATOM      8  N   UNL     1      47.454   5.233  14.827  0.00  0.00    +0.000 NA
ATOM      9  H   UNL     1      48.425   4.927  14.842  0.00  0.00    +0.000 HD
ATOM     10  H   UNL     1      46.892   4.403  14.644  0.00  0.00    +0.000 HD
ENDBRANCH   7   8
ENDBRANCH   1   7
BRANCH   4  11
ATOM     11  O   UNL     1      44.296   3.878   9.470  0.00  0.00    +0.000 OA
BRANCH  11  12
ATOM     12  C   UNL     1      44.560   2.489   9.249  0.00  0.00    +0.000 C 
BRANCH  12  13
ATOM     13  C   UNL     1      45.607   2.346   8.186  0.00  0.00    +0.000 A 
ATOM     14  C   UNL     1      45.908   3.395   7.314  0.00  0.00    +0.000 A 
ATOM     15  C   UNL     1      46.916   3.239   6.369  0.00  0.00    +0.000 A 
ATOM     16  C   UNL     1      47.594   2.033   6.338  0.00  0.00    +0.000 A 
ATOM     17  N   UNL     1      47.350   1.007   7.171  0.00  0.00    +0.000 NA
ATOM     18  C   UNL     1      46.363   1.183   8.075  0.00  0.00    +0.000 A 
BRANCH  16  19
ATOM     19  O   UNL     1      48.585   1.807   5.430  0.00  0.00    +0.000 OA
ATOM     20  H   UNL     1      48.216   1.954   4.549  0.00  0.00    +0.000 HD
ENDBRANCH  16  19
ENDBRANCH  12  13
ENDBRANCH  11  12
ENDBRANCH   4  11
TORSDOF 6
ENDMDL
MODEL 2
REMARK VINA RESULT:    -7.488      2.026      6.242
REMARK INTER + INTRA:         -10.184
REMARK INTER:                  -9.670
REMARK INTRA:                  -0.514
REMARK UNBOUND:                -0.507
REMARK  Name = 
REMARK  6 active torsions:
REMARK  status: ('A' for Active; 'I' for Inactive)
REMARK    1  A    between atoms: N_1  and  C_2
REMARK    2  A    between atoms: C_2  and  C_3
REMARK    3  A    between atoms: C_6  and  O_7
REMARK    4  A    between atoms: O_7  and  C_8
REMARK    5  A    between atoms: C_8  and  C_9
REMARK    6  A    between atoms: C_12  and  O_13
REMARK                            x       y       z     vdW  Elec       q    Type
REMARK                         _______ _______ _______ _____ _____    ______ ____
ROOT
ATOM      1  C   UNL     1      47.046   2.366   7.251  0.00  0.00    +0.000 A 
ATOM      2  C   UNL     1      46.414   1.376   8.016  0.00  0.00    +0.000 A 
ATOM      3  C   UNL     1      45.314   1.693   8.817  0.00  0.00    +0.000 A 
ATOM      4  C   UNL     1      44.846   3.005   8.878  0.00  0.00    +0.000 A 
ATOM      5  C   UNL     1      45.429   3.981   8.068  0.00  0.00    +0.000 A 
ATOM      6  C   UNL     1      46.530   3.667   7.271  0.00  0.00    +0.000 A 
ENDROOT
BRANCH   1   7
ATOM      7  C   UNL     1      48.278   2.056   6.440  0.00  0.00    +0.000 C 
BRANCH   7   8
ATOM      8  N   UNL     1      48.169   2.559   5.077  0.00  0.00    +0.000 NA
ATOM      9  H   UNL     1      49.090   2.862   4.764  0.00  0.00    +0.000 HD
ATOM     10  H   UNL     1      47.579   3.390   5.081  0.00  0.00    +0.000 HD
ENDBRANCH   7   8
ENDBRANCH   1   7
BRANCH   4  11
ATOM     11  O   UNL     1      43.819   3.235   9.755  0.00  0.00    +0.000 OA
BRANCH  11  12
ATOM     12  C   UNL     1      43.729   4.583  10.226  0.00  0.00    +0.000 C 
BRANCH  12  13
ATOM     13  C   UNL     1      44.638   4.760  11.404  0.00  0.00    +0.000 A 
ATOM     14  C   UNL     1      45.578   5.792  11.450  0.00  0.00    +0.000 A 
ATOM     15  C   UNL     1      46.374   5.950  12.579  0.00  0.00    +0.000 A 
ATOM     16  C   UNL     1      46.191   5.068  13.630  0.00  0.00    +0.000 A 
ATOM     17  N   UNL     1      45.285   4.076  13.635  0.00  0.00    +0.000 NA
ATOM     18  C   UNL     1      44.530   3.941  12.524  0.00  0.00    +0.000 A 
BRANCH  16  19
ATOM     19  O   UNL     1      46.944   5.158  14.762  0.00  0.00    +0.000 OA
ATOM     20  H   UNL     1      46.413   5.603  15.435  0.00  0.00    +0.000 HD
ENDBRANCH  16  19
ENDBRANCH  12  13
ENDBRANCH  11  12
ENDBRANCH   4  11
TORSDOF 6
ENDMDL
MODEL 3
REMARK VINA RESULT:    -5.800      1.502      1.944
REMARK INTER + INTRA:          -8.002
REMARK INTER:                  -7.932
REMARK INTRA:                  -0.070
REMARK UNBOUND:                -0.507
REMARK  Name = 
REMARK  6 active torsions:
REMARK  status: ('A' for Active; 'I' for Inactive)
REMARK    1  A    between atoms: N_1  and  C_2
REMARK    2  A    between atoms: C_2  and  C_3
REMARK    3  A    between atoms: C_6  and  O_7
REMARK    4  A    between atoms: O_7  and  C_8
REMARK    5  A    between atoms: C_8  and  C_9
REMARK    6  A    between atoms: C_12  and  O_13
REMARK                            x       y       z     vdW  Elec       q    Type
REMARK                         _______ _______ _______ _____ _____    ______ ____
ROOT
ATOM      1  C   UNL     1      47.194   6.624  12.712  0.00  0.00    +0.000 A 
ATOM      2  C   UNL     1      46.387   7.315  11.796  0.00  0.00    +0.000 A 
ATOM      3  C   UNL     1      45.284   6.688  11.210  0.00  0.00    +0.000 A 
ATOM      4  C   UNL     1      44.986   5.362  11.518  0.00  0.00    +0.000 A 
ATOM      5  C   UNL     1      45.746   4.690  12.477  0.00  0.00    +0.000 A 
ATOM      6  C   UNL     1      46.850   5.313  13.060  0.00  0.00    +0.000 A 
ENDROOT
BRANCH   1   7
ATOM      7  C   UNL     1      48.429   7.260  13.296  0.00  0.00    +0.000 C 
BRANCH   7   8
ATOM      8  N   UNL     1      49.088   6.383  14.254  0.00  0.00    +0.000 NA
ATOM      9  H   UNL     1      49.445   6.946  15.024  0.00  0.00    +0.000 HD
ATOM     10  H   UNL     1      49.900   5.960  13.806  0.00  0.00    +0.000 HD
ENDBRANCH   7   8
ENDBRANCH   1   7
BRANCH   4  11
ATOM     11  O   UNL     1      43.939   4.807  10.829  0.00  0.00    +0.000 OA
BRANCH  11  12
ATOM     12  C   UNL     1      44.084   3.412  10.547  0.00  0.00    +0.000 C 
BRANCH  12  13
ATOM     13  C   UNL     1      45.003   3.234   9.377  0.00  0.00    +0.000 A 
ATOM     14  C   UNL     1      45.472   1.972   9.005  0.00  0.00    +0.000 A 
ATOM     15  C   UNL     1      46.289   1.842   7.887  0.00  0.00    +0.000 A 
ATOM     16  C   UNL     1      46.602   2.987   7.177  0.00  0.00    +0.000 A 
ATOM     17  N   UNL     1      46.157   4.216   7.489  0.00  0.00    +0.000 NA
ATOM     18  C   UNL     1      45.370   4.315   8.581  0.00  0.00    +0.000 A 
BRANCH  16  19
ATOM     19  O   UNL     1      47.407   2.934   6.079  0.00  0.00    +0.000 OA
ATOM     20  H   UNL     1      48.222   3.411   6.287  0.00  0.00    +0.000 HD
ENDBRANCH  16  19
ENDBRANCH  12  13
ENDBRANCH  11  12
ENDBRANCH   4  11
TORSDOF 6
ENDMDL
MODEL 4
REMARK VINA RESULT:    -5.351      3.841      6.141
REMARK INTER + INTRA:          -7.422
REMARK INTER:                  -7.093
REMARK INTRA:                  -0.329
REMARK UNBOUND:                -0.507
REMARK  Name = 
REMARK  6 active torsions:
REMARK  status: ('A' for Active; 'I' for Inactive)
REMARK    1  A    between atoms: N_1  and  C_2
REMARK    2  A    between atoms: C_2  and  C_3
REMARK    3  A    between atoms: C_6  and  O_7
REMARK    4  A    between atoms: O_7  and  C_8
REMARK    5  A    between atoms: C_8  and  C_9
REMARK    6  A    between atoms: C_12  and  O_13
REMARK                            x       y       z     vdW  Elec       q    Type
REMARK                         _______ _______ _______ _____ _____    ______ ____
ROOT
ATOM      1  C   UNL     1      48.639   4.575  18.485  0.00  0.00    +0.000 A 
ATOM      2  C   UNL     1      48.076   3.357  18.079  0.00  0.00    +0.000 A 
ATOM      3  C   UNL     1      47.505   3.228  16.810  0.00  0.00    +0.000 A 
ATOM      4  C   UNL     1      47.475   4.317  15.941  0.00  0.00    +0.000 A 
ATOM      5  C   UNL     1      48.092   5.512  16.313  0.00  0.00    +0.000 A 
ATOM      6  C   UNL     1      48.659   5.644  17.582  0.00  0.00    +0.000 A 
ENDROOT
BRANCH   1   7
ATOM      7  C   UNL     1      49.192   4.753  19.875  0.00  0.00    +0.000 C 
BRANCH   7   8
ATOM      8  N   UNL     1      48.463   3.958  20.854  0.00  0.00    +0.000 NA
ATOM      9  H   UNL     1      48.067   3.144  20.387  0.00  0.00    +0.000 HD
ATOM     10  H   UNL     1      47.674   4.504  21.198  0.00  0.00    +0.000 HD
ENDBRANCH   7   8
ENDBRANCH   1   7
BRANCH   4  11
ATOM     11  O   UNL     1      46.819   4.118  14.755  0.00  0.00    +0.000 OA
BRANCH  11  12
ATOM     12  C   UNL     1      47.181   5.031  13.714  0.00  0.00    +0.000 C 
BRANCH  12  13
ATOM     13  C   UNL     1      46.226   4.883  12.569  0.00  0.00    +0.000 A 
ATOM     14  C   UNL     1      45.398   3.763  12.452  0.00  0.00    +0.000 A 
ATOM     15  C   UNL     1      44.493   3.682  11.398  0.00  0.00    +0.000 A 
ATOM     16  C   UNL     1      44.447   4.735  10.502  0.00  0.00    +0.000 A 
ATOM     17  N   UNL     1      45.209   5.837  10.589  0.00  0.00    +0.000 NA
ATOM     18  C   UNL     1      46.083   5.888  11.618  0.00  0.00    +0.000 A 
BRANCH  16  19
ATOM     19  O   UNL     1      43.593   4.715   9.440  0.00  0.00    +0.000 OA
ATOM     20  H   UNL     1      43.131   3.866   9.448  0.00  0.00    +0.000 HD
ENDBRANCH  16  19
ENDBRANCH  12  13
ENDBRANCH  11  12
ENDBRANCH   4  11
TORSDOF 6
ENDMDL
MODEL 5
REMARK VINA RESULT:    -5.268      4.110      5.435
REMARK INTER + INTRA:          -7.316
REMARK INTER:                  -6.848
REMARK INTRA:                  -0.468
REMARK UNBOUND:                -0.507
REMARK  Name = 
REMARK  6 active torsions:
REMARK  status: ('A' for Active; 'I' for Inactive)
REMARK    1  A    between atoms: N_1  and  C_2
REMARK    2  A    between atoms: C_2  and  C_3
REMARK    3  A    between atoms: C_6  and  O_7
REMARK    4  A    between atoms: O_7  and  C_8
REMARK    5  A    between atoms: C_8  and  C_9
REMARK    6  A    between atoms: C_12  and  O_13
REMARK                            x       y       z     vdW  Elec       q    Type
REMARK                         _______ _______ _______ _____ _____    ______ ____
ROOT
ATOM      1  C   UNL     1      49.512   8.256  11.920  0.00  0.00    +0.000 A 
ATOM      2  C   UNL     1      48.518   9.234  11.771  0.00  0.00    +0.000 A 
ATOM      3  C   UNL     1      47.190   8.952  12.099  0.00  0.00    +0.000 A 
ATOM      4  C   UNL     1      46.836   7.686  12.561  0.00  0.00    +0.000 A 
ATOM      5  C   UNL     1      47.829   6.728  12.775  0.00  0.00    +0.000 A 
ATOM      6  C   UNL     1      49.156   7.008  12.443  0.00  0.00    +0.000 A 
ENDROOT
BRANCH   1   7
ATOM      7  C   UNL     1      50.935   8.520  11.501  0.00  0.00    +0.000 C 
BRANCH   7   8
ATOM      8  N   UNL     1      51.594   7.309  11.030  0.00  0.00    +0.000 NA
ATOM      9  H   UNL     1      52.596   7.481  10.975  0.00  0.00    +0.000 HD
ATOM     10  H   UNL     1      51.282   7.115  10.080  0.00  0.00    +0.000 HD
ENDBRANCH   7   8
ENDBRANCH   1   7
BRANCH   4  11
ATOM     11  O   UNL     1      45.499   7.477  12.774  0.00  0.00    +0.000 OA
BRANCH  11  12
ATOM     12  C   UNL     1      44.748   7.172  11.595  0.00  0.00    +0.000 C 
BRANCH  12  13
ATOM     13  C   UNL     1      44.309   5.740  11.643  0.00  0.00    +0.000 A 
ATOM     14  C   UNL     1      43.891   5.146  12.836  0.00  0.00    +0.000 A 
ATOM     15  C   UNL     1      43.450   3.827  12.832  0.00  0.00    +0.000 A 
ATOM     16  C   UNL     1      43.437   3.152  11.624  0.00  0.00    +0.000 A 
ATOM     17  N   UNL     1      43.810   3.692  10.452  0.00  0.00    +0.000 NA
ATOM     18  C   UNL     1      44.240   4.971  10.485  0.00  0.00    +0.000 A 
BRANCH  16  19
ATOM     19  O   UNL     1      43.028   1.854  11.550  0.00  0.00    +0.000 OA
ATOM     20  H   UNL     1      42.582   1.637  12.380  0.00  0.00    +0.000 HD
ENDBRANCH  16  19
ENDBRANCH  12  13
ENDBRANCH  11  12
ENDBRANCH   4  11
TORSDOF 6
ENDMDL
MODEL 6
REMARK VINA RESULT:    -5.214      4.548      8.015
REMARK INTER + INTRA:          -7.246
REMARK INTER:                  -6.912
REMARK INTRA:                  -0.334
REMARK UNBOUND:                -0.507
REMARK  Name = 
REMARK  6 active torsions:
REMARK  status: ('A' for Active; 'I' for Inactive)
REMARK    1  A    between atoms: N_1  and  C_2
REMARK    2  A    between atoms: C_2  and  C_3
REMARK    3  A    between atoms: C_6  and  O_7
REMARK    4  A    between atoms: O_7  and  C_8
REMARK    5  A    between atoms: C_8  and  C_9
REMARK    6  A    between atoms: C_12  and  O_13
REMARK                            x       y       z     vdW  Elec       q    Type
REMARK                         _______ _______ _______ _____ _____    ______ ____
ROOT
ATOM      1  C   UNL     1      44.982   4.574  11.210  0.00  0.00    +0.000 A 
ATOM      2  C   UNL     1      45.243   3.518  12.094  0.00  0.00    +0.000 A 
ATOM      3  C   UNL     1      46.103   3.698  13.180  0.00  0.00    +0.000 A 
ATOM      4  C   UNL     1      46.726   4.928  13.385  0.00  0.00    +0.000 A 
ATOM      5  C   UNL     1      46.420   6.002  12.547  0.00  0.00    +0.000 A 
ATOM      6  C   UNL     1      45.564   5.822  11.460  0.00  0.00    +0.000 A 
ENDROOT
BRANCH   1   7
ATOM      7  C   UNL     1      44.117   4.376   9.993  0.00  0.00    +0.000 C 
BRANCH   7   8
ATOM      8  N   UNL     1      44.825   4.710   8.764  0.00  0.00    +0.000 NA
ATOM      9  H   UNL     1      44.154   4.755   8.000  0.00  0.00    +0.000 HD
ATOM     10  H   UNL     1      45.466   3.950   8.540  0.00  0.00    +0.000 HD
ENDBRANCH   7   8
ENDBRANCH   1   7
BRANCH   4  11
ATOM     11  O   UNL     1      47.617   4.983  14.424  0.00  0.00    +0.000 OA
BRANCH  11  12
ATOM     12  C   UNL     1      47.157   4.379  15.637  0.00  0.00    +0.000 C 
BRANCH  12  13
ATOM     13  C   UNL     1      48.334   4.031  16.496  0.00  0.00    +0.000 A 
ATOM     14  C   UNL     1      48.761   2.709  16.643  0.00  0.00    +0.000 A 
ATOM     15  C   UNL     1      49.884   2.429  17.415  0.00  0.00    +0.000 A 
ATOM     16  C   UNL     1      50.544   3.492  18.007  0.00  0.00    +0.000 A 
ATOM     17  N   UNL     1      50.179   4.778  17.874  0.00  0.00    +0.000 NA
ATOM     18  C   UNL     1      49.082   5.021  17.125  0.00  0.00    +0.000 A 
BRANCH  16  19
ATOM     19  O   UNL     1      51.644   3.289  18.785  0.00  0.00    +0.000 OA
ATOM     20  H   UNL     1      51.344   3.184  19.698  0.00  0.00    +0.000 HD
ENDBRANCH  16  19
ENDBRANCH  12  13
ENDBRANCH  11  12
ENDBRANCH   4  11
TORSDOF 6
ENDMDL
MODEL 7
REMARK VINA RESULT:    -5.173      3.764      5.800
REMARK INTER + INTRA:          -7.192
REMARK INTER:                  -6.852
REMARK INTRA:                  -0.340
REMARK UNBOUND:                -0.507
REMARK  Name = 
REMARK  6 active torsions:
REMARK  status: ('A' for Active; 'I' for Inactive)
REMARK    1  A    between atoms: N_1  and  C_2
REMARK    2  A    between atoms: C_2  and  C_3
REMARK    3  A    between atoms: C_6  and  O_7
REMARK    4  A    between atoms: O_7  and  C_8
REMARK    5  A    between atoms: C_8  and  C_9
REMARK    6  A    between atoms: C_12  and  O_13
REMARK                            x       y       z     vdW  Elec       q    Type
REMARK                         _______ _______ _______ _____ _____    ______ ____
ROOT
ATOM      1  C   UNL     1      49.403   4.158  17.787  0.00  0.00    +0.000 A 
ATOM      2  C   UNL     1      48.778   5.242  17.154  0.00  0.00    +0.000 A 
ATOM      3  C   UNL     1      47.884   5.028  16.101  0.00  0.00    +0.000 A 
ATOM      4  C   UNL     1      47.619   3.733  15.658  0.00  0.00    +0.000 A 
ATOM      5  C   UNL     1      48.187   2.647  16.326  0.00  0.00    +0.000 A 
ATOM      6  C   UNL     1      49.083   2.859  17.375  0.00  0.00    +0.000 A 
ENDROOT
BRANCH   1   7
ATOM      7  C   UNL     1      50.425   4.374  18.872  0.00  0.00    +0.000 C 
BRANCH   7   8
ATOM      8  N   UNL     1      51.566   3.479  18.728  0.00  0.00    +0.000 NA
ATOM      9  H   UNL     1      51.243   2.518  18.814  0.00  0.00    +0.000 HD
ATOM     10  H   UNL     1      52.207   3.638  19.505  0.00  0.00    +0.000 HD
ENDBRANCH   7   8
ENDBRANCH   1   7
BRANCH   4  11
ATOM     11  O   UNL     1      46.797   3.629  14.567  0.00  0.00    +0.000 OA
BRANCH  11  12
ATOM     12  C   UNL     1      46.382   4.882  14.012  0.00  0.00    +0.000 C 
BRANCH  12  13
ATOM     13  C   UNL     1      45.779   4.650  12.660  0.00  0.00    +0.000 A 
ATOM     14  C   UNL     1      45.185   3.430  12.327  0.00  0.00    +0.000 A 
ATOM     15  C   UNL     1      44.597   3.268  11.077  0.00  0.00    +0.000 A 
ATOM     16  C   UNL     1      44.620   4.343  10.206  0.00  0.00    +0.000 A 
ATOM     17  N   UNL     1      45.163   5.537  10.493  0.00  0.00    +0.000 NA
ATOM     18  C   UNL     1      45.732   5.666  11.711  0.00  0.00    +0.000 A 
BRANCH  16  19
ATOM     19  O   UNL     1      44.074   4.249   8.961  0.00  0.00    +0.000 OA
ATOM     20  H   UNL     1      44.746   4.524   8.322  0.00  0.00    +0.000 HD
ENDBRANCH  16  19
ENDBRANCH  12  13
ENDBRANCH  11  12
ENDBRANCH   4  11
TORSDOF 6
ENDMDL
MODEL 8
REMARK VINA RESULT:    -5.141      2.911      4.790
REMARK INTER + INTRA:          -7.151
REMARK INTER:                  -6.759
REMARK INTRA:                  -0.392
REMARK UNBOUND:                -0.507
REMARK  Name = 
REMARK  6 active torsions:
REMARK  status: ('A' for Active; 'I' for Inactive)
REMARK    1  A    between atoms: N_1  and  C_2
REMARK    2  A    between atoms: C_2  and  C_3
REMARK    3  A    between atoms: C_6  and  O_7
REMARK    4  A    between atoms: O_7  and  C_8
REMARK    5  A    between atoms: C_8  and  C_9
REMARK    6  A    between atoms: C_12  and  O_13
REMARK                            x       y       z     vdW  Elec       q    Type
REMARK                         _______ _______ _______ _____ _____    ______ ____
ROOT
ATOM      1  C   UNL     1      48.297   4.759  16.783  0.00  0.00    +0.000 A 
ATOM      2  C   UNL     1      47.459   3.958  15.994  0.00  0.00    +0.000 A 
ATOM      3  C   UNL     1      47.039   4.395  14.735  0.00  0.00    +0.000 A 
ATOM      4  C   UNL     1      47.436   5.643  14.258  0.00  0.00    +0.000 A 
ATOM      5  C   UNL     1      48.322   6.417  15.009  0.00  0.00    +0.000 A 
ATOM      6  C   UNL     1      48.738   5.984  16.268  0.00  0.00    +0.000 A 
ENDROOT
BRANCH   1   7
ATOM      7  C   UNL     1      48.698   4.337  18.172  0.00  0.00    +0.000 C 
BRANCH   7   8
ATOM      8  N   UNL     1      47.852   3.264  18.678  0.00  0.00    +0.000 NA
ATOM      9  H   UNL     1      47.262   2.926  17.920  0.00  0.00    +0.000 HD
ATOM     10  H   UNL     1      47.224   3.648  19.383  0.00  0.00    +0.000 HD
ENDBRANCH   7   8
ENDBRANCH   1   7
BRANCH   4  11
ATOM     11  O   UNL     1      46.905   6.020  13.053  0.00  0.00    +0.000 OA
BRANCH  11  12
ATOM     12  C   UNL     1      45.487   5.857  12.949  0.00  0.00    +0.000 C 
BRANCH  12  13
ATOM     13  C   UNL     1      45.157   5.192  11.647  0.00  0.00    +0.000 A 
ATOM     14  C   UNL     1      45.701   5.643  10.442  0.00  0.00    +0.000 A 
ATOM     15  C   UNL     1      45.406   4.973   9.259  0.00  0.00    +0.000 A 
ATOM     16  C   UNL     1      44.577   3.866   9.331  0.00  0.00    +0.000 A 
ATOM     17  N   UNL     1      44.050   3.389  10.471  0.00  0.00    +0.000 NA
ATOM     18  C   UNL     1      44.348   4.061  11.603  0.00  0.00    +0.000 A 
BRANCH  16  19
ATOM     19  O   UNL     1      44.237   3.170   8.210  0.00  0.00    +0.000 OA
ATOM     20  H   UNL     1      43.686   2.424   8.482  0.00  0.00    +0.000 HD
ENDBRANCH  16  19
ENDBRANCH  12  13
ENDBRANCH  11  12
ENDBRANCH   4  11
TORSDOF 6
ENDMDL
MODEL 9
REMARK VINA RESULT:    -4.976      2.909      4.163
REMARK INTER + INTRA:          -6.938
REMARK INTER:                  -6.442
REMARK INTRA:                  -0.497
REMARK UNBOUND:                -0.507
REMARK  Name = 
REMARK  6 active torsions:
REMARK  status: ('A' for Active; 'I' for Inactive)
REMARK    1  A    between atoms: N_1  and  C_2
REMARK    2  A    between atoms: C_2  and  C_3
REMARK    3  A    between atoms: C_6  and  O_7
REMARK    4  A    between atoms: O_7  and  C_8
REMARK    5  A    between atoms: C_8  and  C_9
REMARK    6  A    between atoms: C_12  and  O_13
REMARK                            x       y       z     vdW  Elec       q    Type
REMARK                         _______ _______ _______ _____ _____    ______ ____
ROOT
ATOM      1  C   UNL     1      48.824   8.032  13.140  0.00  0.00    +0.000 A 
ATOM      2  C   UNL     1      47.667   8.814  13.264  0.00  0.00    +0.000 A 
ATOM      3  C   UNL     1      46.402   8.232  13.142  0.00  0.00    +0.000 A 
ATOM      4  C   UNL     1      46.280   6.869  12.877  0.00  0.00    +0.000 A 
ATOM      5  C   UNL     1      47.425   6.074  12.817  0.00  0.00    +0.000 A 
ATOM      6  C   UNL     1      48.689   6.654  12.935  0.00  0.00    +0.000 A 
ENDROOT
BRANCH   1   7
ATOM      7  C   UNL     1      50.195   8.655  13.195  0.00  0.00    +0.000 C 
BRANCH   7   8
ATOM      8  N   UNL     1      51.211   7.777  12.630  0.00  0.00    +0.000 NA
ATOM      9  H   UNL     1      50.818   7.293  11.825  0.00  0.00    +0.000 HD
ATOM     10  H   UNL     1      51.441   7.059  13.315  0.00  0.00    +0.000 HD
ENDBRANCH   7   8
ENDBRANCH   1   7
BRANCH   4  11
ATOM     11  O   UNL     1      45.004   6.407  12.688  0.00  0.00    +0.000 OA
BRANCH  11  12
ATOM     12  C   UNL     1      44.518   6.526  11.347  0.00  0.00    +0.000 C 
BRANCH  12  13
ATOM     13  C   UNL     1      44.516   5.175  10.699  0.00  0.00    +0.000 A 
ATOM     14  C   UNL     1      45.204   4.940   9.505  0.00  0.00    +0.000 A 
ATOM     15  C   UNL     1      45.215   3.662   8.956  0.00  0.00    +0.000 A 
ATOM     16  C   UNL     1      44.538   2.661   9.632  0.00  0.00    +0.000 A 
ATOM     17  N   UNL     1      43.882   2.841  10.790  0.00  0.00    +0.000 NA
ATOM     18  C   UNL     1      43.883   4.092  11.298  0.00  0.00    +0.000 A 
BRANCH  16  19
ATOM     19  O   UNL     1      44.498   1.389   9.144  0.00  0.00    +0.000 OA
ATOM     20  H   UNL     1      45.212   1.298   8.499  0.00  0.00    +0.000 HD
ENDBRANCH  16  19
ENDBRANCH  12  13
ENDBRANCH  11  12
ENDBRANCH   4  11
TORSDOF 6
ENDMDL
