MODEL 1
REMARK VINA RESULT:    -8.838      0.000      0.000
REMARK INTER + INTRA:         -12.215
REMARK INTER:                 -11.421
REMARK INTRA:                  -0.794
REMARK UNBOUND:                -0.794
REMARK  Name = 
REMARK  5 active torsions:
REMARK  status: ('A' for Active; 'I' for Inactive)
REMARK    1  A    between atoms: C_2  and  C_4
REMARK    2  A    between atoms: C_7  and  O_8
REMARK    3  A    between atoms: O_8  and  C_9
REMARK    4  A    between atoms: C_9  and  C_10
REMARK    5  A    between atoms: C_15  and  C_16
REMARK                            x       y       z     vdW  Elec       q    Type
REMARK                         _______ _______ _______ _____ _____    ______ ____
ROOT
ATOM      1  C   UNL     1      44.798   4.834  11.896  0.00  0.00    +0.000 A 
ATOM      2  C   UNL     1      45.309   3.995  12.895  0.00  0.00    +0.000 A 
ATOM      3  C   UNL     1      46.411   4.393  13.644  0.00  0.00    +0.000 A 
ATOM      4  C   UNL     1      47.000   5.635  13.411  0.00  0.00    +0.000 A 
ATOM      5  F   UNL     1      48.040   5.978  14.185  0.00  0.00    +0.000 F 
ATOM      6  C   UNL     1      46.521   6.517  12.425  0.00  0.00    +0.000 A 
ATOM      7  C   UNL     1      45.407   6.084  11.678  0.00  0.00    +0.000 A 
ENDROOT
BRANCH   6   8
ATOM      8  C   UNL     1      47.138   7.839  12.174  0.00  0.00    +0.000 A 
ATOM      9  C   UNL     1      46.447   9.043  12.367  0.00  0.00    +0.000 A 
ATOM     10  N   UNL     1      46.958  10.286  12.161  0.00  0.00    +0.000 NA
ATOM     11  C   UNL     1      48.238  10.347  11.737  0.00  0.00    +0.000 A 
ATOM     12  C   UNL     1      49.015   9.227  11.519  0.00  0.00    +0.000 A 
ATOM     13  F   UNL     1      50.284   9.346  11.109  0.00  0.00    +0.000 F 
ATOM     14  C   UNL     1      48.466   7.969  11.733  0.00  0.00    +0.000 A 
ENDBRANCH   6   8
BRANCH   1  15
ATOM     15  C   UNL     1      43.552   4.423  11.142  0.00  0.00    +0.000 C 
BRANCH  15  16
ATOM     16  O   UNL     1      43.661   4.766   9.756  0.00  0.00    +0.000 OA
BRANCH  16  20
ATOM     17  C   UNL     1      46.340   2.326   7.805  0.00  0.00    +0.000 A 
ATOM     18  C   UNL     1      45.434   1.771   8.710  0.00  0.00    +0.000 A 
ATOM     19  C   UNL     1      44.536   2.610   9.372  0.00  0.00    +0.000 A 
ATOM     20  C   UNL     1      44.578   3.969   9.100  0.00  0.00    +0.000 A 
ATOM     21  N   UNL     1      45.452   4.533   8.242  0.00  0.00    +0.000 NA
ATOM     22  C   UNL     1      46.321   3.702   7.620  0.00  0.00    +0.000 A 
BRANCH  17  24
ATOM     23  N   UNL     1      48.426   2.192   6.567  0.00  0.00    +0.000 N 
ATOM     24  C   UNL     1      47.326   1.535   7.042  0.00  0.00    +0.000 C 
ATOM     25  O   UNL     1      47.188   0.331   6.879  0.00  0.00    +0.000 OA
ATOM     26  H   UNL     1      49.145   1.611   6.154  0.00  0.00    +0.000 HD
ATOM     27  H   UNL     1      48.699   3.107   6.897  0.00  0.00    +0.000 HD
ENDBRANCH  17  24
ENDBRANCH  16  20
ENDBRANCH  15  16
ENDBRANCH   1  15
TORSDOF 5
ENDMDL
MODEL 2
REMARK VINA RESULT:    -8.616      1.875      2.379
REMARK INTER + INTRA:         -11.928
REMARK INTER:                 -11.042
REMARK INTRA:                  -0.886
REMARK UNBOUND:                -0.794
REMARK  Name = 
REMARK  5 active torsions:
REMARK  status: ('A' for Active; 'I' for Inactive)
REMARK    1  A    between atoms: C_2  and  C_4
REMARK    2  A    between atoms: C_7  and  O_8
REMARK    3  A    between atoms: O_8  and  C_9
REMARK    4  A    between atoms: C_9  and  C_10
REMARK    5  A    between atoms: C_15  and  C_16
REMARK                            x       y       z     vdW  Elec       q    Type
REMARK                         _______ _______ _______ _____ _____    ______ ____
ROOT
ATOM      1  C   UNL     1      44.566   4.773  11.676  0.00  0.00    +0.000 A 
ATOM      2  C   UNL     1      43.600   5.741  11.377  0.00  0.00    +0.000 A 
ATOM      3  C   UNL     1      43.913   7.092  11.469  0.00  0.00    +0.000 A 
ATOM      4  C   UNL     1      45.196   7.485  11.846  0.00  0.00    +0.000 A 
ATOM      5  F   UNL     1      45.450   8.801  11.888  0.00  0.00    +0.000 F 
ATOM      6  C   UNL     1      46.205   6.553  12.150  0.00  0.00    +0.000 A 
ATOM      7  C   UNL     1      45.856   5.192  12.054  0.00  0.00    +0.000 A 
ENDROOT
BRANCH   6   8
ATOM      8  C   UNL     1      47.571   6.962  12.548  0.00  0.00    +0.000 A 
ATOM      9  C   UNL     1      48.123   6.638  13.796  0.00  0.00    +0.000 A 
ATOM     10  N   UNL     1      49.369   6.978  14.218  0.00  0.00    +0.000 NA
ATOM     11  C   UNL     1      50.126   7.683  13.350  0.00  0.00    +0.000 A 
ATOM     12  C   UNL     1      49.689   8.051  12.094  0.00  0.00    +0.000 A 
ATOM     13  F   UNL     1      50.487   8.741  11.268  0.00  0.00    +0.000 F 
ATOM     14  C   UNL     1      48.408   7.696  11.691  0.00  0.00    +0.000 A 
ENDBRANCH   6   8
BRANCH   1  15
ATOM     15  C   UNL     1      44.236   3.307  11.496  0.00  0.00    +0.000 C 
BRANCH  15  16
ATOM     16  O   UNL     1      43.657   3.071  10.208  0.00  0.00    +0.000 OA
BRANCH  16  20
ATOM     17  C   UNL     1      46.548   2.512   7.333  0.00  0.00    +0.000 A 
ATOM     18  C   UNL     1      45.902   3.745   7.430  0.00  0.00    +0.000 A 
ATOM     19  C   UNL     1      44.917   3.920   8.404  0.00  0.00    +0.000 A 
ATOM     20  C   UNL     1      44.621   2.857   9.242  0.00  0.00    +0.000 A 
ATOM     21  N   UNL     1      45.219   1.651   9.161  0.00  0.00    +0.000 NA
ATOM     22  C   UNL     1      46.163   1.501   8.202  0.00  0.00    +0.000 A 
BRANCH  17  24
ATOM     23  N   UNL     1      47.743   3.078   5.295  0.00  0.00    +0.000 N 
ATOM     24  C   UNL     1      47.610   2.219   6.350  0.00  0.00    +0.000 C 
ATOM     25  O   UNL     1      48.371   1.273   6.496  0.00  0.00    +0.000 OA
ATOM     26  H   UNL     1      48.550   2.929   4.702  0.00  0.00    +0.000 HD
ATOM     27  H   UNL     1      47.317   3.993   5.280  0.00  0.00    +0.000 HD
ENDBRANCH  17  24
ENDBRANCH  16  20
ENDBRANCH  15  16
ENDBRANCH   1  15
TORSDOF 5
ENDMDL
MODEL 3
REMARK VINA RESULT:    -8.489      2.471      4.202
REMARK INTER + INTRA:         -11.764
REMARK INTER:                 -10.994
REMARK INTRA:                  -0.770
REMARK UNBOUND:                -0.794
REMARK  Name = 
REMARK  5 active torsions:
REMARK  status: ('A' for Active; 'I' for Inactive)
REMARK    1  A    between atoms: C_2  and  C_4
REMARK    2  A    between atoms: C_7  and  O_8
REMARK    3  A    between atoms: O_8  and  C_9
REMARK    4  A    between atoms: C_9  and  C_10
REMARK    5  A    between atoms: C_15  and  C_16
REMARK                            x       y       z     vdW  Elec       q    Type
REMARK                         _______ _______ _______ _____ _____    ______ ____
ROOT
ATOM      1  C   UNL     1      44.835   4.864  12.187  0.00  0.00    +0.000 A 
ATOM      2  C   UNL     1      45.266   6.126  11.759  0.00  0.00    +0.000 A 
ATOM      3  C   UNL     1      46.301   6.771  12.426  0.00  0.00    +0.000 A 
ATOM      4  C   UNL     1      46.921   6.156  13.512  0.00  0.00    +0.000 A 
ATOM      5  F   UNL     1      47.934   6.813  14.096  0.00  0.00    +0.000 F 
ATOM      6  C   UNL     1      46.530   4.888  13.977  0.00  0.00    +0.000 A 
ATOM      7  C   UNL     1      45.475   4.260  13.285  0.00  0.00    +0.000 A 
ENDROOT
BRANCH   6   8
ATOM      8  C   UNL     1      47.185   4.226  15.128  0.00  0.00    +0.000 A 
ATOM      9  C   UNL     1      47.904   3.029  15.002  0.00  0.00    +0.000 A 
ATOM     10  N   UNL     1      48.531   2.377  16.015  0.00  0.00    +0.000 NA
ATOM     11  C   UNL     1      48.447   2.943  17.238  0.00  0.00    +0.000 A 
ATOM     12  C   UNL     1      47.772   4.123  17.478  0.00  0.00    +0.000 A 
ATOM     13  F   UNL     1      47.730   4.647  18.710  0.00  0.00    +0.000 F 
ATOM     14  C   UNL     1      47.135   4.765  16.424  0.00  0.00    +0.000 A 
ENDBRANCH   6   8
BRANCH   1  15
ATOM     15  C   UNL     1      43.761   4.138  11.405  0.00  0.00    +0.000 C 
BRANCH  15  16
ATOM     16  O   UNL     1      43.742   4.574  10.042  0.00  0.00    +0.000 OA
BRANCH  16  20
ATOM     17  C   UNL     1      46.397   2.432   7.738  0.00  0.00    +0.000 A 
ATOM     18  C   UNL     1      45.611   1.768   8.682  0.00  0.00    +0.000 A 
ATOM     19  C   UNL     1      44.720   2.507   9.463  0.00  0.00    +0.000 A 
ATOM     20  C   UNL     1      44.649   3.877   9.267  0.00  0.00    +0.000 A 
ATOM     21  N   UNL     1      45.407   4.546   8.373  0.00  0.00    +0.000 NA
ATOM     22  C   UNL     1      46.271   3.810   7.635  0.00  0.00    +0.000 A 
BRANCH  17  24
ATOM     23  N   UNL     1      48.456   2.467   6.451  0.00  0.00    +0.000 N 
ATOM     24  C   UNL     1      47.362   1.752   6.852  0.00  0.00    +0.000 C 
ATOM     25  O   UNL     1      47.216   0.583   6.526  0.00  0.00    +0.000 OA
ATOM     26  H   UNL     1      49.164   1.947   5.946  0.00  0.00    +0.000 HD
ATOM     27  H   UNL     1      48.741   3.326   6.899  0.00  0.00    +0.000 HD
ENDBRANCH  17  24
ENDBRANCH  16  20
ENDBRANCH  15  16
ENDBRANCH   1  15
TORSDOF 5
ENDMDL
MODEL 4
REMARK VINA RESULT:    -8.135      1.952      2.650
REMARK INTER + INTRA:         -11.306
REMARK INTER:                 -10.389
REMARK INTRA:                  -0.918
REMARK UNBOUND:                -0.794
REMARK  Name = 
REMARK  5 active torsions:
REMARK  status: ('A' for Active; 'I' for Inactive)
REMARK    1  A    between atoms: C_2  and  C_4
REMARK    2  A    between atoms: C_7  and  O_8
REMARK    3  A    between atoms: O_8  and  C_9
REMARK    4  A    between atoms: C_9  and  C_10
REMARK    5  A    between atoms: C_15  and  C_16
REMARK                            x       y       z     vdW  Elec       q    Type
REMARK                         _______ _______ _______ _____ _____    ______ ____
ROOT
ATOM      1  C   UNL     1      44.460   4.425  11.530  0.00  0.00    +0.000 A 
ATOM      2  C   UNL     1      43.446   5.344  11.236  0.00  0.00    +0.000 A 
ATOM      3  C   UNL     1      43.673   6.707  11.392  0.00  0.00    +0.000 A 
ATOM      4  C   UNL     1      44.916   7.160  11.828  0.00  0.00    +0.000 A 
ATOM      5  F   UNL     1      45.086   8.487  11.930  0.00  0.00    +0.000 F 
ATOM      6  C   UNL     1      45.970   6.280  12.130  0.00  0.00    +0.000 A 
ATOM      7  C   UNL     1      45.709   4.904  11.968  0.00  0.00    +0.000 A 
ENDROOT
BRANCH   6   8
ATOM      8  C   UNL     1      47.295   6.753  12.590  0.00  0.00    +0.000 A 
ATOM      9  C   UNL     1      48.168   7.475  11.764  0.00  0.00    +0.000 A 
ATOM     10  N   UNL     1      49.391   7.941  12.127  0.00  0.00    +0.000 NA
ATOM     11  C   UNL     1      49.782   7.682  13.394  0.00  0.00    +0.000 A 
ATOM     12  C   UNL     1      49.003   6.986  14.296  0.00  0.00    +0.000 A 
ATOM     13  F   UNL     1      49.435   6.767  15.544  0.00  0.00    +0.000 F 
ATOM     14  C   UNL     1      47.759   6.516  13.895  0.00  0.00    +0.000 A 
ENDBRANCH   6   8
BRANCH   1  15
ATOM     15  C   UNL     1      44.227   2.950  11.281  0.00  0.00    +0.000 C 
BRANCH  15  16
ATOM     16  O   UNL     1      43.746   2.729   9.951  0.00  0.00    +0.000 OA
BRANCH  16  20
ATOM     17  C   UNL     1      46.844   2.451   7.256  0.00  0.00    +0.000 A 
ATOM     18  C   UNL     1      46.146   3.653   7.382  0.00  0.00    +0.000 A 
ATOM     19  C   UNL     1      45.092   3.733   8.294  0.00  0.00    +0.000 A 
ATOM     20  C   UNL     1      44.780   2.609   9.043  0.00  0.00    +0.000 A 
ATOM     21  N   UNL     1      45.428   1.431   8.931  0.00  0.00    +0.000 NA
ATOM     22  C   UNL     1      46.440   1.374   8.033  0.00  0.00    +0.000 A 
BRANCH  17  24
ATOM     23  N   UNL     1      49.117   2.975   6.578  0.00  0.00    +0.000 N 
ATOM     24  C   UNL     1      47.980   2.256   6.333  0.00  0.00    +0.000 C 
ATOM     25  O   UNL     1      47.926   1.451   5.414  0.00  0.00    +0.000 OA
ATOM     26  H   UNL     1      49.921   2.738   6.010  0.00  0.00    +0.000 HD
ATOM     27  H   UNL     1      49.289   3.441   7.457  0.00  0.00    +0.000 HD
ENDBRANCH  17  24
ENDBRANCH  16  20
ENDBRANCH  15  16
ENDBRANCH   1  15
TORSDOF 5
ENDMDL
MODEL 5
REMARK VINA RESULT:    -7.219      3.552      6.903
REMARK INTER + INTRA:         -10.123
REMARK INTER:                  -9.574
REMARK INTRA:                  -0.549
REMARK UNBOUND:                -0.794
REMARK  Name = 
REMARK  5 active torsions:
REMARK  status: ('A' for Active; 'I' for Inactive)
REMARK    1  A    between atoms: C_2  and  C_4
REMARK    2  A    between atoms: C_7  and  O_8
REMARK    3  A    between atoms: O_8  and  C_9
REMARK    4  A    between atoms: C_9  and  C_10
REMARK    5  A    between atoms: C_15  and  C_16
REMARK                            x       y       z     vdW  Elec       q    Type
REMARK                         _______ _______ _______ _____ _____    ______ ____
ROOT
ATOM      1  C   UNL     1      44.454   5.975  11.372  0.00  0.00    +0.000 A 
ATOM      2  C   UNL     1      43.535   5.260  12.150  0.00  0.00    +0.000 A 
ATOM      3  C   UNL     1      43.261   3.929  11.860  0.00  0.00    +0.000 A 
ATOM      4  C   UNL     1      43.912   3.298  10.801  0.00  0.00    +0.000 A 
ATOM      5  F   UNL     1      43.631   2.005  10.587  0.00  0.00    +0.000 F 
ATOM      6  C   UNL     1      44.849   3.969   9.994  0.00  0.00    +0.000 A 
ATOM      7  C   UNL     1      45.101   5.319  10.308  0.00  0.00    +0.000 A 
ENDROOT
BRANCH   6   8
ATOM      8  C   UNL     1      45.548   3.306   8.869  0.00  0.00    +0.000 A 
ATOM      9  C   UNL     1      46.043   4.014   7.766  0.00  0.00    +0.000 A 
ATOM     10  N   UNL     1      46.698   3.467   6.708  0.00  0.00    +0.000 NA
ATOM     11  C   UNL     1      46.879   2.129   6.740  0.00  0.00    +0.000 A 
ATOM     12  C   UNL     1      46.440   1.333   7.778  0.00  0.00    +0.000 A 
ATOM     13  F   UNL     1      46.658   0.012   7.764  0.00  0.00    +0.000 F 
ATOM     14  C   UNL     1      45.769   1.919   8.844  0.00  0.00    +0.000 A 
ENDBRANCH   6   8
BRANCH   1  15
ATOM     15  C   UNL     1      44.801   7.399  11.746  0.00  0.00    +0.000 C 
BRANCH  15  16
ATOM     16  O   UNL     1      45.657   7.428  12.894  0.00  0.00    +0.000 OA
BRANCH  16  20
ATOM     17  C   UNL     1      49.576   8.171  11.879  0.00  0.00    +0.000 A 
ATOM     18  C   UNL     1      48.634   9.197  11.789  0.00  0.00    +0.000 A 
ATOM     19  C   UNL     1      47.307   8.931  12.128  0.00  0.00    +0.000 A 
ATOM     20  C   UNL     1      46.976   7.651  12.546  0.00  0.00    +0.000 A 
ATOM     21  N   UNL     1      47.862   6.638  12.628  0.00  0.00    +0.000 NA
ATOM     22  C   UNL     1      49.141   6.917  12.283  0.00  0.00    +0.000 A 
BRANCH  17  24
ATOM     23  N   UNL     1      51.690   7.236  11.132  0.00  0.00    +0.000 N 
ATOM     24  C   UNL     1      51.007   8.341  11.557  0.00  0.00    +0.000 C 
ATOM     25  O   UNL     1      51.550   9.435  11.622  0.00  0.00    +0.000 OA
ATOM     26  H   UNL     1      52.634   7.399  10.802  0.00  0.00    +0.000 HD
ATOM     27  H   UNL     1      51.227   6.394  10.821  0.00  0.00    +0.000 HD
ENDBRANCH  17  24
ENDBRANCH  16  20
ENDBRANCH  15  16
ENDBRANCH   1  15
TORSDOF 5
ENDMDL
MODEL 6
REMARK VINA RESULT:    -7.040      4.840      8.194
REMARK INTER + INTRA:          -9.892
REMARK INTER:                  -9.081
REMARK INTRA:                  -0.811
REMARK UNBOUND:                -0.794
REMARK  Name = 
REMARK  5 active torsions:
REMARK  status: ('A' for Active; 'I' for Inactive)
REMARK    1  A    between atoms: C_2  and  C_4
REMARK    2  A    between atoms: C_7  and  O_8
REMARK    3  A    between atoms: O_8  and  C_9
REMARK    4  A    between atoms: C_9  and  C_10
REMARK    5  A    between atoms: C_15  and  C_16
REMARK                            x       y       z     vdW  Elec       q    Type
REMARK                         _______ _______ _______ _____ _____    ______ ____
ROOT
ATOM      1  C   UNL     1      47.211   7.363  13.256  0.00  0.00    +0.000 A 
ATOM      2  C   UNL     1      46.425   8.522  13.288  0.00  0.00    +0.000 A 
ATOM      3  C   UNL     1      45.272   8.605  12.516  0.00  0.00    +0.000 A 
ATOM      4  C   UNL     1      44.889   7.528  11.719  0.00  0.00    +0.000 A 
ATOM      5  F   UNL     1      43.752   7.654  11.020  0.00  0.00    +0.000 F 
ATOM      6  C   UNL     1      45.638   6.340  11.656  0.00  0.00    +0.000 A 
ATOM      7  C   UNL     1      46.805   6.287  12.445  0.00  0.00    +0.000 A 
ENDROOT
BRANCH   6   8
ATOM      8  C   UNL     1      45.236   5.189  10.815  0.00  0.00    +0.000 A 
ATOM      9  C   UNL     1      44.464   4.128  11.307  0.00  0.00    +0.000 A 
ATOM     10  N   UNL     1      44.058   3.049  10.587  0.00  0.00    +0.000 NA
ATOM     11  C   UNL     1      44.437   3.014   9.291  0.00  0.00    +0.000 A 
ATOM     12  C   UNL     1      45.192   4.006   8.699  0.00  0.00    +0.000 A 
ATOM     13  F   UNL     1      45.531   3.926   7.406  0.00  0.00    +0.000 F 
ATOM     14  C   UNL     1      45.598   5.095   9.461  0.00  0.00    +0.000 A 
ENDBRANCH   6   8
BRANCH   1  15
ATOM     15  C   UNL     1      48.419   7.255  14.161  0.00  0.00    +0.000 C 
BRANCH  15  16
ATOM     16  O   UNL     1      48.636   5.897  14.559  0.00  0.00    +0.000 OA
BRANCH  16  20
ATOM     17  C   UNL     1      48.106   5.306  18.597  0.00  0.00    +0.000 A 
ATOM     18  C   UNL     1      47.511   4.429  17.688  0.00  0.00    +0.000 A 
ATOM     19  C   UNL     1      47.692   4.645  16.320  0.00  0.00    +0.000 A 
ATOM     20  C   UNL     1      48.461   5.726  15.918  0.00  0.00    +0.000 A 
ATOM     21  N   UNL     1      49.034   6.597  16.774  0.00  0.00    +0.000 NA
ATOM     22  C   UNL     1      48.836   6.374  18.095  0.00  0.00    +0.000 A 
BRANCH  17  24
ATOM     23  N   UNL     1      48.598   4.088  20.641  0.00  0.00    +0.000 N 
ATOM     24  C   UNL     1      47.991   5.168  20.063  0.00  0.00    +0.000 C 
ATOM     25  O   UNL     1      47.417   6.009  20.740  0.00  0.00    +0.000 OA
ATOM     26  H   UNL     1      48.611   4.077  21.653  0.00  0.00    +0.000 HD
ATOM     27  H   UNL     1      49.286   3.527  20.160  0.00  0.00    +0.000 HD
ENDBRANCH  17  24
ENDBRANCH  16  20
ENDBRANCH  15  16
ENDBRANCH   1  15
TORSDOF 5
ENDMDL
MODEL 7
REMARK VINA RESULT:    -7.016      3.421      7.287
REMARK INTER + INTRA:          -9.861
REMARK INTER:                  -9.287
REMARK INTRA:                  -0.574
REMARK UNBOUND:                -0.794
REMARK  Name = 
REMARK  5 active torsions:
REMARK  status: ('A' for Active; 'I' for Inactive)
REMARK    1  A    between atoms: C_2  and  C_4
REMARK    2  A    between atoms: C_7  and  O_8
REMARK    3  A    between atoms: O_8  and  C_9
REMARK    4  A    between atoms: C_9  and  C_10
REMARK    5  A    between atoms: C_15  and  C_16
REMARK                            x       y       z     vdW  Elec       q    Type
REMARK                         _______ _______ _______ _____ _____    ______ ____
ROOT
ATOM      1  C   UNL     1      44.567   5.439  10.920  0.00  0.00    +0.000 A 
ATOM      2  C   UNL     1      43.640   4.688  11.654  0.00  0.00    +0.000 A 
ATOM      3  C   UNL     1      43.392   3.363  11.316  0.00  0.00    +0.000 A 
ATOM      4  C   UNL     1      44.077   2.775  10.254  0.00  0.00    +0.000 A 
ATOM      5  F   UNL     1      43.819   1.485   9.995  0.00  0.00    +0.000 F 
ATOM      6  C   UNL     1      45.022   3.482   9.490  0.00  0.00    +0.000 A 
ATOM      7  C   UNL     1      45.248   4.825   9.852  0.00  0.00    +0.000 A 
ENDROOT
BRANCH   6   8
ATOM      8  C   UNL     1      45.757   2.864   8.364  0.00  0.00    +0.000 A 
ATOM      9  C   UNL     1      46.213   1.539   8.396  0.00  0.00    +0.000 A 
ATOM     10  N   UNL     1      46.886   0.913   7.395  0.00  0.00    +0.000 NA
ATOM     11  C   UNL     1      47.125   1.642   6.284  0.00  0.00    +0.000 A 
ATOM     12  C   UNL     1      46.717   2.952   6.138  0.00  0.00    +0.000 A 
ATOM     13  F   UNL     1      46.970   3.625   5.009  0.00  0.00    +0.000 F 
ATOM     14  C   UNL     1      46.035   3.568   7.180  0.00  0.00    +0.000 A 
ENDBRANCH   6   8
BRANCH   1  15
ATOM     15  C   UNL     1      44.885   6.856  11.346  0.00  0.00    +0.000 C 
BRANCH  15  16
ATOM     16  O   UNL     1      45.296   6.893  12.717  0.00  0.00    +0.000 OA
BRANCH  16  20
ATOM     17  C   UNL     1      49.132   8.342  13.077  0.00  0.00    +0.000 A 
ATOM     18  C   UNL     1      48.929   7.014  12.699  0.00  0.00    +0.000 A 
ATOM     19  C   UNL     1      47.623   6.532  12.588  0.00  0.00    +0.000 A 
ATOM     20  C   UNL     1      46.575   7.398  12.857  0.00  0.00    +0.000 A 
ATOM     21  N   UNL     1      46.742   8.680  13.238  0.00  0.00    +0.000 NA
ATOM     22  C   UNL     1      48.017   9.122  13.350  0.00  0.00    +0.000 A 
BRANCH  17  24
ATOM     23  N   UNL     1      50.513  10.265  13.619  0.00  0.00    +0.000 N 
ATOM     24  C   UNL     1      50.465   8.960  13.215  0.00  0.00    +0.000 C 
ATOM     25  O   UNL     1      51.489   8.319  13.020  0.00  0.00    +0.000 OA
ATOM     26  H   UNL     1      51.435  10.631  13.824  0.00  0.00    +0.000 HD
ATOM     27  H   UNL     1      49.722  10.737  14.032  0.00  0.00    +0.000 HD
ENDBRANCH  17  24
ENDBRANCH  16  20
ENDBRANCH  15  16
ENDBRANCH   1  15
TORSDOF 5
ENDMDL
MODEL 8
REMARK VINA RESULT:    -6.399      4.777      7.974
REMARK INTER + INTRA:          -9.063
REMARK INTER:                  -8.318
REMARK INTRA:                  -0.745
REMARK UNBOUND:                -0.794
REMARK  Name = 
REMARK  5 active torsions:
REMARK  status: ('A' for Active; 'I' for Inactive)
REMARK    1  A    between atoms: C_2  and  C_4
REMARK    2  A    between atoms: C_7  and  O_8
REMARK    3  A    between atoms: O_8  and  C_9
REMARK    4  A    between atoms: C_9  and  C_10
REMARK    5  A    between atoms: C_15  and  C_16
REMARK                            x       y       z     vdW  Elec       q    Type
REMARK                         _______ _______ _______ _____ _____    ______ ____
ROOT
ATOM      1  C   UNL     1      47.669   7.604  12.630  0.00  0.00    +0.000 A 
ATOM      2  C   UNL     1      46.743   8.578  13.020  0.00  0.00    +0.000 A 
ATOM      3  C   UNL     1      45.429   8.511  12.571  0.00  0.00    +0.000 A 
ATOM      4  C   UNL     1      45.029   7.465  11.741  0.00  0.00    +0.000 A 
ATOM      5  F   UNL     1      43.742   7.436  11.364  0.00  0.00    +0.000 F 
ATOM      6  C   UNL     1      45.918   6.458  11.325  0.00  0.00    +0.000 A 
ATOM      7  C   UNL     1      47.244   6.555  11.792  0.00  0.00    +0.000 A 
ENDROOT
BRANCH   6   8
ATOM      8  C   UNL     1      45.501   5.342  10.447  0.00  0.00    +0.000 A 
ATOM      9  C   UNL     1      45.819   5.295   9.083  0.00  0.00    +0.000 A 
ATOM     10  N   UNL     1      45.471   4.298   8.227  0.00  0.00    +0.000 NA
ATOM     11  C   UNL     1      44.764   3.275   8.752  0.00  0.00    +0.000 A 
ATOM     12  C   UNL     1      44.400   3.212  10.082  0.00  0.00    +0.000 A 
ATOM     13  F   UNL     1      43.708   2.167  10.552  0.00  0.00    +0.000 F 
ATOM     14  C   UNL     1      44.764   4.248  10.932  0.00  0.00    +0.000 A 
ENDBRANCH   6   8
BRANCH   1  15
ATOM     15  C   UNL     1      49.075   7.644  13.188  0.00  0.00    +0.000 C 
BRANCH  15  16
ATOM     16  O   UNL     1      49.074   8.133  14.534  0.00  0.00    +0.000 OA
BRANCH  16  20
ATOM     17  C   UNL     1      50.242   5.272  17.251  0.00  0.00    +0.000 A 
ATOM     18  C   UNL     1      51.187   6.161  16.737  0.00  0.00    +0.000 A 
ATOM     19  C   UNL     1      50.780   7.122  15.809  0.00  0.00    +0.000 A 
ATOM     20  C   UNL     1      49.446   7.156  15.437  0.00  0.00    +0.000 A 
ATOM     21  N   UNL     1      48.515   6.300  15.906  0.00  0.00    +0.000 NA
ATOM     22  C   UNL     1      48.935   5.370  16.796  0.00  0.00    +0.000 A 
BRANCH  17  24
ATOM     23  N   UNL     1      49.540   3.394  18.624  0.00  0.00    +0.000 N 
ATOM     24  C   UNL     1      50.557   4.224  18.243  0.00  0.00    +0.000 C 
ATOM     25  O   UNL     1      51.692   4.073  18.673  0.00  0.00    +0.000 OA
ATOM     26  H   UNL     1      49.803   2.611  19.209  0.00  0.00    +0.000 HD
ATOM     27  H   UNL     1      48.675   3.321  18.108  0.00  0.00    +0.000 HD
ENDBRANCH  17  24
ENDBRANCH  16  20
ENDBRANCH  15  16
ENDBRANCH   1  15
TORSDOF 5
ENDMDL
MODEL 9
REMARK VINA RESULT:    -6.377      4.732      8.084
REMARK INTER + INTRA:          -9.035
REMARK INTER:                  -8.574
REMARK INTRA:                  -0.461
REMARK UNBOUND:                -0.794
REMARK  Name = 
REMARK  5 active torsions:
REMARK  status: ('A' for Active; 'I' for Inactive)
REMARK    1  A    between atoms: C_2  and  C_4
REMARK    2  A    between atoms: C_7  and  O_8
REMARK    3  A    between atoms: O_8  and  C_9
REMARK    4  A    between atoms: C_9  and  C_10
REMARK    5  A    between atoms: C_15  and  C_16
REMARK                            x       y       z     vdW  Elec       q    Type
REMARK                         _______ _______ _______ _____ _____    ______ ____
ROOT
ATOM      1  C   UNL     1      45.309   3.974  12.045  0.00  0.00    +0.000 A 
ATOM      2  C   UNL     1      44.170   4.774  11.891  0.00  0.00    +0.000 A 
ATOM      3  C   UNL     1      43.602   4.945  10.634  0.00  0.00    +0.000 A 
ATOM      4  C   UNL     1      44.158   4.308   9.526  0.00  0.00    +0.000 A 
ATOM      5  F   UNL     1      43.550   4.486   8.344  0.00  0.00    +0.000 F 
ATOM      6  C   UNL     1      45.297   3.489   9.627  0.00  0.00    +0.000 A 
ATOM      7  C   UNL     1      45.853   3.339  10.913  0.00  0.00    +0.000 A 
ENDROOT
BRANCH   6   8
ATOM      8  C   UNL     1      45.891   2.806   8.456  0.00  0.00    +0.000 A 
ATOM      9  C   UNL     1      46.169   1.432   8.444  0.00  0.00    +0.000 A 
ATOM     10  N   UNL     1      46.707   0.746   7.401  0.00  0.00    +0.000 NA
ATOM     11  C   UNL     1      46.990   1.463   6.292  0.00  0.00    +0.000 A 
ATOM     12  C   UNL     1      46.753   2.818   6.189  0.00  0.00    +0.000 A 
ATOM     13  F   UNL     1      47.042   3.478   5.061  0.00  0.00    +0.000 F 
ATOM     14  C   UNL     1      46.208   3.495   7.273  0.00  0.00    +0.000 A 
ENDBRANCH   6   8
BRANCH   1  15
ATOM     15  C   UNL     1      45.870   3.732  13.429  0.00  0.00    +0.000 C 
BRANCH  15  16
ATOM     16  O   UNL     1      46.323   4.957  14.014  0.00  0.00    +0.000 OA
BRANCH  16  20
ATOM     17  C   UNL     1      48.584   4.380  17.405  0.00  0.00    +0.000 A 
ATOM     18  C   UNL     1      48.795   5.515  16.620  0.00  0.00    +0.000 A 
ATOM     19  C   UNL     1      48.027   5.696  15.468  0.00  0.00    +0.000 A 
ATOM     20  C   UNL     1      47.079   4.736  15.149  0.00  0.00    +0.000 A 
ATOM     21  N   UNL     1      46.865   3.624  15.881  0.00  0.00    +0.000 NA
ATOM     22  C   UNL     1      47.629   3.464  16.988  0.00  0.00    +0.000 A 
BRANCH  17  24
ATOM     23  N   UNL     1      48.607   3.665  19.726  0.00  0.00    +0.000 N 
ATOM     24  C   UNL     1      49.329   4.093  18.647  0.00  0.00    +0.000 C 
ATOM     25  O   UNL     1      50.547   4.188  18.698  0.00  0.00    +0.000 OA
ATOM     26  H   UNL     1      49.146   3.359  20.527  0.00  0.00    +0.000 HD
ATOM     27  H   UNL     1      47.657   3.330  19.649  0.00  0.00    +0.000 HD
ENDBRANCH  17  24
ENDBRANCH  16  20
ENDBRANCH  15  16
ENDBRANCH   1  15
TORSDOF 5
ENDMDL
