MODEL 1
REMARK VINA RESULT:    -8.729      0.000      0.000
REMARK INTER + INTRA:         -13.369
REMARK INTER:                 -12.302
REMARK INTRA:                  -1.068
REMARK UNBOUND:                -1.068
REMARK  Name = 
REMARK  10 active torsions:
REMARK  status: ('A' for Active; 'I' for Inactive)
REMARK    1  A    between atoms: C_1  and  C_2
REMARK    2  A    between atoms: C_4  and  N_5
REMARK    3  A    between atoms: N_5  and  C_6
REMARK    4  A    between atoms: C_6  and  C_7
REMARK    5  A    between atoms: C_7  and  C_8
REMARK    6  A    between atoms: C_7  and  C_9
REMARK    7  A    between atoms: C_7  and  C_10
REMARK    8  A    between atoms: C_14  and  O_15
REMARK    9  A    between atoms: O_15  and  C_16
REMARK   10  A    between atoms: C_23  and  C_24
REMARK                            x       y       z     vdW  Elec       q    Type
REMARK                         _______ _______ _______ _____ _____    ______ ____
ROOT
ATOM      1  C   UNL     1      44.093   3.233  11.377  0.00  0.00    +0.000 C 
ENDROOT
BRANCH   1   2
ATOM      2  C   UNL     1      44.043   4.640  12.043  0.00  0.00    +0.000 C 
ATOM      3  C   UNL     1      43.295   5.608  11.089  0.00  0.00    +0.000 C 
ATOM      4  C   UNL     1      43.189   4.485  13.327  0.00  0.00    +0.000 C 
BRANCH   2   5
ATOM      5  C   UNL     1      45.410   5.225  12.424  0.00  0.00    +0.000 A 
ATOM      6  C   UNL     1      46.082   6.198  11.682  0.00  0.00    +0.000 A 
ATOM      7  N   UNL     1      47.274   6.746  12.023  0.00  0.00    +0.000 NA
ATOM      8  C   UNL     1      47.837   6.310  13.170  0.00  0.00    +0.000 A 
ATOM      9  C   UNL     1      47.274   5.345  13.986  0.00  0.00    +0.000 A 
ATOM     10  C   UNL     1      46.063   4.786  13.589  0.00  0.00    +0.000 A 
BRANCH   9  11
ATOM     11  O   UNL     1      47.944   4.999  15.129  0.00  0.00    +0.000 OA
BRANCH  11  12
ATOM     12  C   UNL     1      47.331   4.012  15.991  0.00  0.00    +0.000 C 
ATOM     13  C   UNL     1      47.194   4.383  17.490  0.00  0.00    +0.000 C 
ATOM     14  C   UNL     1      47.699   2.981  17.849  0.00  0.00    +0.000 C 
ATOM     15  C   UNL     1      48.263   2.860  16.426  0.00  0.00    +0.000 C 
ENDBRANCH  11  12
ENDBRANCH   9  11
ENDBRANCH   2   5
ENDBRANCH   1   2
BRANCH   1  16
ATOM     16  N   UNL     1      43.774   3.265   9.952  0.00  0.00    +0.000 N 
ATOM     17  H   UNL     1      42.825   3.023   9.684  0.00  0.00    +0.000 HD
BRANCH  16  21
ATOM     18  C   UNL     1      46.772   0.030   7.716  0.00  0.00    +0.000 C 
ATOM     19  C   UNL     1      46.298   1.449   7.868  0.00  0.00    +0.000 A 
ATOM     20  C   UNL     1      45.256   1.700   8.782  0.00  0.00    +0.000 A 
ATOM     21  C   UNL     1      44.733   2.981   8.990  0.00  0.00    +0.000 A 
ATOM     22  C   UNL     1      45.312   4.039   8.283  0.00  0.00    +0.000 A 
ATOM     23  C   UNL     1      46.353   3.821   7.374  0.00  0.00    +0.000 A 
ATOM     24  C   UNL     1      46.858   2.529   7.162  0.00  0.00    +0.000 A 
BRANCH  24  25
ATOM     25  C   UNL     1      47.966   2.328   6.181  0.00  0.00    +0.000 C 
ATOM     26  N   UNL     1      49.222   2.721   6.564  0.00  0.00    +0.000 N 
ATOM     27  O   UNL     1      47.800   1.820   5.081  0.00  0.00    +0.000 OA
ATOM     28  H   UNL     1      49.459   2.947   7.520  0.00  0.00    +0.000 HD
ATOM     29  H   UNL     1      49.975   2.490   5.931  0.00  0.00    +0.000 HD
ENDBRANCH  24  25
ENDBRANCH  16  21
ENDBRANCH   1  16
TORSDOF 7
ENDMDL
MODEL 2
REMARK VINA RESULT:    -7.806      2.140      3.454
REMARK INTER + INTRA:         -12.068
REMARK INTER:                 -10.974
REMARK INTRA:                  -1.094
REMARK UNBOUND:                -1.068
REMARK  Name = 
REMARK  10 active torsions:
REMARK  status: ('A' for Active; 'I' for Inactive)
REMARK    1  A    between atoms: C_1  and  C_2
REMARK    2  A    between atoms: C_4  and  N_5
REMARK    3  A    between atoms: N_5  and  C_6
REMARK    4  A    between atoms: C_6  and  C_7
REMARK    5  A    between atoms: C_7  and  C_8
REMARK    6  A    between atoms: C_7  and  C_9
REMARK    7  A    between atoms: C_7  and  C_10
REMARK    8  A    between atoms: C_14  and  O_15
REMARK    9  A    between atoms: O_15  and  C_16
REMARK   10  A    between atoms: C_23  and  C_24
REMARK                            x       y       z     vdW  Elec       q    Type
REMARK                         _______ _______ _______ _____ _____    ______ ____
ROOT
ATOM      1  C   UNL     1      43.320   4.595  10.661  0.00  0.00    +0.000 C 
ENDROOT
BRANCH   1   2
ATOM      2  C   UNL     1      43.590   5.583  11.835  0.00  0.00    +0.000 C 
ATOM      3  C   UNL     1      43.053   6.981  11.432  0.00  0.00    +0.000 C 
ATOM      4  C   UNL     1      42.747   5.077  13.033  0.00  0.00    +0.000 C 
BRANCH   2   5
ATOM      5  C   UNL     1      45.059   5.686  12.269  0.00  0.00    +0.000 A 
ATOM      6  C   UNL     1      45.639   4.901  13.267  0.00  0.00    +0.000 A 
ATOM      7  N   UNL     1      46.941   4.959  13.639  0.00  0.00    +0.000 NA
ATOM      8  C   UNL     1      47.722   5.842  12.982  0.00  0.00    +0.000 A 
ATOM      9  C   UNL     1      47.262   6.679  11.980  0.00  0.00    +0.000 A 
ATOM     10  C   UNL     1      45.914   6.611  11.645  0.00  0.00    +0.000 A 
BRANCH   9  11
ATOM     11  O   UNL     1      48.162   7.524  11.385  0.00  0.00    +0.000 OA
BRANCH  11  12
ATOM     12  C   UNL     1      48.638   8.648  12.161  0.00  0.00    +0.000 C 
ATOM     13  C   UNL     1      47.563   9.602  12.740  0.00  0.00    +0.000 C 
ATOM     14  C   UNL     1      48.415  10.790  12.280  0.00  0.00    +0.000 C 
ATOM     15  C   UNL     1      49.157   9.840  11.327  0.00  0.00    +0.000 C 
ENDBRANCH  11  12
ENDBRANCH   9  11
ENDBRANCH   2   5
ENDBRANCH   1   2
BRANCH   1  16
ATOM     16  N   UNL     1      44.275   3.490  10.614  0.00  0.00    +0.000 N 
ATOM     17  H   UNL     1      44.742   3.245  11.482  0.00  0.00    +0.000 HD
BRANCH  16  21
ATOM     18  C   UNL     1      46.640   0.258   7.714  0.00  0.00    +0.000 C 
ATOM     19  C   UNL     1      46.257   1.683   8.004  0.00  0.00    +0.000 A 
ATOM     20  C   UNL     1      45.432   1.928   9.119  0.00  0.00    +0.000 A 
ATOM     21  C   UNL     1      45.008   3.215   9.469  0.00  0.00    +0.000 A 
ATOM     22  C   UNL     1      45.470   4.282   8.693  0.00  0.00    +0.000 A 
ATOM     23  C   UNL     1      46.297   4.069   7.585  0.00  0.00    +0.000 A 
ATOM     24  C   UNL     1      46.702   2.773   7.234  0.00  0.00    +0.000 A 
BRANCH  24  25
ATOM     25  C   UNL     1      47.581   2.577   6.043  0.00  0.00    +0.000 C 
ATOM     26  N   UNL     1      48.930   2.491   6.266  0.00  0.00    +0.000 N 
ATOM     27  O   UNL     1      47.148   2.476   4.903  0.00  0.00    +0.000 OA
ATOM     28  H   UNL     1      49.327   2.356   7.185  0.00  0.00    +0.000 HD
ATOM     29  H   UNL     1      49.502   2.261   5.465  0.00  0.00    +0.000 HD
ENDBRANCH  24  25
ENDBRANCH  16  21
ENDBRANCH   1  16
TORSDOF 7
ENDMDL
MODEL 3
REMARK VINA RESULT:    -7.336      2.461      8.507
REMARK INTER + INTRA:         -11.405
REMARK INTER:                 -10.631
REMARK INTRA:                  -0.774
REMARK UNBOUND:                -1.068
REMARK  Name = 
REMARK  10 active torsions:
REMARK  status: ('A' for Active; 'I' for Inactive)
REMARK    1  A    between atoms: C_1  and  C_2
REMARK    2  A    between atoms: C_4  and  N_5
REMARK    3  A    between atoms: N_5  and  C_6
REMARK    4  A    between atoms: C_6  and  C_7
REMARK    5  A    between atoms: C_7  and  C_8
REMARK    6  A    between atoms: C_7  and  C_9
REMARK    7  A    between atoms: C_7  and  C_10
REMARK    8  A    between atoms: C_14  and  O_15
REMARK    9  A    between atoms: O_15  and  C_16
REMARK   10  A    between atoms: C_23  and  C_24
REMARK                            x       y       z     vdW  Elec       q    Type
REMARK                         _______ _______ _______ _____ _____    ______ ____
ROOT
ATOM      1  C   UNL     1      46.042   5.756  13.460  0.00  0.00    +0.000 C 
ENDROOT
BRANCH   1   2
ATOM      2  C   UNL     1      45.776   6.197  11.989  0.00  0.00    +0.000 C 
ATOM      3  C   UNL     1      44.818   7.416  12.009  0.00  0.00    +0.000 C 
ATOM      4  C   UNL     1      47.139   6.673  11.424  0.00  0.00    +0.000 C 
BRANCH   2   5
ATOM      5  C   UNL     1      45.216   5.098  11.075  0.00  0.00    +0.000 A 
ATOM      6  C   UNL     1      44.305   4.124  11.487  0.00  0.00    +0.000 A 
ATOM      7  N   UNL     1      43.779   3.168  10.684  0.00  0.00    +0.000 NA
ATOM      8  C   UNL     1      44.170   3.176   9.391  0.00  0.00    +0.000 A 
ATOM      9  C   UNL     1      45.072   4.085   8.867  0.00  0.00    +0.000 A 
ATOM     10  C   UNL     1      45.612   5.034   9.728  0.00  0.00    +0.000 A 
BRANCH   9  11
ATOM     11  O   UNL     1      45.378   3.990   7.535  0.00  0.00    +0.000 OA
BRANCH  11  12
ATOM     12  C   UNL     1      46.707   3.540   7.184  0.00  0.00    +0.000 C 
ATOM     13  C   UNL     1      46.973   3.252   5.684  0.00  0.00    +0.000 C 
ATOM     14  C   UNL     1      47.683   1.957   6.092  0.00  0.00    +0.000 C 
ATOM     15  C   UNL     1      46.979   2.044   7.455  0.00  0.00    +0.000 C 
ENDBRANCH  11  12
ENDBRANCH   9  11
ENDBRANCH   2   5
ENDBRANCH   1   2
BRANCH   1  16
ATOM     16  N   UNL     1      47.284   6.300  14.003  0.00  0.00    +0.000 N 
ATOM     17  H   UNL     1      47.938   6.710  13.343  0.00  0.00    +0.000 HD
BRANCH  16  21
ATOM     18  C   UNL     1      47.425   2.826  17.520  0.00  0.00    +0.000 C 
ATOM     19  C   UNL     1      47.977   4.106  16.955  0.00  0.00    +0.000 A 
ATOM     20  C   UNL     1      47.426   4.586  15.751  0.00  0.00    +0.000 A 
ATOM     21  C   UNL     1      47.875   5.760  15.136  0.00  0.00    +0.000 A 
ATOM     22  C   UNL     1      48.880   6.485  15.782  0.00  0.00    +0.000 A 
ATOM     23  C   UNL     1      49.441   6.037  16.983  0.00  0.00    +0.000 A 
ATOM     24  C   UNL     1      48.993   4.850  17.582  0.00  0.00    +0.000 A 
BRANCH  24  25
ATOM     25  C   UNL     1      49.615   4.395  18.861  0.00  0.00    +0.000 C 
ATOM     26  N   UNL     1      50.771   3.665  18.772  0.00  0.00    +0.000 N 
ATOM     27  O   UNL     1      49.151   4.661  19.961  0.00  0.00    +0.000 OA
ATOM     28  H   UNL     1      51.312   3.594  17.921  0.00  0.00    +0.000 HD
ATOM     29  H   UNL     1      51.232   3.449  19.645  0.00  0.00    +0.000 HD
ENDBRANCH  24  25
ENDBRANCH  16  21
ENDBRANCH   1  16
TORSDOF 7
ENDMDL
MODEL 4
REMARK VINA RESULT:    -7.151      2.597      8.677
REMARK INTER + INTRA:         -11.145
REMARK INTER:                 -10.377
REMARK INTRA:                  -0.769
REMARK UNBOUND:                -1.068
REMARK  Name = 
REMARK  10 active torsions:
REMARK  status: ('A' for Active; 'I' for Inactive)
REMARK    1  A    between atoms: C_1  and  C_2
REMARK    2  A    between atoms: C_4  and  N_5
REMARK    3  A    between atoms: N_5  and  C_6
REMARK    4  A    between atoms: C_6  and  C_7
REMARK    5  A    between atoms: C_7  and  C_8
REMARK    6  A    between atoms: C_7  and  C_9
REMARK    7  A    between atoms: C_7  and  C_10
REMARK    8  A    between atoms: C_14  and  O_15
REMARK    9  A    between atoms: O_15  and  C_16
REMARK   10  A    between atoms: C_23  and  C_24
REMARK                            x       y       z     vdW  Elec       q    Type
REMARK                         _______ _______ _______ _____ _____    ______ ____
ROOT
ATOM      1  C   UNL     1      46.920   4.941  13.169  0.00  0.00    +0.000 C 
ENDROOT
BRANCH   1   2
ATOM      2  C   UNL     1      45.827   5.544  12.237  0.00  0.00    +0.000 C 
ATOM      3  C   UNL     1      44.671   6.081  13.121  0.00  0.00    +0.000 C 
ATOM      4  C   UNL     1      46.481   6.754  11.523  0.00  0.00    +0.000 C 
BRANCH   2   5
ATOM      5  C   UNL     1      45.276   4.580  11.176  0.00  0.00    +0.000 A 
ATOM      6  C   UNL     1      44.393   3.534  11.448  0.00  0.00    +0.000 A 
ATOM      7  N   UNL     1      43.875   2.697  10.518  0.00  0.00    +0.000 NA
ATOM      8  C   UNL     1      44.247   2.905   9.237  0.00  0.00    +0.000 A 
ATOM      9  C   UNL     1      45.121   3.903   8.843  0.00  0.00    +0.000 A 
ATOM     10  C   UNL     1      45.654   4.726   9.830  0.00  0.00    +0.000 A 
BRANCH   9  11
ATOM     11  O   UNL     1      45.410   4.014   7.509  0.00  0.00    +0.000 OA
BRANCH  11  12
ATOM     12  C   UNL     1      46.719   3.584   7.069  0.00  0.00    +0.000 C 
ATOM     13  C   UNL     1      46.854   3.168   5.582  0.00  0.00    +0.000 C 
ATOM     14  C   UNL     1      47.660   1.944   6.032  0.00  0.00    +0.000 C 
ATOM     15  C   UNL     1      47.087   2.132   7.444  0.00  0.00    +0.000 C 
ENDBRANCH  11  12
ENDBRANCH   9  11
ENDBRANCH   2   5
ENDBRANCH   1   2
BRANCH   1  16
ATOM     16  N   UNL     1      46.417   4.617  14.501  0.00  0.00    +0.000 N 
ATOM     17  H   UNL     1      45.442   4.825  14.692  0.00  0.00    +0.000 HD
BRANCH  16  21
ATOM     18  C   UNL     1      50.161   6.689  16.980  0.00  0.00    +0.000 C 
ATOM     19  C   UNL     1      49.134   5.595  16.883  0.00  0.00    +0.000 A 
ATOM     20  C   UNL     1      48.243   5.623  15.793  0.00  0.00    +0.000 A 
ATOM     21  C   UNL     1      47.243   4.661  15.616  0.00  0.00    +0.000 A 
ATOM     22  C   UNL     1      47.174   3.620  16.547  0.00  0.00    +0.000 A 
ATOM     23  C   UNL     1      48.051   3.561  17.635  0.00  0.00    +0.000 A 
ATOM     24  C   UNL     1      49.039   4.542  17.811  0.00  0.00    +0.000 A 
BRANCH  24  25
ATOM     25  C   UNL     1      49.956   4.454  18.986  0.00  0.00    +0.000 C 
ATOM     26  N   UNL     1      51.140   3.785  18.810  0.00  0.00    +0.000 N 
ATOM     27  O   UNL     1      49.703   4.961  20.070  0.00  0.00    +0.000 OA
ATOM     28  H   UNL     1      51.498   3.533  17.899  0.00  0.00    +0.000 HD
ATOM     29  H   UNL     1      51.791   3.819  19.582  0.00  0.00    +0.000 HD
ENDBRANCH  24  25
ENDBRANCH  16  21
ENDBRANCH   1  16
TORSDOF 7
ENDMDL
MODEL 5
REMARK VINA RESULT:    -6.516      2.174      7.897
REMARK INTER + INTRA:         -10.250
REMARK INTER:                  -9.347
REMARK INTRA:                  -0.903
REMARK UNBOUND:                -1.068
REMARK  Name = 
REMARK  10 active torsions:
REMARK  status: ('A' for Active; 'I' for Inactive)
REMARK    1  A    between atoms: C_1  and  C_2
REMARK    2  A    between atoms: C_4  and  N_5
REMARK    3  A    between atoms: N_5  and  C_6
REMARK    4  A    between atoms: C_6  and  C_7
REMARK    5  A    between atoms: C_7  and  C_8
REMARK    6  A    between atoms: C_7  and  C_9
REMARK    7  A    between atoms: C_7  and  C_10
REMARK    8  A    between atoms: C_14  and  O_15
REMARK    9  A    between atoms: O_15  and  C_16
REMARK   10  A    between atoms: C_23  and  C_24
REMARK                            x       y       z     vdW  Elec       q    Type
REMARK                         _______ _______ _______ _____ _____    ______ ____
ROOT
ATOM      1  C   UNL     1      44.464   4.745  13.461  0.00  0.00    +0.000 C 
ENDROOT
BRANCH   1   2
ATOM      2  C   UNL     1      43.810   4.381  12.094  0.00  0.00    +0.000 C 
ATOM      3  C   UNL     1      43.423   2.880  12.121  0.00  0.00    +0.000 C 
ATOM      4  C   UNL     1      42.502   5.208  12.002  0.00  0.00    +0.000 C 
BRANCH   2   5
ATOM      5  C   UNL     1      44.675   4.683  10.862  0.00  0.00    +0.000 A 
ATOM      6  C   UNL     1      45.471   5.820  10.721  0.00  0.00    +0.000 A 
ATOM      7  N   UNL     1      46.264   6.083   9.655  0.00  0.00    +0.000 NA
ATOM      8  C   UNL     1      46.277   5.165   8.665  0.00  0.00    +0.000 A 
ATOM      9  C   UNL     1      45.527   4.003   8.685  0.00  0.00    +0.000 A 
ATOM     10  C   UNL     1      44.703   3.780   9.785  0.00  0.00    +0.000 A 
BRANCH   9  11
ATOM     11  O   UNL     1      45.638   3.147   7.621  0.00  0.00    +0.000 OA
BRANCH  11  12
ATOM     12  C   UNL     1      46.845   3.221   6.827  0.00  0.00    +0.000 C 
ATOM     13  C   UNL     1      46.706   2.902   5.317  0.00  0.00    +0.000 C 
ATOM     14  C   UNL     1      47.972   2.042   5.416  0.00  0.00    +0.000 C 
ATOM     15  C   UNL     1      47.773   1.992   6.938  0.00  0.00    +0.000 C 
ENDBRANCH  11  12
ENDBRANCH   9  11
ENDBRANCH   2   5
ENDBRANCH   1   2
BRANCH   1  16
ATOM     16  N   UNL     1      45.704   4.015  13.713  0.00  0.00    +0.000 N 
ATOM     17  H   UNL     1      45.641   3.003  13.769  0.00  0.00    +0.000 HD
BRANCH  16  21
ATOM     18  C   UNL     1      48.361   4.174  17.880  0.00  0.00    +0.000 C 
ATOM     19  C   UNL     1      48.059   4.755  16.526  0.00  0.00    +0.000 A 
ATOM     20  C   UNL     1      47.078   4.117  15.741  0.00  0.00    +0.000 A 
ATOM     21  C   UNL     1      46.730   4.569  14.463  0.00  0.00    +0.000 A 
ATOM     22  C   UNL     1      47.364   5.722  13.990  0.00  0.00    +0.000 A 
ATOM     23  C   UNL     1      48.335   6.381  14.750  0.00  0.00    +0.000 A 
ATOM     24  C   UNL     1      48.688   5.908  16.024  0.00  0.00    +0.000 A 
BRANCH  24  25
ATOM     25  C   UNL     1      49.732   6.630  16.809  0.00  0.00    +0.000 C 
ATOM     26  N   UNL     1      49.319   7.680  17.588  0.00  0.00    +0.000 N 
ATOM     27  O   UNL     1      50.915   6.315  16.797  0.00  0.00    +0.000 OA
ATOM     28  H   UNL     1      48.347   7.854  17.804  0.00  0.00    +0.000 HD
ATOM     29  H   UNL     1      50.019   8.094  18.187  0.00  0.00    +0.000 HD
ENDBRANCH  24  25
ENDBRANCH  16  21
ENDBRANCH   1  16
TORSDOF 7
ENDMDL
MODEL 6
REMARK VINA RESULT:    -6.369      3.208      8.913
REMARK INTER + INTRA:         -10.043
REMARK INTER:                  -9.392
REMARK INTRA:                  -0.652
REMARK UNBOUND:                -1.068
REMARK  Name = 
REMARK  10 active torsions:
REMARK  status: ('A' for Active; 'I' for Inactive)
REMARK    1  A    between atoms: C_1  and  C_2
REMARK    2  A    between atoms: C_4  and  N_5
REMARK    3  A    between atoms: N_5  and  C_6
REMARK    4  A    between atoms: C_6  and  C_7
REMARK    5  A    between atoms: C_7  and  C_8
REMARK    6  A    between atoms: C_7  and  C_9
REMARK    7  A    between atoms: C_7  and  C_10
REMARK    8  A    between atoms: C_14  and  O_15
REMARK    9  A    between atoms: O_15  and  C_16
REMARK   10  A    between atoms: C_23  and  C_24
REMARK                            x       y       z     vdW  Elec       q    Type
REMARK                         _______ _______ _______ _____ _____    ______ ____
ROOT
ATOM      1  C   UNL     1      48.680   6.851  14.047  0.00  0.00    +0.000 C 
ENDROOT
BRANCH   1   2
ATOM      2  C   UNL     1      47.544   7.033  12.997  0.00  0.00    +0.000 C 
ATOM      3  C   UNL     1      46.639   8.207  13.452  0.00  0.00    +0.000 C 
ATOM      4  C   UNL     1      48.235   7.450  11.674  0.00  0.00    +0.000 C 
BRANCH   2   5
ATOM      5  C   UNL     1      46.695   5.779  12.740  0.00  0.00    +0.000 A 
ATOM      6  C   UNL     1      46.814   4.589  13.458  0.00  0.00    +0.000 A 
ATOM      7  N   UNL     1      46.051   3.487  13.263  0.00  0.00    +0.000 NA
ATOM      8  C   UNL     1      45.106   3.564  12.302  0.00  0.00    +0.000 A 
ATOM      9  C   UNL     1      44.895   4.685  11.519  0.00  0.00    +0.000 A 
ATOM     10  C   UNL     1      45.718   5.788  11.729  0.00  0.00    +0.000 A 
BRANCH   9  11
ATOM     11  O   UNL     1      43.895   4.638  10.584  0.00  0.00    +0.000 OA
BRANCH  11  12
ATOM     12  C   UNL     1      44.232   4.139   9.268  0.00  0.00    +0.000 C 
ATOM     13  C   UNL     1      44.647   2.650   9.172  0.00  0.00    +0.000 C 
ATOM     14  C   UNL     1      45.806   3.065   8.259  0.00  0.00    +0.000 C 
ATOM     15  C   UNL     1      45.651   4.502   8.780  0.00  0.00    +0.000 C 
ENDBRANCH  11  12
ENDBRANCH   9  11
ENDBRANCH   2   5
ENDBRANCH   1   2
BRANCH   1  16
ATOM     16  N   UNL     1      48.339   7.401  15.357  0.00  0.00    +0.000 N 
ATOM     17  H   UNL     1      48.348   8.412  15.451  0.00  0.00    +0.000 HD
BRANCH  16  21
ATOM     18  C   UNL     1      49.263   3.152  17.711  0.00  0.00    +0.000 C 
ATOM     19  C   UNL     1      49.031   4.636  17.783  0.00  0.00    +0.000 A 
ATOM     20  C   UNL     1      48.837   5.330  16.573  0.00  0.00    +0.000 A 
ATOM     21  C   UNL     1      48.625   6.713  16.527  0.00  0.00    +0.000 A 
ATOM     22  C   UNL     1      48.565   7.399  17.744  0.00  0.00    +0.000 A 
ATOM     23  C   UNL     1      48.746   6.734  18.961  0.00  0.00    +0.000 A 
ATOM     24  C   UNL     1      48.974   5.350  18.993  0.00  0.00    +0.000 A 
BRANCH  24  25
ATOM     25  C   UNL     1      49.168   4.670  20.308  0.00  0.00    +0.000 C 
ATOM     26  N   UNL     1      50.450   4.578  20.784  0.00  0.00    +0.000 N 
ATOM     27  O   UNL     1      48.243   4.218  20.970  0.00  0.00    +0.000 OA
ATOM     28  H   UNL     1      51.219   5.107  20.398  0.00  0.00    +0.000 HD
ATOM     29  H   UNL     1      50.555   4.204  21.717  0.00  0.00    +0.000 HD
ENDBRANCH  24  25
ENDBRANCH  16  21
ENDBRANCH   1  16
TORSDOF 7
ENDMDL
MODEL 7
REMARK VINA RESULT:    -6.154      1.863      2.228
REMARK INTER + INTRA:          -9.739
REMARK INTER:                  -9.710
REMARK INTRA:                  -0.029
REMARK UNBOUND:                -1.068
REMARK  Name = 
REMARK  10 active torsions:
REMARK  status: ('A' for Active; 'I' for Inactive)
REMARK    1  A    between atoms: C_1  and  C_2
REMARK    2  A    between atoms: C_4  and  N_5
REMARK    3  A    between atoms: N_5  and  C_6
REMARK    4  A    between atoms: C_6  and  C_7
REMARK    5  A    between atoms: C_7  and  C_8
REMARK    6  A    between atoms: C_7  and  C_9
REMARK    7  A    between atoms: C_7  and  C_10
REMARK    8  A    between atoms: C_14  and  O_15
REMARK    9  A    between atoms: O_15  and  C_16
REMARK   10  A    between atoms: C_23  and  C_24
REMARK                            x       y       z     vdW  Elec       q    Type
REMARK                         _______ _______ _______ _____ _____    ______ ____
ROOT
ATOM      1  C   UNL     1      43.237   4.398  10.609  0.00  0.00    +0.000 C 
ENDROOT
BRANCH   1   2
ATOM      2  C   UNL     1      43.460   5.385  11.793  0.00  0.00    +0.000 C 
ATOM      3  C   UNL     1      42.344   6.461  11.750  0.00  0.00    +0.000 C 
ATOM      4  C   UNL     1      43.274   4.559  13.091  0.00  0.00    +0.000 C 
BRANCH   2   5
ATOM      5  C   UNL     1      44.840   6.056  11.825  0.00  0.00    +0.000 A 
ATOM      6  C   UNL     1      45.710   6.115  10.735  0.00  0.00    +0.000 A 
ATOM      7  N   UNL     1      46.916   6.731  10.739  0.00  0.00    +0.000 NA
ATOM      8  C   UNL     1      47.288   7.332  11.890  0.00  0.00    +0.000 A 
ATOM      9  C   UNL     1      46.518   7.337  13.039  0.00  0.00    +0.000 A 
ATOM     10  C   UNL     1      45.297   6.670  13.004  0.00  0.00    +0.000 A 
BRANCH   9  11
ATOM     11  O   UNL     1      47.006   7.992  14.138  0.00  0.00    +0.000 OA
BRANCH  11  12
ATOM     12  C   UNL     1      48.393   7.773  14.486  0.00  0.00    +0.000 C 
ATOM     13  C   UNL     1      48.687   6.635  15.496  0.00  0.00    +0.000 C 
ATOM     14  C   UNL     1      49.650   7.577  16.227  0.00  0.00    +0.000 C 
ATOM     15  C   UNL     1      48.966   8.760  15.527  0.00  0.00    +0.000 C 
ENDBRANCH  11  12
ENDBRANCH   9  11
ENDBRANCH   2   5
ENDBRANCH   1   2
BRANCH   1  16
ATOM     16  N   UNL     1      44.228   3.326  10.566  0.00  0.00    +0.000 N 
ATOM     17  H   UNL     1      44.711   3.107  11.432  0.00  0.00    +0.000 HD
BRANCH  16  21
ATOM     18  C   UNL     1      46.706   0.152   7.695  0.00  0.00    +0.000 C 
ATOM     19  C   UNL     1      46.263   1.564   7.965  0.00  0.00    +0.000 A 
ATOM     20  C   UNL     1      45.439   1.792   9.084  0.00  0.00    +0.000 A 
ATOM     21  C   UNL     1      44.962   3.064   9.418  0.00  0.00    +0.000 A 
ATOM     22  C   UNL     1      45.366   4.137   8.618  0.00  0.00    +0.000 A 
ATOM     23  C   UNL     1      46.190   3.942   7.505  0.00  0.00    +0.000 A 
ATOM     24  C   UNL     1      46.650   2.658   7.171  0.00  0.00    +0.000 A 
BRANCH  24  25
ATOM     25  C   UNL     1      47.524   2.482   5.974  0.00  0.00    +0.000 C 
ATOM     26  N   UNL     1      48.869   2.343   6.193  0.00  0.00    +0.000 N 
ATOM     27  O   UNL     1      47.090   2.439   4.830  0.00  0.00    +0.000 OA
ATOM     28  H   UNL     1      49.261   2.160   7.107  0.00  0.00    +0.000 HD
ATOM     29  H   UNL     1      49.434   2.127   5.384  0.00  0.00    +0.000 HD
ENDBRANCH  24  25
ENDBRANCH  16  21
ENDBRANCH   1  16
TORSDOF 7
ENDMDL
