MODEL 1
REMARK VINA RESULT:    -7.220      0.000      0.000
REMARK INTER + INTRA:          -9.058
REMARK INTER:                  -8.697
REMARK INTRA:                  -0.361
REMARK UNBOUND:                -0.361
REMARK  Name = 
REMARK  4 active torsions:
REMARK  status: ('A' for Active; 'I' for Inactive)
REMARK    1  A    between atoms: N_1  and  C_2
REMARK    2  A    between atoms: C_2  and  C_3
REMARK    3  A    between atoms: C_7  and  C_8
REMARK    4  A    between atoms: C_8  and  C_9
REMARK                            x       y       z     vdW  Elec       q    Type
REMARK                         _______ _______ _______ _____ _____    ______ ____
ROOT
ATOM      1  C   UNL     1      45.181   4.919  13.134  0.00  0.00    +0.000 A 
ATOM      2  N   UNL     1      43.988   5.559  13.266  0.00  0.00    +0.000 NA
ATOM      3  C   UNL     1      42.997   5.126  12.471  0.00  0.00    +0.000 A 
ATOM      4  N   UNL     1      43.072   4.120  11.580  0.00  0.00    +0.000 NA
ATOM      5  C   UNL     1      44.272   3.502  11.471  0.00  0.00    +0.000 A 
ATOM      6  C   UNL     1      45.360   3.881  12.239  0.00  0.00    +0.000 A 
ATOM      7  F   UNL     1      46.535   3.246  12.128  0.00  0.00    +0.000 F 
ENDROOT
BRANCH   1   8
ATOM      8  C   UNL     1      46.309   5.362  14.037  0.00  0.00    +0.000 C 
BRANCH   8   9
ATOM      9  N   UNL     1      46.561   4.414  15.125  0.00  0.00    +0.000 NA
ATOM     10  H   UNL     1      47.440   4.656  15.579  0.00  0.00    +0.000 HD
ATOM     11  H   UNL     1      46.700   3.493  14.703  0.00  0.00    +0.000 HD
ENDBRANCH   8   9
ENDBRANCH   1   8
BRANCH   5  12
ATOM     12  C   UNL     1      44.431   2.367  10.482  0.00  0.00    +0.000 C 
BRANCH  12  13
ATOM     13  C   UNL     1      44.423   2.755   8.994  0.00  0.00    +0.000 C 
ATOM     14  C   UNL     1      44.541   4.281   8.735  0.00  0.00    +0.000 C 
ATOM     15  C   UNL     1      45.875   4.579   8.032  0.00  0.00    +0.000 C 
ATOM     16  C   UNL     1      46.410   3.226   7.722  0.00  0.00    +0.000 A 
ATOM     17  C   UNL     1      47.561   2.915   7.022  0.00  0.00    +0.000 A 
ATOM     18  C   UNL     1      47.870   1.570   6.890  0.00  0.00    +0.000 A 
ATOM     19  N   UNL     1      47.119   0.560   7.399  0.00  0.00    +0.000 NA
ATOM     20  C   UNL     1      45.999   0.906   8.075  0.00  0.00    +0.000 A 
ATOM     21  C   UNL     1      45.619   2.218   8.262  0.00  0.00    +0.000 A 
ENDBRANCH  12  13
ENDBRANCH   5  12
TORSDOF 4
ENDMDL
MODEL 2
REMARK VINA RESULT:    -6.705      2.058      5.986
REMARK INTER + INTRA:          -8.438
REMARK INTER:                  -8.376
REMARK INTRA:                  -0.062
REMARK UNBOUND:                -0.361
REMARK  Name = 
REMARK  4 active torsions:
REMARK  status: ('A' for Active; 'I' for Inactive)
REMARK    1  A    between atoms: N_1  and  C_2
REMARK    2  A    between atoms: C_2  and  C_3
REMARK    3  A    between atoms: C_7  and  C_8
REMARK    4  A    between atoms: C_8  and  C_9
REMARK                            x       y       z     vdW  Elec       q    Type
REMARK                         _______ _______ _______ _____ _____    ______ ____
ROOT
ATOM      1  C   UNL     1      46.772   2.568   7.640  0.00  0.00    +0.000 A 
ATOM      2  N   UNL     1      46.432   1.263   7.818  0.00  0.00    +0.000 NA
ATOM      3  C   UNL     1      45.334   1.037   8.555  0.00  0.00    +0.000 A 
ATOM      4  N   UNL     1      44.540   1.971   9.112  0.00  0.00    +0.000 NA
ATOM      5  C   UNL     1      44.903   3.261   8.917  0.00  0.00    +0.000 A 
ATOM      6  C   UNL     1      46.027   3.600   8.181  0.00  0.00    +0.000 A 
ATOM      7  F   UNL     1      46.361   4.883   7.986  0.00  0.00    +0.000 F 
ENDROOT
BRANCH   1   8
ATOM      8  C   UNL     1      47.987   2.859   6.789  0.00  0.00    +0.000 C 
BRANCH   8   9
ATOM      9  N   UNL     1      48.341   1.736   5.918  0.00  0.00    +0.000 NA
ATOM     10  H   UNL     1      48.668   0.961   6.492  0.00  0.00    +0.000 HD
ATOM     11  H   UNL     1      49.141   2.027   5.351  0.00  0.00    +0.000 HD
ENDBRANCH   8   9
ENDBRANCH   1   8
BRANCH   5  12
ATOM     12  C   UNL     1      44.062   4.365   9.522  0.00  0.00    +0.000 C 
BRANCH  12  13
ATOM     13  C   UNL     1      43.982   4.395  11.058  0.00  0.00    +0.000 C 
ATOM     14  C   UNL     1      44.614   3.160  11.751  0.00  0.00    +0.000 C 
ATOM     15  C   UNL     1      45.848   3.600  12.557  0.00  0.00    +0.000 C 
ATOM     16  C   UNL     1      45.796   5.085  12.480  0.00  0.00    +0.000 A 
ATOM     17  C   UNL     1      46.637   5.990  13.100  0.00  0.00    +0.000 A 
ATOM     18  C   UNL     1      46.406   7.333  12.847  0.00  0.00    +0.000 A 
ATOM     19  N   UNL     1      45.418   7.800  12.041  0.00  0.00    +0.000 NA
ATOM     20  C   UNL     1      44.615   6.883  11.456  0.00  0.00    +0.000 A 
ATOM     21  C   UNL     1      44.776   5.527  11.644  0.00  0.00    +0.000 A 
ENDBRANCH  12  13
ENDBRANCH   5  12
TORSDOF 4
ENDMDL
MODEL 3
REMARK VINA RESULT:    -6.389      2.192      6.054
REMARK INTER + INTRA:          -8.057
REMARK INTER:                  -7.655
REMARK INTRA:                  -0.402
REMARK UNBOUND:                -0.361
REMARK  Name = 
REMARK  4 active torsions:
REMARK  status: ('A' for Active; 'I' for Inactive)
REMARK    1  A    between atoms: N_1  and  C_2
REMARK    2  A    between atoms: C_2  and  C_3
REMARK    3  A    between atoms: C_7  and  C_8
REMARK    4  A    between atoms: C_8  and  C_9
REMARK                            x       y       z     vdW  Elec       q    Type
REMARK                         _______ _______ _______ _____ _____    ______ ____
ROOT
ATOM      1  C   UNL     1      44.379   3.453  10.126  0.00  0.00    +0.000 A 
ATOM      2  N   UNL     1      43.512   2.894  11.013  0.00  0.00    +0.000 NA
ATOM      3  C   UNL     1      43.385   3.527  12.190  0.00  0.00    +0.000 A 
ATOM      4  N   UNL     1      44.016   4.657  12.560  0.00  0.00    +0.000 NA
ATOM      5  C   UNL     1      44.872   5.190  11.657  0.00  0.00    +0.000 A 
ATOM      6  C   UNL     1      45.082   4.607  10.418  0.00  0.00    +0.000 A 
ATOM      7  F   UNL     1      45.922   5.159   9.531  0.00  0.00    +0.000 F 
ENDROOT
BRANCH   1   8
ATOM      8  C   UNL     1      44.522   2.782   8.780  0.00  0.00    +0.000 C 
BRANCH   8   9
ATOM      9  N   UNL     1      45.194   1.483   8.870  0.00  0.00    +0.000 NA
ATOM     10  H   UNL     1      45.549   1.229   7.950  0.00  0.00    +0.000 HD
ATOM     11  H   UNL     1      44.484   0.786   9.104  0.00  0.00    +0.000 HD
ENDBRANCH   8   9
ENDBRANCH   1   8
BRANCH   5  12
ATOM     12  C   UNL     1      45.624   6.457  12.009  0.00  0.00    +0.000 C 
BRANCH  12  13
ATOM     13  C   UNL     1      47.145   6.317  12.187  0.00  0.00    +0.000 C 
ATOM     14  C   UNL     1      47.929   7.645  12.011  0.00  0.00    +0.000 C 
ATOM     15  C   UNL     1      48.566   8.045  13.352  0.00  0.00    +0.000 C 
ATOM     16  C   UNL     1      48.310   6.864  14.219  0.00  0.00    +0.000 A 
ATOM     17  C   UNL     1      48.740   6.664  15.518  0.00  0.00    +0.000 A 
ATOM     18  C   UNL     1      48.344   5.487  16.135  0.00  0.00    +0.000 A 
ATOM     19  N   UNL     1      47.574   4.538  15.545  0.00  0.00    +0.000 NA
ATOM     20  C   UNL     1      47.177   4.769  14.273  0.00  0.00    +0.000 A 
ATOM     21  C   UNL     1      47.517   5.914  13.585  0.00  0.00    +0.000 A 
ENDBRANCH  12  13
ENDBRANCH   5  12
TORSDOF 4
ENDMDL
MODEL 4
REMARK VINA RESULT:    -6.300      3.123      6.182
REMARK INTER + INTRA:          -7.950
REMARK INTER:                  -7.488
REMARK INTRA:                  -0.463
REMARK UNBOUND:                -0.361
REMARK  Name = 
REMARK  4 active torsions:
REMARK  status: ('A' for Active; 'I' for Inactive)
REMARK    1  A    between atoms: N_1  and  C_2
REMARK    2  A    between atoms: C_2  and  C_3
REMARK    3  A    between atoms: C_7  and  C_8
REMARK    4  A    between atoms: C_8  and  C_9
REMARK                            x       y       z     vdW  Elec       q    Type
REMARK                         _______ _______ _______ _____ _____    ______ ____
ROOT
ATOM      1  C   UNL     1      44.653   3.399   9.817  0.00  0.00    +0.000 A 
ATOM      2  N   UNL     1      43.822   2.653  10.595  0.00  0.00    +0.000 NA
ATOM      3  C   UNL     1      43.267   3.288  11.639  0.00  0.00    +0.000 A 
ATOM      4  N   UNL     1      43.441   4.581  11.970  0.00  0.00    +0.000 NA
ATOM      5  C   UNL     1      44.272   5.298  11.178  0.00  0.00    +0.000 A 
ATOM      6  C   UNL     1      44.904   4.733  10.082  0.00  0.00    +0.000 A 
ATOM      7  F   UNL     1      45.711   5.462   9.300  0.00  0.00    +0.000 F 
ENDROOT
BRANCH   1   8
ATOM      8  C   UNL     1      45.271   2.722   8.616  0.00  0.00    +0.000 C 
BRANCH   8   9
ATOM      9  N   UNL     1      45.518   1.295   8.842  0.00  0.00    +0.000 NA
ATOM     10  H   UNL     1      45.533   0.815   7.945  0.00  0.00    +0.000 HD
ATOM     11  H   UNL     1      44.714   0.922   9.353  0.00  0.00    +0.000 HD
ENDBRANCH   8   9
ENDBRANCH   1   8
BRANCH   5  12
ATOM     12  C   UNL     1      44.522   6.757  11.497  0.00  0.00    +0.000 C 
BRANCH  12  13
ATOM     13  C   UNL     1      45.526   7.044  12.625  0.00  0.00    +0.000 C 
ATOM     14  C   UNL     1      46.623   5.959  12.790  0.00  0.00    +0.000 C 
ATOM     15  C   UNL     1      47.994   6.560  12.438  0.00  0.00    +0.000 C 
ATOM     16  C   UNL     1      47.701   8.008  12.269  0.00  0.00    +0.000 A 
ATOM     17  C   UNL     1      48.602   9.026  12.017  0.00  0.00    +0.000 A 
ATOM     18  C   UNL     1      48.080  10.301  11.865  0.00  0.00    +0.000 A 
ATOM     19  N   UNL     1      46.759  10.601  11.951  0.00  0.00    +0.000 NA
ATOM     20  C   UNL     1      45.910   9.578  12.202  0.00  0.00    +0.000 A 
ATOM     21  C   UNL     1      46.340   8.278  12.359  0.00  0.00    +0.000 A 
ENDBRANCH  12  13
ENDBRANCH   5  12
TORSDOF 4
ENDMDL
MODEL 5
REMARK VINA RESULT:    -6.102      4.194      6.805
REMARK INTER + INTRA:          -7.711
REMARK INTER:                  -7.274
REMARK INTRA:                  -0.438
REMARK UNBOUND:                -0.361
REMARK  Name = 
REMARK  4 active torsions:
REMARK  status: ('A' for Active; 'I' for Inactive)
REMARK    1  A    between atoms: N_1  and  C_2
REMARK    2  A    between atoms: C_2  and  C_3
REMARK    3  A    between atoms: C_7  and  C_8
REMARK    4  A    between atoms: C_8  and  C_9
REMARK                            x       y       z     vdW  Elec       q    Type
REMARK                         _______ _______ _______ _____ _____    ______ ____
ROOT
ATOM      1  C   UNL     1      45.058   4.794  13.010  0.00  0.00    +0.000 A 
ATOM      2  N   UNL     1      45.664   4.168  14.056  0.00  0.00    +0.000 NA
ATOM      3  C   UNL     1      46.935   4.524  14.298  0.00  0.00    +0.000 A 
ATOM      4  N   UNL     1      47.648   5.444  13.622  0.00  0.00    +0.000 NA
ATOM      5  C   UNL     1      47.020   6.050  12.587  0.00  0.00    +0.000 A 
ATOM      6  C   UNL     1      45.712   5.745  12.248  0.00  0.00    +0.000 A 
ATOM      7  F   UNL     1      45.102   6.368  11.231  0.00  0.00    +0.000 F 
ENDROOT
BRANCH   1   8
ATOM      8  C   UNL     1      43.617   4.438  12.729  0.00  0.00    +0.000 C 
BRANCH   8   9
ATOM      9  N   UNL     1      42.688   5.492  13.145  0.00  0.00    +0.000 NA
ATOM     10  H   UNL     1      42.228   5.208  14.008  0.00  0.00    +0.000 HD
ATOM     11  H   UNL     1      41.954   5.552  12.436  0.00  0.00    +0.000 HD
ENDBRANCH   8   9
ENDBRANCH   1   8
BRANCH   5  12
ATOM     12  C   UNL     1      47.766   7.089  11.776  0.00  0.00    +0.000 C 
BRANCH  12  13
ATOM     13  C   UNL     1      47.971   8.457  12.447  0.00  0.00    +0.000 C 
ATOM     14  C   UNL     1      49.191   9.251  11.909  0.00  0.00    +0.000 C 
ATOM     15  C   UNL     1      48.701  10.519  11.192  0.00  0.00    +0.000 C 
ATOM     16  C   UNL     1      47.244  10.541  11.491  0.00  0.00    +0.000 A 
ATOM     17  C   UNL     1      46.327  11.516  11.144  0.00  0.00    +0.000 A 
ATOM     18  C   UNL     1      45.008  11.295  11.510  0.00  0.00    +0.000 A 
ATOM     19  N   UNL     1      44.576  10.195  12.179  0.00  0.00    +0.000 NA
ATOM     20  C   UNL     1      45.503   9.266  12.503  0.00  0.00    +0.000 A 
ATOM     21  C   UNL     1      46.835   9.399  12.172  0.00  0.00    +0.000 A 
ENDBRANCH  12  13
ENDBRANCH   5  12
TORSDOF 4
ENDMDL
MODEL 6
REMARK VINA RESULT:    -6.001      2.697      6.184
REMARK INTER + INTRA:          -7.590
REMARK INTER:                  -7.019
REMARK INTRA:                  -0.570
REMARK UNBOUND:                -0.361
REMARK  Name = 
REMARK  4 active torsions:
REMARK  status: ('A' for Active; 'I' for Inactive)
REMARK    1  A    between atoms: N_1  and  C_2
REMARK    2  A    between atoms: C_2  and  C_3
REMARK    3  A    between atoms: C_7  and  C_8
REMARK    4  A    between atoms: C_8  and  C_9
REMARK                            x       y       z     vdW  Elec       q    Type
REMARK                         _______ _______ _______ _____ _____    ______ ____
ROOT
ATOM      1  C   UNL     1      44.040   4.134  11.022  0.00  0.00    +0.000 A 
ATOM      2  N   UNL     1      44.321   3.844   9.723  0.00  0.00    +0.000 NA
ATOM      3  C   UNL     1      45.240   4.623   9.132  0.00  0.00    +0.000 A 
ATOM      4  N   UNL     1      45.911   5.640   9.704  0.00  0.00    +0.000 NA
ATOM      5  C   UNL     1      45.611   5.905  10.998  0.00  0.00    +0.000 A 
ATOM      6  C   UNL     1      44.669   5.167  11.694  0.00  0.00    +0.000 A 
ATOM      7  F   UNL     1      44.396   5.434  12.979  0.00  0.00    +0.000 F 
ENDROOT
BRANCH   1   8
ATOM      8  C   UNL     1      43.031   3.256  11.726  0.00  0.00    +0.000 C 
BRANCH   8   9
ATOM      9  N   UNL     1      43.662   2.155  12.458  0.00  0.00    +0.000 NA
ATOM     10  H   UNL     1      44.458   2.516  12.980  0.00  0.00    +0.000 HD
ATOM     11  H   UNL     1      44.045   1.507  11.766  0.00  0.00    +0.000 HD
ENDBRANCH   8   9
ENDBRANCH   1   8
BRANCH   5  12
ATOM     12  C   UNL     1      46.321   7.041  11.704  0.00  0.00    +0.000 C 
BRANCH  12  13
ATOM     13  C   UNL     1      47.808   6.818  12.027  0.00  0.00    +0.000 C 
ATOM     14  C   UNL     1      48.679   8.097  11.922  0.00  0.00    +0.000 C 
ATOM     15  C   UNL     1      49.207   8.472  13.317  0.00  0.00    +0.000 C 
ATOM     16  C   UNL     1      48.804   7.314  14.159  0.00  0.00    +0.000 A 
ATOM     17  C   UNL     1      49.095   7.101  15.494  0.00  0.00    +0.000 A 
ATOM     18  C   UNL     1      48.576   5.954  16.073  0.00  0.00    +0.000 A 
ATOM     19  N   UNL     1      47.812   5.045  15.415  0.00  0.00    +0.000 NA
ATOM     20  C   UNL     1      47.552   5.287  14.110  0.00  0.00    +0.000 A 
ATOM     21  C   UNL     1      48.021   6.406  13.455  0.00  0.00    +0.000 A 
ENDBRANCH  12  13
ENDBRANCH   5  12
TORSDOF 4
ENDMDL
MODEL 7
REMARK VINA RESULT:    -5.867      2.968      5.134
REMARK INTER + INTRA:          -7.429
REMARK INTER:                  -7.032
REMARK INTRA:                  -0.398
REMARK UNBOUND:                -0.361
REMARK  Name = 
REMARK  4 active torsions:
REMARK  status: ('A' for Active; 'I' for Inactive)
REMARK    1  A    between atoms: N_1  and  C_2
REMARK    2  A    between atoms: C_2  and  C_3
REMARK    3  A    between atoms: C_7  and  C_8
REMARK    4  A    between atoms: C_8  and  C_9
REMARK                            x       y       z     vdW  Elec       q    Type
REMARK                         _______ _______ _______ _____ _____    ______ ____
ROOT
ATOM      1  C   UNL     1      48.207   4.493  16.704  0.00  0.00    +0.000 A 
ATOM      2  N   UNL     1      48.862   5.541  17.274  0.00  0.00    +0.000 NA
ATOM      3  C   UNL     1      48.981   6.643  16.516  0.00  0.00    +0.000 A 
ATOM      4  N   UNL     1      48.502   6.808  15.269  0.00  0.00    +0.000 NA
ATOM      5  C   UNL     1      47.855   5.749  14.728  0.00  0.00    +0.000 A 
ATOM      6  C   UNL     1      47.689   4.562  15.423  0.00  0.00    +0.000 A 
ATOM      7  F   UNL     1      47.032   3.530  14.877  0.00  0.00    +0.000 F 
ENDROOT
BRANCH   1   8
ATOM      8  C   UNL     1      48.030   3.248  17.542  0.00  0.00    +0.000 C 
BRANCH   8   9
ATOM      9  N   UNL     1      46.620   2.909  17.749  0.00  0.00    +0.000 NA
ATOM     10  H   UNL     1      46.459   2.753  18.742  0.00  0.00    +0.000 HD
ATOM     11  H   UNL     1      46.448   2.013  17.287  0.00  0.00    +0.000 HD
ENDBRANCH   8   9
ENDBRANCH   1   8
BRANCH   5  12
ATOM     12  C   UNL     1      47.298   5.861  13.324  0.00  0.00    +0.000 C 
BRANCH  12  13
ATOM     13  C   UNL     1      45.769   5.967  13.206  0.00  0.00    +0.000 C 
ATOM     14  C   UNL     1      45.268   7.334  12.668  0.00  0.00    +0.000 C 
ATOM     15  C   UNL     1      44.607   7.133  11.295  0.00  0.00    +0.000 C 
ATOM     16  C   UNL     1      44.560   5.653  11.150  0.00  0.00    +0.000 A 
ATOM     17  C   UNL     1      43.992   4.925  10.121  0.00  0.00    +0.000 A 
ATOM     18  C   UNL     1      44.106   3.545  10.193  0.00  0.00    +0.000 A 
ATOM     19  N   UNL     1      44.729   2.882  11.200  0.00  0.00    +0.000 NA
ATOM     20  C   UNL     1      45.269   3.630  12.189  0.00  0.00    +0.000 A 
ATOM     21  C   UNL     1      45.211   5.007  12.195  0.00  0.00    +0.000 A 
ENDBRANCH  12  13
ENDBRANCH   5  12
TORSDOF 4
ENDMDL
MODEL 8
REMARK VINA RESULT:    -5.768      2.976      5.140
REMARK INTER + INTRA:          -7.310
REMARK INTER:                  -6.895
REMARK INTRA:                  -0.415
REMARK UNBOUND:                -0.361
REMARK  Name = 
REMARK  4 active torsions:
REMARK  status: ('A' for Active; 'I' for Inactive)
REMARK    1  A    between atoms: N_1  and  C_2
REMARK    2  A    between atoms: C_2  and  C_3
REMARK    3  A    between atoms: C_7  and  C_8
REMARK    4  A    between atoms: C_8  and  C_9
REMARK                            x       y       z     vdW  Elec       q    Type
REMARK                         _______ _______ _______ _____ _____    ______ ____
ROOT
ATOM      1  C   UNL     1      48.190   5.448  17.371  0.00  0.00    +0.000 A 
ATOM      2  N   UNL     1      47.820   4.391  18.144  0.00  0.00    +0.000 NA
ATOM      3  C   UNL     1      47.247   3.363  17.499  0.00  0.00    +0.000 A 
ATOM      4  N   UNL     1      47.025   3.277  16.174  0.00  0.00    +0.000 NA
ATOM      5  C   UNL     1      47.404   4.344  15.431  0.00  0.00    +0.000 A 
ATOM      6  C   UNL     1      47.994   5.459  16.002  0.00  0.00    +0.000 A 
ATOM      7  F   UNL     1      48.377   6.498  15.248  0.00  0.00    +0.000 F 
ENDROOT
BRANCH   1   8
ATOM      8  C   UNL     1      48.866   6.610  18.063  0.00  0.00    +0.000 C 
BRANCH   8   9
ATOM      9  N   UNL     1      47.957   7.739  18.276  0.00  0.00    +0.000 NA
ATOM     10  H   UNL     1      48.408   8.416  18.889  0.00  0.00    +0.000 HD
ATOM     11  H   UNL     1      47.145   7.387  18.787  0.00  0.00    +0.000 HD
ENDBRANCH   8   9
ENDBRANCH   1   8
BRANCH   5  12
ATOM     12  C   UNL     1      47.176   4.320  13.934  0.00  0.00    +0.000 C 
BRANCH  12  13
ATOM     13  C   UNL     1      46.004   5.167  13.411  0.00  0.00    +0.000 C 
ATOM     14  C   UNL     1      46.429   6.520  12.782  0.00  0.00    +0.000 C 
ATOM     15  C   UNL     1      46.109   6.509  11.278  0.00  0.00    +0.000 C 
ATOM     16  C   UNL     1      45.336   5.249  11.101  0.00  0.00    +0.000 A 
ATOM     17  C   UNL     1      44.737   4.784   9.946  0.00  0.00    +0.000 A 
ATOM     18  C   UNL     1      44.097   3.557  10.023  0.00  0.00    +0.000 A 
ATOM     19  N   UNL     1      44.025   2.802  11.149  0.00  0.00    +0.000 NA
ATOM     20  C   UNL     1      44.622   3.294  12.259  0.00  0.00    +0.000 A 
ATOM     21  C   UNL     1      45.287   4.501  12.272  0.00  0.00    +0.000 A 
ENDBRANCH  12  13
ENDBRANCH   5  12
TORSDOF 4
ENDMDL
MODEL 9
REMARK VINA RESULT:    -5.724      3.879      6.166
REMARK INTER + INTRA:          -7.257
REMARK INTER:                  -6.799
REMARK INTRA:                  -0.458
REMARK UNBOUND:                -0.361
REMARK  Name = 
REMARK  4 active torsions:
REMARK  status: ('A' for Active; 'I' for Inactive)
REMARK    1  A    between atoms: N_1  and  C_2
REMARK    2  A    between atoms: C_2  and  C_3
REMARK    3  A    between atoms: C_7  and  C_8
REMARK    4  A    between atoms: C_8  and  C_9
REMARK                            x       y       z     vdW  Elec       q    Type
REMARK                         _______ _______ _______ _____ _____    ______ ____
ROOT
ATOM      1  C   UNL     1      44.633   4.084  12.216  0.00  0.00    +0.000 A 
ATOM      2  N   UNL     1      45.462   3.114  12.689  0.00  0.00    +0.000 NA
ATOM      3  C   UNL     1      46.565   3.541  13.323  0.00  0.00    +0.000 A 
ATOM      4  N   UNL     1      46.911   4.823  13.546  0.00  0.00    +0.000 NA
ATOM      5  C   UNL     1      46.066   5.766  13.064  0.00  0.00    +0.000 A 
ATOM      6  C   UNL     1      44.907   5.429  12.385  0.00  0.00    +0.000 A 
ATOM      7  F   UNL     1      44.075   6.376  11.930  0.00  0.00    +0.000 F 
ENDROOT
BRANCH   1   8
ATOM      8  C   UNL     1      43.367   3.636  11.523  0.00  0.00    +0.000 C 
BRANCH   8   9
ATOM      9  N   UNL     1      43.080   2.216  11.743  0.00  0.00    +0.000 NA
ATOM     10  H   UNL     1      42.158   2.002  11.369  0.00  0.00    +0.000 HD
ATOM     11  H   UNL     1      43.020   2.068  12.753  0.00  0.00    +0.000 HD
ENDBRANCH   8   9
ENDBRANCH   1   8
BRANCH   5  12
ATOM     12  C   UNL     1      46.397   7.229  13.270  0.00  0.00    +0.000 C 
BRANCH  12  13
ATOM     13  C   UNL     1      46.714   8.040  12.002  0.00  0.00    +0.000 C 
ATOM     14  C   UNL     1      46.133   9.478  12.007  0.00  0.00    +0.000 C 
ATOM     15  C   UNL     1      47.286  10.495  12.037  0.00  0.00    +0.000 C 
ATOM     16  C   UNL     1      48.495   9.649  11.852  0.00  0.00    +0.000 A 
ATOM     17  C   UNL     1      49.807  10.069  11.729  0.00  0.00    +0.000 A 
ATOM     18  C   UNL     1      50.771   9.082  11.598  0.00  0.00    +0.000 A 
ATOM     19  N   UNL     1      50.504   7.751  11.583  0.00  0.00    +0.000 NA
ATOM     20  C   UNL     1      49.209   7.380  11.703  0.00  0.00    +0.000 A 
ATOM     21  C   UNL     1      48.185   8.293  11.845  0.00  0.00    +0.000 A 
ENDBRANCH  12  13
ENDBRANCH   5  12
TORSDOF 4
ENDMDL
