MODEL 1
REMARK VINA RESULT:    -7.943      0.000      0.000
REMARK INTER + INTRA:         -11.623
REMARK INTER:                 -10.729
REMARK INTRA:                  -0.895
REMARK UNBOUND:                -0.895
REMARK  Name = 
REMARK  6 active torsions:
REMARK  status: ('A' for Active; 'I' for Inactive)
REMARK    1  A    between atoms: C_2  and  C_4
REMARK    2  A    between atoms: C_7  and  N_8
REMARK    3  A    between atoms: N_8  and  C_9
REMARK    4  A    between atoms: C_9  and  C_10
REMARK    5  A    between atoms: C_13  and  O_14
REMARK    6  A    between atoms: O_14  and  C_15
REMARK                            x       y       z     vdW  Elec       q    Type
REMARK                         _______ _______ _______ _____ _____    ______ ____
ROOT
ATOM      1  N   UNL     1      43.749   4.773   9.917  0.00  0.00    +0.000 N 
ATOM      2  H   UNL     1      43.016   5.283   9.430  0.00  0.00    +0.000 HD
ENDROOT
BRANCH   1   6
ATOM      3  C   UNL     1      46.457   2.592   7.656  0.00  0.00    +0.000 A 
ATOM      4  C   UNL     1      45.501   1.886   8.367  0.00  0.00    +0.000 A 
ATOM      5  C   UNL     1      44.558   2.601   9.104  0.00  0.00    +0.000 A 
ATOM      6  C   UNL     1      44.565   3.998   9.108  0.00  0.00    +0.000 A 
ATOM      7  C   UNL     1      45.583   4.600   8.360  0.00  0.00    +0.000 A 
ATOM      8  N   UNL     1      46.524   3.950   7.628  0.00  0.00    +0.000 NA
BRANCH   3  10
ATOM      9  N   UNL     1      48.502   2.617   6.364  0.00  0.00    +0.000 N 
ATOM     10  C   UNL     1      47.506   1.845   6.893  0.00  0.00    +0.000 C 
ATOM     11  O   UNL     1      47.486   0.632   6.756  0.00  0.00    +0.000 OA
ATOM     12  H   UNL     1      49.261   2.174   5.862  0.00  0.00    +0.000 HD
ATOM     13  H   UNL     1      48.503   3.616   6.525  0.00  0.00    +0.000 HD
ENDBRANCH   3  10
ENDBRANCH   1   6
BRANCH   1  14
ATOM     14  C   UNL     1      43.404   4.404  11.279  0.00  0.00    +0.000 C 
BRANCH  14  15
ATOM     15  C   UNL     1      44.631   4.530  12.152  0.00  0.00    +0.000 A 
ATOM     16  C   UNL     1      45.055   5.772  12.636  0.00  0.00    +0.000 A 
ATOM     17  C   UNL     1      46.167   5.864  13.484  0.00  0.00    +0.000 A 
ATOM     18  C   UNL     1      46.841   4.712  13.888  0.00  0.00    +0.000 A 
ATOM     19  C   UNL     1      46.445   3.477  13.372  0.00  0.00    +0.000 A 
ATOM     20  C   UNL     1      45.347   3.382  12.518  0.00  0.00    +0.000 A 
BRANCH  18  21
ATOM     21  O   UNL     1      47.909   4.653  14.727  0.00  0.00    +0.000 OA
BRANCH  21  22
ATOM     22  C   UNL     1      47.755   4.095  16.024  0.00  0.00    +0.000 C 
ATOM     23  F   UNL     1      48.042   2.779  16.101  0.00  0.00    +0.000 F 
ATOM     24  F   UNL     1      48.587   4.745  16.869  0.00  0.00    +0.000 F 
ATOM     25  F   UNL     1      46.488   4.292  16.448  0.00  0.00    +0.000 F 
ENDBRANCH  21  22
ENDBRANCH  18  21
ENDBRANCH  14  15
ENDBRANCH   1  14
TORSDOF 6
ENDMDL
MODEL 2
REMARK VINA RESULT:    -7.891      1.902      2.392
REMARK INTER + INTRA:         -11.554
REMARK INTER:                 -10.699
REMARK INTRA:                  -0.854
REMARK UNBOUND:                -0.895
REMARK  Name = 
REMARK  6 active torsions:
REMARK  status: ('A' for Active; 'I' for Inactive)
REMARK    1  A    between atoms: C_2  and  C_4
REMARK    2  A    between atoms: C_7  and  N_8
REMARK    3  A    between atoms: N_8  and  C_9
REMARK    4  A    between atoms: C_9  and  C_10
REMARK    5  A    between atoms: C_13  and  O_14
REMARK    6  A    between atoms: O_14  and  C_15
REMARK                            x       y       z     vdW  Elec       q    Type
REMARK                         _______ _______ _______ _____ _____    ______ ____
ROOT
ATOM      1  N   UNL     1      43.768   4.874   9.771  0.00  0.00    +0.000 N 
ATOM      2  H   UNL     1      42.927   5.027   9.219  0.00  0.00    +0.000 HD
ENDROOT
BRANCH   1   6
ATOM      3  C   UNL     1      46.238   2.055   7.994  0.00  0.00    +0.000 A 
ATOM      4  C   UNL     1      46.440   3.384   7.662  0.00  0.00    +0.000 A 
ATOM      5  C   UNL     1      45.645   4.351   8.275  0.00  0.00    +0.000 A 
ATOM      6  C   UNL     1      44.682   3.990   9.220  0.00  0.00    +0.000 A 
ATOM      7  C   UNL     1      44.562   2.617   9.467  0.00  0.00    +0.000 A 
ATOM      8  N   UNL     1      45.309   1.637   8.897  0.00  0.00    +0.000 NA
BRANCH   3  10
ATOM      9  N   UNL     1      46.745  -0.289   7.671  0.00  0.00    +0.000 N 
ATOM     10  C   UNL     1      47.049   0.996   7.316  0.00  0.00    +0.000 C 
ATOM     11  O   UNL     1      47.917   1.251   6.496  0.00  0.00    +0.000 OA
ATOM     12  H   UNL     1      47.232  -1.056   7.229  0.00  0.00    +0.000 HD
ATOM     13  H   UNL     1      45.997  -0.464   8.331  0.00  0.00    +0.000 HD
ENDBRANCH   3  10
ENDBRANCH   1   6
BRANCH   1  14
ATOM     14  C   UNL     1      43.564   5.013  11.203  0.00  0.00    +0.000 C 
BRANCH  14  15
ATOM     15  C   UNL     1      44.889   5.314  11.863  0.00  0.00    +0.000 A 
ATOM     16  C   UNL     1      45.394   4.504  12.886  0.00  0.00    +0.000 A 
ATOM     17  C   UNL     1      46.646   4.771  13.453  0.00  0.00    +0.000 A 
ATOM     18  C   UNL     1      47.424   5.826  12.978  0.00  0.00    +0.000 A 
ATOM     19  C   UNL     1      46.905   6.661  11.987  0.00  0.00    +0.000 A 
ATOM     20  C   UNL     1      45.652   6.406  11.428  0.00  0.00    +0.000 A 
BRANCH  18  21
ATOM     21  O   UNL     1      48.664   6.176  13.413  0.00  0.00    +0.000 OA
BRANCH  21  22
ATOM     22  C   UNL     1      48.812   6.838  14.661  0.00  0.00    +0.000 C 
ATOM     23  F   UNL     1      48.590   6.053  15.735  0.00  0.00    +0.000 F 
ATOM     24  F   UNL     1      50.078   7.303  14.748  0.00  0.00    +0.000 F 
ATOM     25  F   UNL     1      47.972   7.894  14.709  0.00  0.00    +0.000 F 
ENDBRANCH  21  22
ENDBRANCH  18  21
ENDBRANCH  14  15
ENDBRANCH   1  14
TORSDOF 6
ENDMDL
MODEL 3
REMARK VINA RESULT:    -7.592      2.930      3.521
REMARK INTER + INTRA:         -11.150
REMARK INTER:                 -10.115
REMARK INTRA:                  -1.034
REMARK UNBOUND:                -0.895
REMARK  Name = 
REMARK  6 active torsions:
REMARK  status: ('A' for Active; 'I' for Inactive)
REMARK    1  A    between atoms: C_2  and  C_4
REMARK    2  A    between atoms: C_7  and  N_8
REMARK    3  A    between atoms: N_8  and  C_9
REMARK    4  A    between atoms: C_9  and  C_10
REMARK    5  A    between atoms: C_13  and  O_14
REMARK    6  A    between atoms: O_14  and  C_15
REMARK                            x       y       z     vdW  Elec       q    Type
REMARK                         _______ _______ _______ _____ _____    ______ ____
ROOT
ATOM      1  N   UNL     1      43.610   4.493   9.944  0.00  0.00    +0.000 N 
ATOM      2  H   UNL     1      42.697   4.456   9.498  0.00  0.00    +0.000 HD
ENDROOT
BRANCH   1   6
ATOM      3  C   UNL     1      46.372   2.213   7.852  0.00  0.00    +0.000 A 
ATOM      4  C   UNL     1      46.352   3.576   7.610  0.00  0.00    +0.000 A 
ATOM      5  C   UNL     1      45.457   4.367   8.329  0.00  0.00    +0.000 A 
ATOM      6  C   UNL     1      44.614   3.799   9.288  0.00  0.00    +0.000 A 
ATOM      7  C   UNL     1      44.718   2.411   9.439  0.00  0.00    +0.000 A 
ATOM      8  N   UNL     1      45.570   1.598   8.763  0.00  0.00    +0.000 NA
BRANCH   3  10
ATOM      9  N   UNL     1      48.395   1.967   6.549  0.00  0.00    +0.000 N 
ATOM     10  C   UNL     1      47.294   1.339   7.061  0.00  0.00    +0.000 C 
ATOM     11  O   UNL     1      47.091   0.148   6.889  0.00  0.00    +0.000 OA
ATOM     12  H   UNL     1      49.078   1.430   6.030  0.00  0.00    +0.000 HD
ATOM     13  H   UNL     1      48.548   2.949   6.739  0.00  0.00    +0.000 HD
ENDBRANCH   3  10
ENDBRANCH   1   6
BRANCH   1  14
ATOM     14  C   UNL     1      43.554   4.626  11.390  0.00  0.00    +0.000 C 
BRANCH  14  15
ATOM     15  C   UNL     1      44.705   5.488  11.853  0.00  0.00    +0.000 A 
ATOM     16  C   UNL     1      45.795   4.941  12.538  0.00  0.00    +0.000 A 
ATOM     17  C   UNL     1      46.876   5.748  12.915  0.00  0.00    +0.000 A 
ATOM     18  C   UNL     1      46.897   7.101  12.579  0.00  0.00    +0.000 A 
ATOM     19  C   UNL     1      45.791   7.657  11.932  0.00  0.00    +0.000 A 
ATOM     20  C   UNL     1      44.707   6.860  11.565  0.00  0.00    +0.000 A 
BRANCH  18  21
ATOM     21  O   UNL     1      47.890   7.987  12.853  0.00  0.00    +0.000 OA
BRANCH  21  22
ATOM     22  C   UNL     1      48.803   8.361  11.831  0.00  0.00    +0.000 C 
ATOM     23  F   UNL     1      50.086   8.453  12.238  0.00  0.00    +0.000 F 
ATOM     24  F   UNL     1      48.749   7.431  10.851  0.00  0.00    +0.000 F 
ATOM     25  F   UNL     1      48.424   9.547  11.306  0.00  0.00    +0.000 F 
ENDBRANCH  21  22
ENDBRANCH  18  21
ENDBRANCH  14  15
ENDBRANCH   1  14
TORSDOF 6
ENDMDL
MODEL 4
REMARK VINA RESULT:    -7.564      4.408      7.198
REMARK INTER + INTRA:         -11.112
REMARK INTER:                 -10.471
REMARK INTRA:                  -0.640
REMARK UNBOUND:                -0.895
REMARK  Name = 
REMARK  6 active torsions:
REMARK  status: ('A' for Active; 'I' for Inactive)
REMARK    1  A    between atoms: C_2  and  C_4
REMARK    2  A    between atoms: C_7  and  N_8
REMARK    3  A    between atoms: N_8  and  C_9
REMARK    4  A    between atoms: C_9  and  C_10
REMARK    5  A    between atoms: C_13  and  O_14
REMARK    6  A    between atoms: O_14  and  C_15
REMARK                            x       y       z     vdW  Elec       q    Type
REMARK                         _______ _______ _______ _____ _____    ______ ____
ROOT
ATOM      1  N   UNL     1      44.351   3.004  12.448  0.00  0.00    +0.000 N 
ATOM      2  H   UNL     1      43.952   2.415  13.174  0.00  0.00    +0.000 HD
ENDROOT
BRANCH   1   6
ATOM      3  C   UNL     1      47.133   5.868  13.573  0.00  0.00    +0.000 A 
ATOM      4  C   UNL     1      45.889   6.312  13.157  0.00  0.00    +0.000 A 
ATOM      5  C   UNL     1      44.927   5.365  12.809  0.00  0.00    +0.000 A 
ATOM      6  C   UNL     1      45.204   3.998  12.900  0.00  0.00    +0.000 A 
ATOM      7  C   UNL     1      46.497   3.670  13.325  0.00  0.00    +0.000 A 
ATOM      8  N   UNL     1      47.469   4.553  13.672  0.00  0.00    +0.000 NA
BRANCH   3  10
ATOM      9  N   UNL     1      47.778   7.931  14.659  0.00  0.00    +0.000 N 
ATOM     10  C   UNL     1      48.196   6.866  13.910  0.00  0.00    +0.000 C 
ATOM     11  O   UNL     1      49.357   6.742  13.553  0.00  0.00    +0.000 OA
ATOM     12  H   UNL     1      48.451   8.628  14.949  0.00  0.00    +0.000 HD
ATOM     13  H   UNL     1      46.814   7.984  14.963  0.00  0.00    +0.000 HD
ENDBRANCH   3  10
ENDBRANCH   1   6
BRANCH   1  14
ATOM     14  C   UNL     1      43.497   3.162  11.283  0.00  0.00    +0.000 C 
BRANCH  14  15
ATOM     15  C   UNL     1      44.351   3.133  10.037  0.00  0.00    +0.000 A 
ATOM     16  C   UNL     1      44.920   1.943   9.572  0.00  0.00    +0.000 A 
ATOM     17  C   UNL     1      45.668   1.927   8.387  0.00  0.00    +0.000 A 
ATOM     18  C   UNL     1      45.823   3.091   7.636  0.00  0.00    +0.000 A 
ATOM     19  C   UNL     1      45.291   4.288   8.120  0.00  0.00    +0.000 A 
ATOM     20  C   UNL     1      44.556   4.311   9.305  0.00  0.00    +0.000 A 
BRANCH  18  21
ATOM     21  O   UNL     1      46.492   3.210   6.459  0.00  0.00    +0.000 OA
BRANCH  21  22
ATOM     22  C   UNL     1      47.513   2.279   6.131  0.00  0.00    +0.000 C 
ATOM     23  F   UNL     1      47.136   0.987   6.221  0.00  0.00    +0.000 F 
ATOM     24  F   UNL     1      47.902   2.504   4.856  0.00  0.00    +0.000 F 
ATOM     25  F   UNL     1      48.578   2.481   6.937  0.00  0.00    +0.000 F 
ENDBRANCH  21  22
ENDBRANCH  18  21
ENDBRANCH  14  15
ENDBRANCH   1  14
TORSDOF 6
ENDMDL
MODEL 5
REMARK VINA RESULT:    -6.968      4.749      7.565
REMARK INTER + INTRA:         -10.307
REMARK INTER:                  -9.547
REMARK INTRA:                  -0.759
REMARK UNBOUND:                -0.895
REMARK  Name = 
REMARK  6 active torsions:
REMARK  status: ('A' for Active; 'I' for Inactive)
REMARK    1  A    between atoms: C_2  and  C_4
REMARK    2  A    between atoms: C_7  and  N_8
REMARK    3  A    between atoms: N_8  and  C_9
REMARK    4  A    between atoms: C_9  and  C_10
REMARK    5  A    between atoms: C_13  and  O_14
REMARK    6  A    between atoms: O_14  and  C_15
REMARK                            x       y       z     vdW  Elec       q    Type
REMARK                         _______ _______ _______ _____ _____    ______ ____
ROOT
ATOM      1  N   UNL     1      45.574   3.759  13.074  0.00  0.00    +0.000 N 
ATOM      2  H   UNL     1      45.458   2.877  13.566  0.00  0.00    +0.000 HD
ENDROOT
BRANCH   1   6
ATOM      3  C   UNL     1      48.380   6.217  14.887  0.00  0.00    +0.000 A 
ATOM      4  C   UNL     1      47.821   6.652  13.697  0.00  0.00    +0.000 A 
ATOM      5  C   UNL     1      46.850   5.859  13.089  0.00  0.00    +0.000 A 
ATOM      6  C   UNL     1      46.433   4.663  13.679  0.00  0.00    +0.000 A 
ATOM      7  C   UNL     1      47.075   4.323  14.876  0.00  0.00    +0.000 A 
ATOM      8  N   UNL     1      48.026   5.058  15.506  0.00  0.00    +0.000 NA
BRANCH   3  10
ATOM      9  N   UNL     1      49.366   7.140  16.895  0.00  0.00    +0.000 N 
ATOM     10  C   UNL     1      49.456   7.031  15.535  0.00  0.00    +0.000 C 
ATOM     11  O   UNL     1      50.359   7.556  14.903  0.00  0.00    +0.000 OA
ATOM     12  H   UNL     1      50.077   7.649  17.401  0.00  0.00    +0.000 HD
ATOM     13  H   UNL     1      48.621   6.665  17.389  0.00  0.00    +0.000 HD
ENDBRANCH   3  10
ENDBRANCH   1   6
BRANCH   1  14
ATOM     14  C   UNL     1      44.407   4.165  12.311  0.00  0.00    +0.000 C 
BRANCH  14  15
ATOM     15  C   UNL     1      44.690   3.983  10.838  0.00  0.00    +0.000 A 
ATOM     16  C   UNL     1      45.306   4.988  10.084  0.00  0.00    +0.000 A 
ATOM     17  C   UNL     1      45.605   4.782   8.732  0.00  0.00    +0.000 A 
ATOM     18  C   UNL     1      45.328   3.556   8.128  0.00  0.00    +0.000 A 
ATOM     19  C   UNL     1      44.676   2.567   8.867  0.00  0.00    +0.000 A 
ATOM     20  C   UNL     1      44.364   2.772  10.210  0.00  0.00    +0.000 A 
BRANCH  18  21
ATOM     21  O   UNL     1      45.593   3.211   6.840  0.00  0.00    +0.000 OA
BRANCH  21  22
ATOM     22  C   UNL     1      46.847   2.633   6.509  0.00  0.00    +0.000 C 
ATOM     23  F   UNL     1      47.883   3.100   7.236  0.00  0.00    +0.000 F 
ATOM     24  F   UNL     1      46.770   1.300   6.717  0.00  0.00    +0.000 F 
ATOM     25  F   UNL     1      47.103   2.840   5.199  0.00  0.00    +0.000 F 
ENDBRANCH  21  22
ENDBRANCH  18  21
ENDBRANCH  14  15
ENDBRANCH   1  14
TORSDOF 6
ENDMDL
MODEL 6
REMARK VINA RESULT:    -6.774      4.696      7.571
REMARK INTER + INTRA:         -10.045
REMARK INTER:                  -9.387
REMARK INTRA:                  -0.657
REMARK UNBOUND:                -0.895
REMARK  Name = 
REMARK  6 active torsions:
REMARK  status: ('A' for Active; 'I' for Inactive)
REMARK    1  A    between atoms: C_2  and  C_4
REMARK    2  A    between atoms: C_7  and  N_8
REMARK    3  A    between atoms: N_8  and  C_9
REMARK    4  A    between atoms: C_9  and  C_10
REMARK    5  A    between atoms: C_13  and  O_14
REMARK    6  A    between atoms: O_14  and  C_15
REMARK                            x       y       z     vdW  Elec       q    Type
REMARK                         _______ _______ _______ _____ _____    ______ ____
ROOT
ATOM      1  N   UNL     1      46.321   5.732  13.303  0.00  0.00    +0.000 N 
ATOM      2  H   UNL     1      46.948   6.097  12.590  0.00  0.00    +0.000 HD
ENDROOT
BRANCH   1   6
ATOM      3  C   UNL     1      48.376   3.486  16.121  0.00  0.00    +0.000 A 
ATOM      4  C   UNL     1      48.295   4.853  16.327  0.00  0.00    +0.000 A 
ATOM      5  C   UNL     1      47.578   5.623  15.411  0.00  0.00    +0.000 A 
ATOM      6  C   UNL     1      46.937   5.024  14.323  0.00  0.00    +0.000 A 
ATOM      7  C   UNL     1      47.096   3.638  14.214  0.00  0.00    +0.000 A 
ATOM      8  N   UNL     1      47.784   2.846  15.076  0.00  0.00    +0.000 NA
BRANCH   3  10
ATOM      9  N   UNL     1      48.978   2.913  18.393  0.00  0.00    +0.000 N 
ATOM     10  C   UNL     1      49.176   2.647  17.066  0.00  0.00    +0.000 C 
ATOM     11  O   UNL     1      49.945   1.777  16.689  0.00  0.00    +0.000 OA
ATOM     12  H   UNL     1      49.463   2.362  19.088  0.00  0.00    +0.000 HD
ATOM     13  H   UNL     1      48.309   3.620  18.669  0.00  0.00    +0.000 HD
ENDBRANCH   3  10
ENDBRANCH   1   6
BRANCH   1  14
ATOM     14  C   UNL     1      44.992   5.415  12.810  0.00  0.00    +0.000 C 
BRANCH  14  15
ATOM     15  C   UNL     1      45.106   4.818  11.427  0.00  0.00    +0.000 A 
ATOM     16  C   UNL     1      44.712   3.501  11.168  0.00  0.00    +0.000 A 
ATOM     17  C   UNL     1      44.779   2.979   9.870  0.00  0.00    +0.000 A 
ATOM     18  C   UNL     1      45.204   3.780   8.811  0.00  0.00    +0.000 A 
ATOM     19  C   UNL     1      45.638   5.081   9.074  0.00  0.00    +0.000 A 
ATOM     20  C   UNL     1      45.584   5.600  10.367  0.00  0.00    +0.000 A 
BRANCH  18  21
ATOM     21  O   UNL     1      45.288   3.415   7.504  0.00  0.00    +0.000 OA
BRANCH  21  22
ATOM     22  C   UNL     1      46.476   2.809   7.016  0.00  0.00    +0.000 C 
ATOM     23  F   UNL     1      47.602   3.508   7.272  0.00  0.00    +0.000 F 
ATOM     24  F   UNL     1      46.606   1.597   7.600  0.00  0.00    +0.000 F 
ATOM     25  F   UNL     1      46.370   2.624   5.683  0.00  0.00    +0.000 F 
ENDBRANCH  21  22
ENDBRANCH  18  21
ENDBRANCH  14  15
ENDBRANCH   1  14
TORSDOF 6
ENDMDL
MODEL 7
REMARK VINA RESULT:    -6.384      5.081      8.344
REMARK INTER + INTRA:          -9.518
REMARK INTER:                  -8.998
REMARK INTRA:                  -0.520
REMARK UNBOUND:                -0.895
REMARK  Name = 
REMARK  6 active torsions:
REMARK  status: ('A' for Active; 'I' for Inactive)
REMARK    1  A    between atoms: C_2  and  C_4
REMARK    2  A    between atoms: C_7  and  N_8
REMARK    3  A    between atoms: N_8  and  C_9
REMARK    4  A    between atoms: C_9  and  C_10
REMARK    5  A    between atoms: C_13  and  O_14
REMARK    6  A    between atoms: O_14  and  C_15
REMARK                            x       y       z     vdW  Elec       q    Type
REMARK                         _______ _______ _______ _____ _____    ______ ____
ROOT
ATOM      1  N   UNL     1      46.931   4.316  14.079  0.00  0.00    +0.000 N 
ATOM      2  H   UNL     1      47.132   3.459  13.570  0.00  0.00    +0.000 HD
ENDROOT
BRANCH   1   6
ATOM      3  C   UNL     1      48.206   4.734  18.004  0.00  0.00    +0.000 A 
ATOM      4  C   UNL     1      47.535   3.570  17.669  0.00  0.00    +0.000 A 
ATOM      5  C   UNL     1      47.130   3.392  16.347  0.00  0.00    +0.000 A 
ATOM      6  C   UNL     1      47.414   4.358  15.378  0.00  0.00    +0.000 A 
ATOM      7  C   UNL     1      48.089   5.495  15.836  0.00  0.00    +0.000 A 
ATOM      8  N   UNL     1      48.503   5.716  17.110  0.00  0.00    +0.000 NA
BRANCH   3  10
ATOM      9  N   UNL     1      48.574   3.860  20.230  0.00  0.00    +0.000 N 
ATOM     10  C   UNL     1      48.612   4.965  19.426  0.00  0.00    +0.000 C 
ATOM     11  O   UNL     1      48.964   6.057  19.843  0.00  0.00    +0.000 OA
ATOM     12  H   UNL     1      48.866   3.938  21.195  0.00  0.00    +0.000 HD
ATOM     13  H   UNL     1      48.308   2.964  19.841  0.00  0.00    +0.000 HD
ENDBRANCH   3  10
ENDBRANCH   1   6
BRANCH   1  14
ATOM     14  C   UNL     1      45.696   4.964  13.673  0.00  0.00    +0.000 C 
BRANCH  14  15
ATOM     15  C   UNL     1      45.490   4.753  12.191  0.00  0.00    +0.000 A 
ATOM     16  C   UNL     1      45.818   5.744  11.261  0.00  0.00    +0.000 A 
ATOM     17  C   UNL     1      45.667   5.512   9.888  0.00  0.00    +0.000 A 
ATOM     18  C   UNL     1      45.222   4.273   9.429  0.00  0.00    +0.000 A 
ATOM     19  C   UNL     1      44.854   3.296  10.357  0.00  0.00    +0.000 A 
ATOM     20  C   UNL     1      44.991   3.528  11.725  0.00  0.00    +0.000 A 
BRANCH  18  21
ATOM     21  O   UNL     1      45.060   3.902   8.131  0.00  0.00    +0.000 OA
BRANCH  21  22
ATOM     22  C   UNL     1      46.165   3.390   7.401  0.00  0.00    +0.000 C 
ATOM     23  F   UNL     1      45.887   3.076   6.119  0.00  0.00    +0.000 F 
ATOM     24  F   UNL     1      47.140   4.326   7.391  0.00  0.00    +0.000 F 
ATOM     25  F   UNL     1      46.644   2.292   8.027  0.00  0.00    +0.000 F 
ENDBRANCH  21  22
ENDBRANCH  18  21
ENDBRANCH  14  15
ENDBRANCH   1  14
TORSDOF 6
ENDMDL
MODEL 8
REMARK VINA RESULT:    -5.607      5.263      8.024
REMARK INTER + INTRA:          -8.468
REMARK INTER:                  -7.695
REMARK INTRA:                  -0.773
REMARK UNBOUND:                -0.895
REMARK  Name = 
REMARK  6 active torsions:
REMARK  status: ('A' for Active; 'I' for Inactive)
REMARK    1  A    between atoms: C_2  and  C_4
REMARK    2  A    between atoms: C_7  and  N_8
REMARK    3  A    between atoms: N_8  and  C_9
REMARK    4  A    between atoms: C_9  and  C_10
REMARK    5  A    between atoms: C_13  and  O_14
REMARK    6  A    between atoms: O_14  and  C_15
REMARK                            x       y       z     vdW  Elec       q    Type
REMARK                         _______ _______ _______ _____ _____    ______ ____
ROOT
ATOM      1  N   UNL     1      48.256   6.999  15.829  0.00  0.00    +0.000 N 
ATOM      2  H   UNL     1      47.901   7.712  16.461  0.00  0.00    +0.000 HD
ENDROOT
BRANCH   1   6
ATOM      3  C   UNL     1      50.565   3.898  17.330  0.00  0.00    +0.000 A 
ATOM      4  C   UNL     1      51.166   5.138  17.200  0.00  0.00    +0.000 A 
ATOM      5  C   UNL     1      50.398   6.203  16.731  0.00  0.00    +0.000 A 
ATOM      6  C   UNL     1      49.047   6.028  16.423  0.00  0.00    +0.000 A 
ATOM      7  C   UNL     1      48.553   4.728  16.586  0.00  0.00    +0.000 A 
ATOM      8  N   UNL     1      49.259   3.659  17.036  0.00  0.00    +0.000 NA
BRANCH   3  10
ATOM      9  N   UNL     1      50.840   1.502  17.529  0.00  0.00    +0.000 N 
ATOM     10  C   UNL     1      51.381   2.730  17.789  0.00  0.00    +0.000 C 
ATOM     11  O   UNL     1      52.460   2.856  18.348  0.00  0.00    +0.000 OA
ATOM     12  H   UNL     1      51.353   0.669  17.783  0.00  0.00    +0.000 HD
ATOM     13  H   UNL     1      49.959   1.436  17.035  0.00  0.00    +0.000 HD
ENDBRANCH   3  10
ENDBRANCH   1   6
BRANCH   1  14
ATOM     14  C   UNL     1      48.464   7.468  14.470  0.00  0.00    +0.000 C 
BRANCH  14  15
ATOM     15  C   UNL     1      47.327   6.984  13.600  0.00  0.00    +0.000 A 
ATOM     16  C   UNL     1      47.181   5.631  13.277  0.00  0.00    +0.000 A 
ATOM     17  C   UNL     1      46.093   5.195  12.511  0.00  0.00    +0.000 A 
ATOM     18  C   UNL     1      45.119   6.100  12.092  0.00  0.00    +0.000 A 
ATOM     19  C   UNL     1      45.285   7.457  12.377  0.00  0.00    +0.000 A 
ATOM     20  C   UNL     1      46.373   7.898  13.130  0.00  0.00    +0.000 A 
BRANCH  18  21
ATOM     21  O   UNL     1      44.002   5.811  11.373  0.00  0.00    +0.000 OA
BRANCH  21  22
ATOM     22  C   UNL     1      42.858   5.286  12.032  0.00  0.00    +0.000 C 
ATOM     23  F   UNL     1      41.705   5.922  11.734  0.00  0.00    +0.000 F 
ATOM     24  F   UNL     1      42.716   3.991  11.671  0.00  0.00    +0.000 F 
ATOM     25  F   UNL     1      43.050   5.332  13.367  0.00  0.00    +0.000 F 
ENDBRANCH  21  22
ENDBRANCH  18  21
ENDBRANCH  14  15
ENDBRANCH   1  14
TORSDOF 6
ENDMDL
MODEL 9
REMARK VINA RESULT:    -5.516      5.345      8.028
REMARK INTER + INTRA:          -8.345
REMARK INTER:                  -7.641
REMARK INTRA:                  -0.704
REMARK UNBOUND:                -0.895
REMARK  Name = 
REMARK  6 active torsions:
REMARK  status: ('A' for Active; 'I' for Inactive)
REMARK    1  A    between atoms: C_2  and  C_4
REMARK    2  A    between atoms: C_7  and  N_8
REMARK    3  A    between atoms: N_8  and  C_9
REMARK    4  A    between atoms: C_9  and  C_10
REMARK    5  A    between atoms: C_13  and  O_14
REMARK    6  A    between atoms: O_14  and  C_15
REMARK                            x       y       z     vdW  Elec       q    Type
REMARK                         _______ _______ _______ _____ _____    ______ ____
ROOT
ATOM      1  N   UNL     1      47.138   6.147  14.389  0.00  0.00    +0.000 N 
ATOM      2  H   UNL     1      46.367   5.920  15.011  0.00  0.00    +0.000 HD
ENDROOT
BRANCH   1   6
ATOM      3  C   UNL     1      50.813   6.643  16.247  0.00  0.00    +0.000 A 
ATOM      4  C   UNL     1      50.564   7.393  15.110  0.00  0.00    +0.000 A 
ATOM      5  C   UNL     1      49.321   7.269  14.490  0.00  0.00    +0.000 A 
ATOM      6  C   UNL     1      48.342   6.424  15.018  0.00  0.00    +0.000 A 
ATOM      7  C   UNL     1      48.711   5.710  16.163  0.00  0.00    +0.000 A 
ATOM      8  N   UNL     1      49.907   5.794  16.802  0.00  0.00    +0.000 NA
BRANCH   3  10
ATOM      9  N   UNL     1      52.162   6.483  18.248  0.00  0.00    +0.000 N 
ATOM     10  C   UNL     1      52.155   6.727  16.903  0.00  0.00    +0.000 C 
ATOM     11  O   UNL     1      53.178   6.984  16.287  0.00  0.00    +0.000 OA
ATOM     12  H   UNL     1      53.040   6.492  18.751  0.00  0.00    +0.000 HD
ATOM     13  H   UNL     1      51.300   6.241  18.720  0.00  0.00    +0.000 HD
ENDBRANCH   3  10
ENDBRANCH   1   6
BRANCH   1  14
ATOM     14  C   UNL     1      46.726   6.787  13.151  0.00  0.00    +0.000 C 
BRANCH  14  15
ATOM     15  C   UNL     1      46.000   5.780  12.291  0.00  0.00    +0.000 A 
ATOM     16  C   UNL     1      45.771   6.014  10.931  0.00  0.00    +0.000 A 
ATOM     17  C   UNL     1      45.139   5.047  10.138  0.00  0.00    +0.000 A 
ATOM     18  C   UNL     1      44.765   3.821  10.687  0.00  0.00    +0.000 A 
ATOM     19  C   UNL     1      44.954   3.602  12.053  0.00  0.00    +0.000 A 
ATOM     20  C   UNL     1      45.571   4.567  12.849  0.00  0.00    +0.000 A 
BRANCH  18  21
ATOM     21  O   UNL     1      44.176   2.787  10.030  0.00  0.00    +0.000 OA
BRANCH  21  22
ATOM     22  C   UNL     1      44.827   2.200   8.913  0.00  0.00    +0.000 C 
ATOM     23  F   UNL     1      46.173   2.181   9.001  0.00  0.00    +0.000 F 
ATOM     24  F   UNL     1      44.406   0.921   8.799  0.00  0.00    +0.000 F 
ATOM     25  F   UNL     1      44.471   2.861   7.790  0.00  0.00    +0.000 F 
ENDBRANCH  21  22
ENDBRANCH  18  21
ENDBRANCH  14  15
ENDBRANCH   1  14
TORSDOF 6
ENDMDL
