MODEL 1
REMARK VINA RESULT:    -8.471      0.000      0.000
REMARK INTER + INTRA:         -13.097
REMARK INTER:                 -12.433
REMARK INTRA:                  -0.664
REMARK UNBOUND:                -0.664
REMARK  Name = 
REMARK  9 active torsions:
REMARK  status: ('A' for Active; 'I' for Inactive)
REMARK    1  A    between atoms: N_1  and  C_2
REMARK    2  A    between atoms: C_2  and  C_3
REMARK    3  A    between atoms: C_3  and  C_4
REMARK    4  A    between atoms: C_7  and  C_8
REMARK    5  A    between atoms: C_8  and  N_9
REMARK    6  A    between atoms: C_14  and  C_15
REMARK    7  A    between atoms: N_17  and  C_18
REMARK    8  A    between atoms: C_18  and  C_19
REMARK    9  A    between atoms: C_19  and  O_20
REMARK                            x       y       z     vdW  Elec       q    Type
REMARK                         _______ _______ _______ _____ _____    ______ ____
ROOT
ATOM      1  N   UNK     1      44.576   5.553  11.288  0.00  0.00    +0.000 N 
ATOM      2  C   UNK     1      44.554   6.929  11.311  0.00  0.00    +0.000 A 
ATOM      3  C   UNK     1      45.320   7.356  12.368  0.00  0.00    +0.000 A 
ATOM      4  C   UNK     1      45.827   6.203  13.019  0.00  0.00    +0.000 A 
ATOM      5  C   UNK     1      46.627   6.019  14.152  0.00  0.00    +0.000 A 
ATOM      6  C   UNK     1      46.905   4.709  14.516  0.00  0.00    +0.000 A 
ATOM      7  N   UNK     1      46.469   3.608  13.846  0.00  0.00    +0.000 NA
ATOM      8  C   UNK     1      45.698   3.788  12.740  0.00  0.00    +0.000 A 
ATOM      9  C   UNK     1      45.363   5.080  12.329  0.00  0.00    +0.000 A 
ENDROOT
BRANCH   6  10
ATOM     10  C   UNK     1      47.732   4.492  15.751  0.00  0.00    +0.000 C 
ATOM     11  O   UNK     1      48.511   5.358  16.149  0.00  0.00    +0.000 OA
ATOM     12  N   UNK     1      47.566   3.290  16.405  0.00  0.00    +0.000 N 
ATOM     13  H   UNK     1      46.904   2.628  16.016  0.00  0.00    +0.000 HD
BRANCH  12  14
ATOM     14  C   UNK     1      48.361   2.954  17.579  0.00  0.00    +0.000 C 
BRANCH  14  15
ATOM     15  C   UNK     1      49.711   2.334  17.212  0.00  0.00    +0.000 C 
BRANCH  15  16
ATOM     16  O   UNK     1      49.627   1.685  15.945  0.00  0.00    +0.000 OA
ATOM     17  H   UNK     1      50.513   1.768  15.549  0.00  0.00    +0.000 HD
ENDBRANCH  15  16
ENDBRANCH  14  15
ENDBRANCH  12  14
ENDBRANCH   6  10
BRANCH   1  18
ATOM     18  C   UNK     1      43.742   4.752  10.392  0.00  0.00    +0.000 C 
BRANCH  18  22
ATOM     19  C   UNK     1      46.114   2.202   7.807  0.00  0.00    +0.000 A 
ATOM     20  C   UNK     1      45.248   1.648   8.758  0.00  0.00    +0.000 A 
ATOM     21  C   UNK     1      44.474   2.469   9.583  0.00  0.00    +0.000 A 
ATOM     22  C   UNK     1      44.549   3.864   9.478  0.00  0.00    +0.000 A 
ATOM     23  C   UNK     1      45.390   4.415   8.500  0.00  0.00    +0.000 A 
ATOM     24  C   UNK     1      46.159   3.594   7.667  0.00  0.00    +0.000 A 
BRANCH  19  25
ATOM     25  C   UNK     1      46.999   1.303   6.974  0.00  0.00    +0.000 C 
BRANCH  25  26
ATOM     26  C   UNK     1      48.316   1.966   6.557  0.00  0.00    +0.000 C 
BRANCH  26  27
ATOM     27  N   UNK     1      48.345   2.204   5.113  0.00  0.00    +0.000 NA
ATOM     28  H   UNK     1      49.275   1.989   4.752  0.00  0.00    +0.000 HD
ATOM     29  H   UNK     1      48.192   3.195   4.923  0.00  0.00    +0.000 HD
ENDBRANCH  26  27
ENDBRANCH  25  26
ENDBRANCH  19  25
ENDBRANCH  18  22
ENDBRANCH   1  18
TORSDOF 9
ENDMDL
MODEL 2
REMARK VINA RESULT:    -6.916      3.146      3.887
REMARK INTER + INTRA:         -10.815
REMARK INTER:                 -10.026
REMARK INTRA:                  -0.788
REMARK UNBOUND:                -0.664
REMARK  Name = 
REMARK  9 active torsions:
REMARK  status: ('A' for Active; 'I' for Inactive)
REMARK    1  A    between atoms: N_1  and  C_2
REMARK    2  A    between atoms: C_2  and  C_3
REMARK    3  A    between atoms: C_3  and  C_4
REMARK    4  A    between atoms: C_7  and  C_8
REMARK    5  A    between atoms: C_8  and  N_9
REMARK    6  A    between atoms: C_14  and  C_15
REMARK    7  A    between atoms: N_17  and  C_18
REMARK    8  A    between atoms: C_18  and  C_19
REMARK    9  A    between atoms: C_19  and  O_20
REMARK                            x       y       z     vdW  Elec       q    Type
REMARK                         _______ _______ _______ _____ _____    ______ ____
ROOT
ATOM      1  N   UNK     1      45.373   5.138  12.410  0.00  0.00    +0.000 N 
ATOM      2  C   UNK     1      45.591   4.114  13.303  0.00  0.00    +0.000 A 
ATOM      3  C   UNK     1      46.703   4.421  14.050  0.00  0.00    +0.000 A 
ATOM      4  C   UNK     1      47.187   5.673  13.596  0.00  0.00    +0.000 A 
ATOM      5  C   UNK     1      48.287   6.459  13.955  0.00  0.00    +0.000 A 
ATOM      6  C   UNK     1      48.464   7.646  13.256  0.00  0.00    +0.000 A 
ATOM      7  N   UNK     1      47.641   8.095  12.270  0.00  0.00    +0.000 NA
ATOM      8  C   UNK     1      46.567   7.334  11.927  0.00  0.00    +0.000 A 
ATOM      9  C   UNK     1      46.342   6.118  12.577  0.00  0.00    +0.000 A 
ENDROOT
BRANCH   6  10
ATOM     10  C   UNK     1      49.661   8.484  13.603  0.00  0.00    +0.000 C 
ATOM     11  O   UNK     1      49.533   9.667  13.916  0.00  0.00    +0.000 OA
ATOM     12  N   UNK     1      50.889   7.860  13.554  0.00  0.00    +0.000 N 
ATOM     13  H   UNK     1      50.912   6.881  13.288  0.00  0.00    +0.000 HD
BRANCH  12  14
ATOM     14  C   UNK     1      52.120   8.595  13.815  0.00  0.00    +0.000 C 
BRANCH  14  15
ATOM     15  C   UNK     1      53.044   8.636  12.596  0.00  0.00    +0.000 C 
BRANCH  15  16
ATOM     16  O   UNK     1      52.697   7.600  11.679  0.00  0.00    +0.000 OA
ATOM     17  H   UNK     1      51.724   7.600  11.639  0.00  0.00    +0.000 HD
ENDBRANCH  15  16
ENDBRANCH  14  15
ENDBRANCH  12  14
ENDBRANCH   6  10
BRANCH   1  18
ATOM     18  C   UNK     1      44.367   5.077  11.350  0.00  0.00    +0.000 C 
BRANCH  18  22
ATOM     19  C   UNK     1      45.832   2.989   7.841  0.00  0.00    +0.000 A 
ATOM     20  C   UNK     1      45.047   2.325   8.793  0.00  0.00    +0.000 A 
ATOM     21  C   UNK     1      44.564   3.001   9.918  0.00  0.00    +0.000 A 
ATOM     22  C   UNK     1      44.856   4.356  10.119  0.00  0.00    +0.000 A 
ATOM     23  C   UNK     1      45.612   5.027   9.146  0.00  0.00    +0.000 A 
ATOM     24  C   UNK     1      46.088   4.354   8.014  0.00  0.00    +0.000 A 
BRANCH  19  25
ATOM     25  C   UNK     1      46.408   2.227   6.670  0.00  0.00    +0.000 C 
BRANCH  25  26
ATOM     26  C   UNK     1      47.862   1.794   6.884  0.00  0.00    +0.000 C 
BRANCH  26  27
ATOM     27  N   UNK     1      48.596   1.789   5.618  0.00  0.00    +0.000 NA
ATOM     28  H   UNK     1      48.273   2.561   5.035  0.00  0.00    +0.000 HD
ATOM     29  H   UNK     1      48.384   0.936   5.099  0.00  0.00    +0.000 HD
ENDBRANCH  26  27
ENDBRANCH  25  26
ENDBRANCH  19  25
ENDBRANCH  18  22
ENDBRANCH   1  18
TORSDOF 9
ENDMDL
MODEL 3
REMARK VINA RESULT:    -6.892      2.402      2.934
REMARK INTER + INTRA:         -10.779
REMARK INTER:                 -10.040
REMARK INTRA:                  -0.739
REMARK UNBOUND:                -0.664
REMARK  Name = 
REMARK  9 active torsions:
REMARK  status: ('A' for Active; 'I' for Inactive)
REMARK    1  A    between atoms: N_1  and  C_2
REMARK    2  A    between atoms: C_2  and  C_3
REMARK    3  A    between atoms: C_3  and  C_4
REMARK    4  A    between atoms: C_7  and  C_8
REMARK    5  A    between atoms: C_8  and  N_9
REMARK    6  A    between atoms: C_14  and  C_15
REMARK    7  A    between atoms: N_17  and  C_18
REMARK    8  A    between atoms: C_18  and  C_19
REMARK    9  A    between atoms: C_19  and  O_20
REMARK                            x       y       z     vdW  Elec       q    Type
REMARK                         _______ _______ _______ _____ _____    ______ ____
ROOT
ATOM      1  N   UNK     1      45.038   6.310  11.800  0.00  0.00    +0.000 N 
ATOM      2  C   UNK     1      44.727   7.625  11.544  0.00  0.00    +0.000 A 
ATOM      3  C   UNK     1      45.594   8.421  12.253  0.00  0.00    +0.000 A 
ATOM      4  C   UNK     1      46.465   7.564  12.973  0.00  0.00    +0.000 A 
ATOM      5  C   UNK     1      47.512   7.801  13.870  0.00  0.00    +0.000 A 
ATOM      6  C   UNK     1      48.137   6.686  14.411  0.00  0.00    +0.000 A 
ATOM      7  N   UNK     1      47.812   5.397  14.120  0.00  0.00    +0.000 NA
ATOM      8  C   UNK     1      46.800   5.168  13.241  0.00  0.00    +0.000 A 
ATOM      9  C   UNK     1      46.115   6.245  12.675  0.00  0.00    +0.000 A 
ENDROOT
BRANCH   6  10
ATOM     10  C   UNK     1      49.238   6.921  15.405  0.00  0.00    +0.000 C 
ATOM     11  O   UNK     1      49.810   5.977  15.948  0.00  0.00    +0.000 OA
ATOM     12  N   UNK     1      49.567   8.234  15.666  0.00  0.00    +0.000 N 
ATOM     13  H   UNK     1      49.050   8.957  15.177  0.00  0.00    +0.000 HD
BRANCH  12  14
ATOM     14  C   UNK     1      50.580   8.576  16.656  0.00  0.00    +0.000 C 
BRANCH  14  15
ATOM     15  C   UNK     1      52.000   8.323  16.148  0.00  0.00    +0.000 C 
BRANCH  15  16
ATOM     16  O   UNK     1      52.520   7.121  16.712  0.00  0.00    +0.000 OA
ATOM     17  H   UNK     1      53.448   7.074  16.421  0.00  0.00    +0.000 HD
ENDBRANCH  15  16
ENDBRANCH  14  15
ENDBRANCH  12  14
ENDBRANCH   6  10
BRANCH   1  18
ATOM     18  C   UNK     1      44.222   5.187  11.338  0.00  0.00    +0.000 C 
BRANCH  18  22
ATOM     19  C   UNK     1      45.868   3.183   7.861  0.00  0.00    +0.000 A 
ATOM     20  C   UNK     1      46.145   4.534   8.106  0.00  0.00    +0.000 A 
ATOM     21  C   UNK     1      45.625   5.178   9.233  0.00  0.00    +0.000 A 
ATOM     22  C   UNK     1      44.814   4.486  10.141  0.00  0.00    +0.000 A 
ATOM     23  C   UNK     1      44.568   3.123   9.914  0.00  0.00    +0.000 A 
ATOM     24  C   UNK     1      45.096   2.476   8.790  0.00  0.00    +0.000 A 
BRANCH  19  25
ATOM     25  C   UNK     1      46.376   2.522   6.601  0.00  0.00    +0.000 C 
BRANCH  25  26
ATOM     26  C   UNK     1      47.646   1.694   6.818  0.00  0.00    +0.000 C 
BRANCH  26  27
ATOM     27  N   UNK     1      48.581   1.872   5.707  0.00  0.00    +0.000 NA
ATOM     28  H   UNK     1      48.634   2.861   5.462  0.00  0.00    +0.000 HD
ATOM     29  H   UNK     1      48.227   1.395   4.878  0.00  0.00    +0.000 HD
ENDBRANCH  26  27
ENDBRANCH  25  26
ENDBRANCH  19  25
ENDBRANCH  18  22
ENDBRANCH   1  18
TORSDOF 9
ENDMDL
MODEL 4
REMARK VINA RESULT:    -6.332      1.663      2.221
REMARK INTER + INTRA:          -9.957
REMARK INTER:                  -9.220
REMARK INTRA:                  -0.738
REMARK UNBOUND:                -0.664
REMARK  Name = 
REMARK  9 active torsions:
REMARK  status: ('A' for Active; 'I' for Inactive)
REMARK    1  A    between atoms: N_1  and  C_2
REMARK    2  A    between atoms: C_2  and  C_3
REMARK    3  A    between atoms: C_3  and  C_4
REMARK    4  A    between atoms: C_7  and  C_8
REMARK    5  A    between atoms: C_8  and  N_9
REMARK    6  A    between atoms: C_14  and  C_15
REMARK    7  A    between atoms: N_17  and  C_18
REMARK    8  A    between atoms: C_18  and  C_19
REMARK    9  A    between atoms: C_19  and  O_20
REMARK                            x       y       z     vdW  Elec       q    Type
REMARK                         _______ _______ _______ _____ _____    ______ ____
ROOT
ATOM      1  N   UNK     1      45.988   6.192  12.541  0.00  0.00    +0.000 N 
ATOM      2  C   UNK     1      46.625   7.400  12.367  0.00  0.00    +0.000 A 
ATOM      3  C   UNK     1      47.587   7.524  13.340  0.00  0.00    +0.000 A 
ATOM      4  C   UNK     1      47.536   6.355  14.141  0.00  0.00    +0.000 A 
ATOM      5  C   UNK     1      48.243   5.942  15.276  0.00  0.00    +0.000 A 
ATOM      6  C   UNK     1      47.892   4.714  15.819  0.00  0.00    +0.000 A 
ATOM      7  N   UNK     1      46.931   3.891  15.319  0.00  0.00    +0.000 NA
ATOM      8  C   UNK     1      46.250   4.289  14.212  0.00  0.00    +0.000 A 
ATOM      9  C   UNK     1      46.538   5.524  13.626  0.00  0.00    +0.000 A 
ENDROOT
BRANCH   6  10
ATOM     10  C   UNK     1      48.615   4.272  17.059  0.00  0.00    +0.000 C 
ATOM     11  O   UNK     1      48.080   3.509  17.863  0.00  0.00    +0.000 OA
ATOM     12  N   UNK     1      49.892   4.759  17.238  0.00  0.00    +0.000 N 
ATOM     13  H   UNK     1      50.264   5.382  16.530  0.00  0.00    +0.000 HD
BRANCH  12  14
ATOM     14  C   UNK     1      50.660   4.440  18.435  0.00  0.00    +0.000 C 
BRANCH  14  15
ATOM     15  C   UNK     1      51.858   3.537  18.136  0.00  0.00    +0.000 C 
BRANCH  15  16
ATOM     16  O   UNK     1      51.438   2.178  18.029  0.00  0.00    +0.000 OA
ATOM     17  H   UNK     1      51.431   1.834  18.940  0.00  0.00    +0.000 HD
ENDBRANCH  15  16
ENDBRANCH  14  15
ENDBRANCH  12  14
ENDBRANCH   6  10
BRANCH   1  18
ATOM     18  C   UNK     1      44.802   5.795  11.782  0.00  0.00    +0.000 C 
BRANCH  18  22
ATOM     19  C   UNK     1      45.697   3.410   8.271  0.00  0.00    +0.000 A 
ATOM     20  C   UNK     1      46.100   4.749   8.348  0.00  0.00    +0.000 A 
ATOM     21  C   UNK     1      45.822   5.515   9.484  0.00  0.00    +0.000 A 
ATOM     22  C   UNK     1      45.134   4.960  10.570  0.00  0.00    +0.000 A 
ATOM     23  C   UNK     1      44.764   3.609  10.506  0.00  0.00    +0.000 A 
ATOM     24  C   UNK     1      45.048   2.838   9.372  0.00  0.00    +0.000 A 
BRANCH  19  25
ATOM     25  C   UNK     1      45.937   2.617   7.007  0.00  0.00    +0.000 C 
BRANCH  25  26
ATOM     26  C   UNK     1      47.392   2.664   6.529  0.00  0.00    +0.000 C 
BRANCH  26  27
ATOM     27  N   UNK     1      48.087   1.418   6.850  0.00  0.00    +0.000 NA
ATOM     28  H   UNK     1      47.649   0.645   6.349  0.00  0.00    +0.000 HD
ATOM     29  H   UNK     1      47.978   1.207   7.843  0.00  0.00    +0.000 HD
ENDBRANCH  26  27
ENDBRANCH  25  26
ENDBRANCH  19  25
ENDBRANCH  18  22
ENDBRANCH   1  18
TORSDOF 9
ENDMDL
MODEL 5
REMARK VINA RESULT:    -5.618      3.860      8.625
REMARK INTER + INTRA:          -8.909
REMARK INTER:                  -8.033
REMARK INTRA:                  -0.876
REMARK UNBOUND:                -0.664
REMARK  Name = 
REMARK  9 active torsions:
REMARK  status: ('A' for Active; 'I' for Inactive)
REMARK    1  A    between atoms: N_1  and  C_2
REMARK    2  A    between atoms: C_2  and  C_3
REMARK    3  A    between atoms: C_3  and  C_4
REMARK    4  A    between atoms: C_7  and  C_8
REMARK    5  A    between atoms: C_8  and  N_9
REMARK    6  A    between atoms: C_14  and  C_15
REMARK    7  A    between atoms: N_17  and  C_18
REMARK    8  A    between atoms: C_18  and  C_19
REMARK    9  A    between atoms: C_19  and  O_20
REMARK                            x       y       z     vdW  Elec       q    Type
REMARK                         _______ _______ _______ _____ _____    ______ ____
ROOT
ATOM      1  N   UNK     1      48.745   8.907  13.385  0.00  0.00    +0.000 N 
ATOM      2  C   UNK     1      49.821   8.474  12.644  0.00  0.00    +0.000 A 
ATOM      3  C   UNK     1      49.371   7.564  11.719  0.00  0.00    +0.000 A 
ATOM      4  C   UNK     1      47.972   7.429  11.901  0.00  0.00    +0.000 A 
ATOM      5  C   UNK     1      46.999   6.637  11.280  0.00  0.00    +0.000 A 
ATOM      6  C   UNK     1      45.699   6.757  11.753  0.00  0.00    +0.000 A 
ATOM      7  N   UNK     1      45.313   7.592  12.755  0.00  0.00    +0.000 NA
ATOM      8  C   UNK     1      46.257   8.368  13.352  0.00  0.00    +0.000 A 
ATOM      9  C   UNK     1      47.588   8.282  12.939  0.00  0.00    +0.000 A 
ENDROOT
BRANCH   6  10
ATOM     10  C   UNK     1      44.650   5.887  11.124  0.00  0.00    +0.000 C 
ATOM     11  O   UNK     1      43.507   5.849  11.579  0.00  0.00    +0.000 OA
ATOM     12  N   UNK     1      45.033   5.150  10.024  0.00  0.00    +0.000 N 
ATOM     13  H   UNK     1      45.993   5.237   9.708  0.00  0.00    +0.000 HD
BRANCH  12  14
ATOM     14  C   UNK     1      44.109   4.230   9.373  0.00  0.00    +0.000 C 
BRANCH  14  15
ATOM     15  C   UNK     1      44.381   2.771   9.745  0.00  0.00    +0.000 C 
BRANCH  15  16
ATOM     16  O   UNK     1      43.656   2.418  10.921  0.00  0.00    +0.000 OA
ATOM     17  H   UNK     1      43.412   3.262  11.342  0.00  0.00    +0.000 HD
ENDBRANCH  15  16
ENDBRANCH  14  15
ENDBRANCH  12  14
ENDBRANCH   6  10
BRANCH   1  18
ATOM     18  C   UNK     1      48.874   9.763  14.564  0.00  0.00    +0.000 C 
BRANCH  18  22
ATOM     19  C   UNK     1      48.636   7.509  18.262  0.00  0.00    +0.000 A 
ATOM     20  C   UNK     1      49.458   7.078  17.214  0.00  0.00    +0.000 A 
ATOM     21  C   UNK     1      49.545   7.810  16.026  0.00  0.00    +0.000 A 
ATOM     22  C   UNK     1      48.810   8.991  15.858  0.00  0.00    +0.000 A 
ATOM     23  C   UNK     1      48.016   9.440  16.924  0.00  0.00    +0.000 A 
ATOM     24  C   UNK     1      47.935   8.712  18.117  0.00  0.00    +0.000 A 
BRANCH  19  25
ATOM     25  C   UNK     1      48.495   6.668  19.510  0.00  0.00    +0.000 C 
BRANCH  25  26
ATOM     26  C   UNK     1      47.067   6.166  19.746  0.00  0.00    +0.000 C 
BRANCH  26  27
ATOM     27  N   UNK     1      46.607   5.353  18.619  0.00  0.00    +0.000 NA
ATOM     28  H   UNK     1      45.834   5.827  18.152  0.00  0.00    +0.000 HD
ATOM     29  H   UNK     1      46.230   4.469  18.962  0.00  0.00    +0.000 HD
ENDBRANCH  26  27
ENDBRANCH  25  26
ENDBRANCH  19  25
ENDBRANCH  18  22
ENDBRANCH   1  18
TORSDOF 9
ENDMDL
MODEL 6
REMARK VINA RESULT:    -5.573      3.648      8.787
REMARK INTER + INTRA:          -8.844
REMARK INTER:                  -8.214
REMARK INTRA:                  -0.629
REMARK UNBOUND:                -0.664
REMARK  Name = 
REMARK  9 active torsions:
REMARK  status: ('A' for Active; 'I' for Inactive)
REMARK    1  A    between atoms: N_1  and  C_2
REMARK    2  A    between atoms: C_2  and  C_3
REMARK    3  A    between atoms: C_3  and  C_4
REMARK    4  A    between atoms: C_7  and  C_8
REMARK    5  A    between atoms: C_8  and  N_9
REMARK    6  A    between atoms: C_14  and  C_15
REMARK    7  A    between atoms: N_17  and  C_18
REMARK    8  A    between atoms: C_18  and  C_19
REMARK    9  A    between atoms: C_19  and  O_20
REMARK                            x       y       z     vdW  Elec       q    Type
REMARK                         _______ _______ _______ _____ _____    ______ ____
ROOT
ATOM      1  N   UNK     1      48.177   8.265  13.951  0.00  0.00    +0.000 N 
ATOM      2  C   UNK     1      47.782   9.510  13.518  0.00  0.00    +0.000 A 
ATOM      3  C   UNK     1      46.807   9.347  12.564  0.00  0.00    +0.000 A 
ATOM      4  C   UNK     1      46.600   7.954  12.402  0.00  0.00    +0.000 A 
ATOM      5  C   UNK     1      45.768   7.203  11.564  0.00  0.00    +0.000 A 
ATOM      6  C   UNK     1      45.857   5.822  11.669  0.00  0.00    +0.000 A 
ATOM      7  N   UNK     1      46.677   5.161  12.530  0.00  0.00    +0.000 NA
ATOM      8  C   UNK     1      47.479   5.891  13.350  0.00  0.00    +0.000 A 
ATOM      9  C   UNK     1      47.455   7.286  13.282  0.00  0.00    +0.000 A 
ENDROOT
BRANCH   6  10
ATOM     10  C   UNK     1      44.998   5.000  10.752  0.00  0.00    +0.000 C 
ATOM     11  O   UNK     1      43.977   4.452  11.165  0.00  0.00    +0.000 OA
ATOM     12  N   UNK     1      45.412   4.900   9.440  0.00  0.00    +0.000 N 
ATOM     13  H   UNK     1      46.264   5.381   9.176  0.00  0.00    +0.000 HD
BRANCH  12  14
ATOM     14  C   UNK     1      44.684   4.080   8.480  0.00  0.00    +0.000 C 
BRANCH  14  15
ATOM     15  C   UNK     1      45.597   3.502   7.397  0.00  0.00    +0.000 C 
BRANCH  15  16
ATOM     16  O   UNK     1      46.748   4.328   7.230  0.00  0.00    +0.000 OA
ATOM     17  H   UNK     1      47.502   3.790   7.531  0.00  0.00    +0.000 HD
ENDBRANCH  15  16
ENDBRANCH  14  15
ENDBRANCH  12  14
ENDBRANCH   6  10
BRANCH   1  18
ATOM     18  C   UNK     1      49.309   8.050  14.852  0.00  0.00    +0.000 C 
BRANCH  18  22
ATOM     19  C   UNK     1      48.163   6.658  18.797  0.00  0.00    +0.000 A 
ATOM     20  C   UNK     1      48.003   8.002  18.439  0.00  0.00    +0.000 A 
ATOM     21  C   UNK     1      48.361   8.449  17.163  0.00  0.00    +0.000 A 
ATOM     22  C   UNK     1      48.889   7.563  16.216  0.00  0.00    +0.000 A 
ATOM     23  C   UNK     1      49.013   6.210  16.565  0.00  0.00    +0.000 A 
ATOM     24  C   UNK     1      48.647   5.759  17.839  0.00  0.00    +0.000 A 
BRANCH  19  25
ATOM     25  C   UNK     1      47.842   6.204  20.203  0.00  0.00    +0.000 C 
BRANCH  25  26
ATOM     26  C   UNK     1      48.861   5.209  20.767  0.00  0.00    +0.000 C 
BRANCH  26  27
ATOM     27  N   UNK     1      48.310   3.853  20.787  0.00  0.00    +0.000 NA
ATOM     28  H   UNK     1      49.045   3.192  21.036  0.00  0.00    +0.000 HD
ATOM     29  H   UNK     1      48.000   3.593  19.850  0.00  0.00    +0.000 HD
ENDBRANCH  26  27
ENDBRANCH  25  26
ENDBRANCH  19  25
ENDBRANCH  18  22
ENDBRANCH   1  18
TORSDOF 9
ENDMDL
