MODEL 1
REMARK VINA RESULT:    -8.702      0.000      0.000
REMARK INTER + INTRA:         -12.990
REMARK INTER:                 -11.754
REMARK INTRA:                  -1.236
REMARK UNBOUND:                -1.236
REMARK  Name = 
REMARK  7 active torsions:
REMARK  status: ('A' for Active; 'I' for Inactive)
REMARK    1  A    between atoms: C_1  and  O_2
REMARK    2  A    between atoms: O_2  and  C_3
REMARK    3  A    between atoms: C_7  and  C_8
REMARK    4  A    between atoms: C_12  and  C_13
REMARK    5  A    between atoms: C_13  and  N_14
REMARK    6  A    between atoms: N_14  and  C_15
REMARK    7  A    between atoms: C_18  and  C_19
REMARK                            x       y       z     vdW  Elec       q    Type
REMARK                         _______ _______ _______ _____ _____    ______ ____
ROOT
ATOM      1  C   UNL     1      43.811   5.063  11.367  0.00  0.00    +0.000 C 
ATOM      2  C   UNL     1      43.004   6.306  11.045  0.00  0.00    +0.000 C 
ATOM      3  C   UNL     1      42.532   5.406  12.137  0.00  0.00    +0.000 C 
ENDROOT
BRANCH   1   8
ATOM      4  C   UNL     1      47.231   6.520  12.456  0.00  0.00    +0.000 A 
ATOM      5  C   UNL     1      47.617   5.568  13.414  0.00  0.00    +0.000 A 
ATOM      6  C   UNL     1      46.791   4.489  13.732  0.00  0.00    +0.000 A 
ATOM      7  C   UNL     1      45.568   4.327  13.080  0.00  0.00    +0.000 A 
ATOM      8  C   UNL     1      45.136   5.236  12.105  0.00  0.00    +0.000 A 
ATOM      9  C   UNL     1      45.981   6.331  11.831  0.00  0.00    +0.000 A 
BRANCH   4  14
ATOM     10  C   UNL     1      50.247   8.588  11.411  0.00  0.00    +0.000 A 
ATOM     11  C   UNL     1      49.663   9.845  11.466  0.00  0.00    +0.000 A 
ATOM     12  N   UNL     1      48.375  10.075  11.807  0.00  0.00    +0.000 NA
ATOM     13  C   UNL     1      47.632   8.984  12.111  0.00  0.00    +0.000 A 
ATOM     14  C   UNL     1      48.097   7.667  12.105  0.00  0.00    +0.000 A 
ATOM     15  C   UNL     1      49.447   7.495  11.742  0.00  0.00    +0.000 A 
BRANCH  10  17
ATOM     16  C   UNL     1      51.985   7.417  10.292  0.00  0.00    +0.000 C 
ATOM     17  O   UNL     1      51.561   8.548  11.043  0.00  0.00    +0.000 OA
ENDBRANCH  10  17
ENDBRANCH   4  14
ENDBRANCH   1   8
BRANCH   1  18
ATOM     18  N   UNL     1      43.702   3.815  10.605  0.00  0.00    +0.000 N 
ATOM     19  H   UNL     1      43.266   3.042  11.102  0.00  0.00    +0.000 HD
BRANCH  18  20
ATOM     20  C   UNL     1      44.530   3.384   9.557  0.00  0.00    +0.000 A 
ATOM     21  C   UNL     1      44.930   2.061   9.353  0.00  0.00    +0.000 A 
ATOM     22  C   UNL     1      45.871   1.740   8.363  0.00  0.00    +0.000 A 
ATOM     23  C   UNL     1      46.443   2.741   7.568  0.00  0.00    +0.000 A 
ATOM     24  C   UNL     1      46.060   4.068   7.764  0.00  0.00    +0.000 A 
ATOM     25  C   UNL     1      45.118   4.376   8.750  0.00  0.00    +0.000 A 
BRANCH  23  26
ATOM     26  C   UNL     1      47.497   2.373   6.586  0.00  0.00    +0.000 C 
ATOM     27  N   UNL     1      47.532   3.068   5.405  0.00  0.00    +0.000 N 
ATOM     28  O   UNL     1      48.300   1.477   6.811  0.00  0.00    +0.000 OA
ATOM     29  H   UNL     1      46.783   3.660   5.085  0.00  0.00    +0.000 HD
ATOM     30  H   UNL     1      48.222   2.765   4.729  0.00  0.00    +0.000 HD
ENDBRANCH  23  26
ENDBRANCH  18  20
ENDBRANCH   1  18
TORSDOF 6
ENDMDL
MODEL 2
REMARK VINA RESULT:    -8.665      2.799      4.155
REMARK INTER + INTRA:         -12.941
REMARK INTER:                 -12.504
REMARK INTRA:                  -0.436
REMARK UNBOUND:                -1.236
REMARK  Name = 
REMARK  7 active torsions:
REMARK  status: ('A' for Active; 'I' for Inactive)
REMARK    1  A    between atoms: C_1  and  O_2
REMARK    2  A    between atoms: O_2  and  C_3
REMARK    3  A    between atoms: C_7  and  C_8
REMARK    4  A    between atoms: C_12  and  C_13
REMARK    5  A    between atoms: C_13  and  N_14
REMARK    6  A    between atoms: N_14  and  C_15
REMARK    7  A    between atoms: C_18  and  C_19
REMARK                            x       y       z     vdW  Elec       q    Type
REMARK                         _______ _______ _______ _____ _____    ______ ____
ROOT
ATOM      1  C   UNL     1      43.862   5.097  11.445  0.00  0.00    +0.000 C 
ATOM      2  C   UNL     1      42.640   5.415  12.284  0.00  0.00    +0.000 C 
ATOM      3  C   UNL     1      43.131   4.008  12.235  0.00  0.00    +0.000 C 
ENDROOT
BRANCH   1   8
ATOM      4  C   UNL     1      46.975   5.437  13.725  0.00  0.00    +0.000 A 
ATOM      5  C   UNL     1      47.729   6.361  12.985  0.00  0.00    +0.000 A 
ATOM      6  C   UNL     1      47.270   6.854  11.763  0.00  0.00    +0.000 A 
ATOM      7  C   UNL     1      46.032   6.447  11.264  0.00  0.00    +0.000 A 
ATOM      8  C   UNL     1      45.229   5.537  11.965  0.00  0.00    +0.000 A 
ATOM      9  C   UNL     1      45.738   5.036  13.181  0.00  0.00    +0.000 A 
BRANCH   4  14
ATOM     10  C   UNL     1      48.686   5.159  17.111  0.00  0.00    +0.000 A 
ATOM     11  C   UNL     1      48.298   3.867  17.431  0.00  0.00    +0.000 A 
ATOM     12  N   UNL     1      47.526   3.083  16.645  0.00  0.00    +0.000 NA
ATOM     13  C   UNL     1      47.121   3.626  15.471  0.00  0.00    +0.000 A 
ATOM     14  C   UNL     1      47.447   4.909  15.024  0.00  0.00    +0.000 A 
ATOM     15  C   UNL     1      48.254   5.673  15.888  0.00  0.00    +0.000 A 
BRANCH  10  17
ATOM     16  C   UNL     1      49.521   5.236  19.334  0.00  0.00    +0.000 C 
ATOM     17  O   UNL     1      49.465   5.801  18.029  0.00  0.00    +0.000 OA
ENDBRANCH  10  17
ENDBRANCH   4  14
ENDBRANCH   1   8
BRANCH   1  18
ATOM     18  N   UNL     1      43.807   4.885   9.995  0.00  0.00    +0.000 N 
ATOM     19  H   UNL     1      42.919   5.119   9.558  0.00  0.00    +0.000 HD
BRANCH  18  20
ATOM     20  C   UNL     1      44.554   3.966   9.241  0.00  0.00    +0.000 A 
ATOM     21  C   UNL     1      44.547   2.583   9.439  0.00  0.00    +0.000 A 
ATOM     22  C   UNL     1      45.430   1.753   8.732  0.00  0.00    +0.000 A 
ATOM     23  C   UNL     1      46.347   2.292   7.822  0.00  0.00    +0.000 A 
ATOM     24  C   UNL     1      46.371   3.673   7.618  0.00  0.00    +0.000 A 
ATOM     25  C   UNL     1      45.485   4.490   8.324  0.00  0.00    +0.000 A 
BRANCH  23  26
ATOM     26  C   UNL     1      47.321   1.391   7.153  0.00  0.00    +0.000 C 
ATOM     27  N   UNL     1      48.399   1.969   6.536  0.00  0.00    +0.000 N 
ATOM     28  O   UNL     1      47.167   0.176   7.139  0.00  0.00    +0.000 OA
ATOM     29  H   UNL     1      48.466   2.954   6.340  0.00  0.00    +0.000 HD
ATOM     30  H   UNL     1      49.020   1.342   6.040  0.00  0.00    +0.000 HD
ENDBRANCH  23  26
ENDBRANCH  18  20
ENDBRANCH   1  18
TORSDOF 6
ENDMDL
MODEL 3
REMARK VINA RESULT:    -7.393      3.025      7.375
REMARK INTER + INTRA:         -11.222
REMARK INTER:                 -10.098
REMARK INTRA:                  -1.124
REMARK UNBOUND:                -1.236
REMARK  Name = 
REMARK  7 active torsions:
REMARK  status: ('A' for Active; 'I' for Inactive)
REMARK    1  A    between atoms: C_1  and  O_2
REMARK    2  A    between atoms: O_2  and  C_3
REMARK    3  A    between atoms: C_7  and  C_8
REMARK    4  A    between atoms: C_12  and  C_13
REMARK    5  A    between atoms: C_13  and  N_14
REMARK    6  A    between atoms: N_14  and  C_15
REMARK    7  A    between atoms: C_18  and  C_19
REMARK                            x       y       z     vdW  Elec       q    Type
REMARK                         _______ _______ _______ _____ _____    ______ ____
ROOT
ATOM      1  C   UNL     1      46.234   7.531  12.446  0.00  0.00    +0.000 C 
ATOM      2  C   UNL     1      45.703   8.808  13.067  0.00  0.00    +0.000 C 
ATOM      3  C   UNL     1      46.465   8.895  11.788  0.00  0.00    +0.000 C 
ENDROOT
BRANCH   1   8
ATOM      4  C   UNL     1      44.802   4.724  10.194  0.00  0.00    +0.000 A 
ATOM      5  C   UNL     1      43.431   4.860  10.463  0.00  0.00    +0.000 A 
ATOM      6  C   UNL     1      42.965   5.814  11.369  0.00  0.00    +0.000 A 
ATOM      7  C   UNL     1      43.861   6.669  12.010  0.00  0.00    +0.000 A 
ATOM      8  C   UNL     1      45.240   6.590  11.770  0.00  0.00    +0.000 A 
ATOM      9  C   UNL     1      45.679   5.595  10.873  0.00  0.00    +0.000 A 
BRANCH   4  14
ATOM     10  C   UNL     1      46.356   3.135   7.107  0.00  0.00    +0.000 A 
ATOM     11  C   UNL     1      46.238   1.804   7.480  0.00  0.00    +0.000 A 
ATOM     12  N   UNL     1      45.703   1.383   8.649  0.00  0.00    +0.000 NA
ATOM     13  C   UNL     1      45.261   2.349   9.489  0.00  0.00    +0.000 A 
ATOM     14  C   UNL     1      45.311   3.721   9.232  0.00  0.00    +0.000 A 
ATOM     15  C   UNL     1      45.878   4.095   7.999  0.00  0.00    +0.000 A 
BRANCH  10  17
ATOM     16  C   UNL     1      47.796   2.369   5.380  0.00  0.00    +0.000 C 
ATOM     17  O   UNL     1      46.925   3.372   5.890  0.00  0.00    +0.000 OA
ENDBRANCH  10  17
ENDBRANCH   4  14
ENDBRANCH   1   8
BRANCH   1  18
ATOM     18  N   UNL     1      47.479   6.886  12.877  0.00  0.00    +0.000 N 
ATOM     19  H   UNL     1      48.141   6.684  12.132  0.00  0.00    +0.000 HD
BRANCH  18  20
ATOM     20  C   UNL     1      47.668   6.069  14.002  0.00  0.00    +0.000 A 
ATOM     21  C   UNL     1      46.992   4.868  14.235  0.00  0.00    +0.000 A 
ATOM     22  C   UNL     1      47.141   4.186  15.452  0.00  0.00    +0.000 A 
ATOM     23  C   UNL     1      47.957   4.701  16.467  0.00  0.00    +0.000 A 
ATOM     24  C   UNL     1      48.632   5.903  16.253  0.00  0.00    +0.000 A 
ATOM     25  C   UNL     1      48.482   6.572  15.035  0.00  0.00    +0.000 A 
BRANCH  23  26
ATOM     26  C   UNL     1      48.025   3.993  17.773  0.00  0.00    +0.000 C 
ATOM     27  N   UNL     1      47.230   2.890  17.937  0.00  0.00    +0.000 N 
ATOM     28  O   UNL     1      48.754   4.382  18.676  0.00  0.00    +0.000 OA
ATOM     29  H   UNL     1      46.472   2.652  17.318  0.00  0.00    +0.000 HD
ATOM     30  H   UNL     1      47.251   2.455  18.851  0.00  0.00    +0.000 HD
ENDBRANCH  23  26
ENDBRANCH  18  20
ENDBRANCH   1  18
TORSDOF 6
ENDMDL
MODEL 4
REMARK VINA RESULT:    -6.975      3.268      7.550
REMARK INTER + INTRA:         -10.657
REMARK INTER:                 -10.429
REMARK INTRA:                  -0.229
REMARK UNBOUND:                -1.236
REMARK  Name = 
REMARK  7 active torsions:
REMARK  status: ('A' for Active; 'I' for Inactive)
REMARK    1  A    between atoms: C_1  and  O_2
REMARK    2  A    between atoms: O_2  and  C_3
REMARK    3  A    between atoms: C_7  and  C_8
REMARK    4  A    between atoms: C_12  and  C_13
REMARK    5  A    between atoms: C_13  and  N_14
REMARK    6  A    between atoms: N_14  and  C_15
REMARK    7  A    between atoms: C_18  and  C_19
REMARK                            x       y       z     vdW  Elec       q    Type
REMARK                         _______ _______ _______ _____ _____    ______ ____
ROOT
ATOM      1  C   UNL     1      48.646   8.014  12.642  0.00  0.00    +0.000 C 
ATOM      2  C   UNL     1      49.527   8.870  11.754  0.00  0.00    +0.000 C 
ATOM      3  C   UNL     1      49.737   7.393  11.765  0.00  0.00    +0.000 C 
ENDROOT
BRANCH   1   8
ATOM      4  C   UNL     1      45.499   6.360  11.105  0.00  0.00    +0.000 A 
ATOM      5  C   UNL     1      44.538   7.348  11.373  0.00  0.00    +0.000 A 
ATOM      6  C   UNL     1      44.877   8.517  12.056  0.00  0.00    +0.000 A 
ATOM      7  C   UNL     1      46.192   8.731  12.468  0.00  0.00    +0.000 A 
ATOM      8  C   UNL     1      47.197   7.787  12.217  0.00  0.00    +0.000 A 
ATOM      9  C   UNL     1      46.813   6.604  11.552  0.00  0.00    +0.000 A 
BRANCH   4  14
ATOM     10  C   UNL     1      45.311   3.678   8.413  0.00  0.00    +0.000 A 
ATOM     11  C   UNL     1      44.477   2.786   9.071  0.00  0.00    +0.000 A 
ATOM     12  N   UNL     1      43.978   2.980  10.312  0.00  0.00    +0.000 NA
ATOM     13  C   UNL     1      44.333   4.133  10.929  0.00  0.00    +0.000 A 
ATOM     14  C   UNL     1      45.156   5.118  10.377  0.00  0.00    +0.000 A 
ATOM     15  C   UNL     1      45.642   4.857   9.082  0.00  0.00    +0.000 A 
BRANCH  10  17
ATOM     16  C   UNL     1      47.042   2.802   7.043  0.00  0.00    +0.000 C 
ATOM     17  O   UNL     1      45.720   3.314   7.164  0.00  0.00    +0.000 OA
ENDBRANCH  10  17
ENDBRANCH   4  14
ENDBRANCH   1   8
BRANCH   1  18
ATOM     18  N   UNL     1      48.891   7.828  14.076  0.00  0.00    +0.000 N 
ATOM     19  H   UNL     1      49.667   8.366  14.455  0.00  0.00    +0.000 HD
BRANCH  18  20
ATOM     20  C   UNL     1      48.591   6.696  14.850  0.00  0.00    +0.000 A 
ATOM     21  C   UNL     1      47.715   5.678  14.464  0.00  0.00    +0.000 A 
ATOM     22  C   UNL     1      47.367   4.655  15.359  0.00  0.00    +0.000 A 
ATOM     23  C   UNL     1      47.876   4.639  16.663  0.00  0.00    +0.000 A 
ATOM     24  C   UNL     1      48.747   5.652  17.066  0.00  0.00    +0.000 A 
ATOM     25  C   UNL     1      49.091   6.664  16.166  0.00  0.00    +0.000 A 
BRANCH  23  26
ATOM     26  C   UNL     1      47.421   3.585  17.607  0.00  0.00    +0.000 C 
ATOM     27  N   UNL     1      48.205   3.333  18.701  0.00  0.00    +0.000 N 
ATOM     28  O   UNL     1      46.390   2.953  17.415  0.00  0.00    +0.000 OA
ATOM     29  H   UNL     1      49.149   3.668  18.799  0.00  0.00    +0.000 HD
ATOM     30  H   UNL     1      47.905   2.575  19.302  0.00  0.00    +0.000 HD
ENDBRANCH  23  26
ENDBRANCH  18  20
ENDBRANCH   1  18
TORSDOF 6
ENDMDL
MODEL 5
REMARK VINA RESULT:    -6.727      5.383      8.645
REMARK INTER + INTRA:         -10.322
REMARK INTER:                  -9.665
REMARK INTRA:                  -0.657
REMARK UNBOUND:                -1.236
REMARK  Name = 
REMARK  7 active torsions:
REMARK  status: ('A' for Active; 'I' for Inactive)
REMARK    1  A    between atoms: C_1  and  O_2
REMARK    2  A    between atoms: O_2  and  C_3
REMARK    3  A    between atoms: C_7  and  C_8
REMARK    4  A    between atoms: C_12  and  C_13
REMARK    5  A    between atoms: C_13  and  N_14
REMARK    6  A    between atoms: N_14  and  C_15
REMARK    7  A    between atoms: C_18  and  C_19
REMARK                            x       y       z     vdW  Elec       q    Type
REMARK                         _______ _______ _______ _____ _____    ______ ____
ROOT
ATOM      1  C   UNL     1      48.135   4.520  16.952  0.00  0.00    +0.000 C 
ATOM      2  C   UNL     1      47.196   3.435  17.442  0.00  0.00    +0.000 C 
ATOM      3  C   UNL     1      47.144   4.777  18.091  0.00  0.00    +0.000 C 
ENDROOT
BRANCH   1   8
ATOM      4  C   UNL     1      46.407   5.349  13.586  0.00  0.00    +0.000 A 
ATOM      5  C   UNL     1      47.274   6.337  13.094  0.00  0.00    +0.000 A 
ATOM      6  C   UNL     1      48.382   6.756  13.831  0.00  0.00    +0.000 A 
ATOM      7  C   UNL     1      48.659   6.178  15.070  0.00  0.00    +0.000 A 
ATOM      8  C   UNL     1      47.837   5.178  15.607  0.00  0.00    +0.000 A 
ATOM      9  C   UNL     1      46.709   4.801  14.849  0.00  0.00    +0.000 A 
BRANCH   4  14
ATOM     10  C   UNL     1      44.183   3.382  11.208  0.00  0.00    +0.000 A 
ATOM     11  C   UNL     1      43.003   4.086  11.400  0.00  0.00    +0.000 A 
ATOM     12  N   UNL     1      42.870   5.139  12.239  0.00  0.00    +0.000 NA
ATOM     13  C   UNL     1      43.981   5.506  12.921  0.00  0.00    +0.000 A 
ATOM     14  C   UNL     1      45.230   4.890  12.814  0.00  0.00    +0.000 A 
ATOM     15  C   UNL     1      45.304   3.802  11.924  0.00  0.00    +0.000 A 
BRANCH  10  17
ATOM     16  C   UNL     1      44.889   2.481   9.126  0.00  0.00    +0.000 C 
ATOM     17  O   UNL     1      44.130   2.345  10.322  0.00  0.00    +0.000 OA
ENDBRANCH  10  17
ENDBRANCH   4  14
ENDBRANCH   1   8
BRANCH   1  18
ATOM     18  N   UNL     1      49.535   4.622  17.378  0.00  0.00    +0.000 N 
ATOM     19  H   UNL     1      49.949   5.547  17.280  0.00  0.00    +0.000 HD
BRANCH  18  20
ATOM     20  C   UNL     1      50.496   3.600  17.393  0.00  0.00    +0.000 A 
ATOM     21  C   UNL     1      50.232   2.256  17.117  0.00  0.00    +0.000 A 
ATOM     22  C   UNL     1      51.224   1.280  17.292  0.00  0.00    +0.000 A 
ATOM     23  C   UNL     1      52.496   1.627  17.762  0.00  0.00    +0.000 A 
ATOM     24  C   UNL     1      52.774   2.964  18.050  0.00  0.00    +0.000 A 
ATOM     25  C   UNL     1      51.780   3.930  17.867  0.00  0.00    +0.000 A 
BRANCH  23  26
ATOM     26  C   UNL     1      53.495   0.555  18.013  0.00  0.00    +0.000 C 
ATOM     27  N   UNL     1      53.033  -0.639  18.502  0.00  0.00    +0.000 N 
ATOM     28  O   UNL     1      54.688   0.728  17.803  0.00  0.00    +0.000 OA
ATOM     29  H   UNL     1      52.110  -0.765  18.883  0.00  0.00    +0.000 HD
ATOM     30  H   UNL     1      53.735  -1.336  18.717  0.00  0.00    +0.000 HD
ENDBRANCH  23  26
ENDBRANCH  18  20
ENDBRANCH   1  18
TORSDOF 6
ENDMDL
MODEL 6
REMARK VINA RESULT:    -6.551      3.696      8.481
REMARK INTER + INTRA:         -10.085
REMARK INTER:                  -8.832
REMARK INTRA:                  -1.253
REMARK UNBOUND:                -1.236
REMARK  Name = 
REMARK  7 active torsions:
REMARK  status: ('A' for Active; 'I' for Inactive)
REMARK    1  A    between atoms: C_1  and  O_2
REMARK    2  A    between atoms: O_2  and  C_3
REMARK    3  A    between atoms: C_7  and  C_8
REMARK    4  A    between atoms: C_12  and  C_13
REMARK    5  A    between atoms: C_13  and  N_14
REMARK    6  A    between atoms: N_14  and  C_15
REMARK    7  A    between atoms: C_18  and  C_19
REMARK                            x       y       z     vdW  Elec       q    Type
REMARK                         _______ _______ _______ _____ _____    ______ ____
ROOT
ATOM      1  C   UNL     1      49.231   7.918  12.757  0.00  0.00    +0.000 C 
ATOM      2  C   UNL     1      50.005   9.059  12.126  0.00  0.00    +0.000 C 
ATOM      3  C   UNL     1      50.093   7.704  11.509  0.00  0.00    +0.000 C 
ENDROOT
BRANCH   1   8
ATOM      4  C   UNL     1      45.645   6.581  12.158  0.00  0.00    +0.000 A 
ATOM      5  C   UNL     1      44.921   7.784  12.180  0.00  0.00    +0.000 A 
ATOM      6  C   UNL     1      45.558   9.005  12.407  0.00  0.00    +0.000 A 
ATOM      7  C   UNL     1      46.939   9.051  12.597  0.00  0.00    +0.000 A 
ATOM      8  C   UNL     1      47.716   7.885  12.572  0.00  0.00    +0.000 A 
ATOM      9  C   UNL     1      47.036   6.666  12.370  0.00  0.00    +0.000 A 
BRANCH   4  14
ATOM     10  C   UNL     1      44.319   3.468  10.422  0.00  0.00    +0.000 A 
ATOM     11  C   UNL     1      43.736   2.853  11.520  0.00  0.00    +0.000 A 
ATOM     12  N   UNL     1      43.744   3.361  12.773  0.00  0.00    +0.000 NA
ATOM     13  C   UNL     1      44.368   4.552  12.934  0.00  0.00    +0.000 A 
ATOM     14  C   UNL     1      44.986   5.280  11.913  0.00  0.00    +0.000 A 
ATOM     15  C   UNL     1      44.942   4.698  10.632  0.00  0.00    +0.000 A 
BRANCH  10  17
ATOM     16  C   UNL     1      45.266   1.904   8.905  0.00  0.00    +0.000 C 
ATOM     17  O   UNL     1      44.215   2.805   9.233  0.00  0.00    +0.000 OA
ENDBRANCH  10  17
ENDBRANCH   4  14
ENDBRANCH   1   8
BRANCH   1  18
ATOM     18  N   UNL     1      49.714   7.167  13.920  0.00  0.00    +0.000 N 
ATOM     19  H   UNL     1      50.229   6.317  13.702  0.00  0.00    +0.000 HD
BRANCH  18  20
ATOM     20  C   UNL     1      49.158   7.144  15.208  0.00  0.00    +0.000 A 
ATOM     21  C   UNL     1      49.126   8.235  16.080  0.00  0.00    +0.000 A 
ATOM     22  C   UNL     1      48.675   8.085  17.401  0.00  0.00    +0.000 A 
ATOM     23  C   UNL     1      48.263   6.836  17.879  0.00  0.00    +0.000 A 
ATOM     24  C   UNL     1      48.295   5.734  17.023  0.00  0.00    +0.000 A 
ATOM     25  C   UNL     1      48.741   5.895  15.708  0.00  0.00    +0.000 A 
BRANCH  23  26
ATOM     26  C   UNL     1      47.870   6.699  19.306  0.00  0.00    +0.000 C 
ATOM     27  N   UNL     1      47.026   5.671  19.635  0.00  0.00    +0.000 N 
ATOM     28  O   UNL     1      48.272   7.478  20.160  0.00  0.00    +0.000 OA
ATOM     29  H   UNL     1      46.509   5.136  18.957  0.00  0.00    +0.000 HD
ATOM     30  H   UNL     1      46.729   5.628  20.602  0.00  0.00    +0.000 HD
ENDBRANCH  23  26
ENDBRANCH  18  20
ENDBRANCH   1  18
TORSDOF 6
ENDMDL
MODEL 7
REMARK VINA RESULT:    -6.476      4.053      6.109
REMARK INTER + INTRA:          -9.983
REMARK INTER:                  -8.943
REMARK INTRA:                  -1.040
REMARK UNBOUND:                -1.236
REMARK  Name = 
REMARK  7 active torsions:
REMARK  status: ('A' for Active; 'I' for Inactive)
REMARK    1  A    between atoms: C_1  and  O_2
REMARK    2  A    between atoms: O_2  and  C_3
REMARK    3  A    between atoms: C_7  and  C_8
REMARK    4  A    between atoms: C_12  and  C_13
REMARK    5  A    between atoms: C_13  and  N_14
REMARK    6  A    between atoms: N_14  and  C_15
REMARK    7  A    between atoms: C_18  and  C_19
REMARK                            x       y       z     vdW  Elec       q    Type
REMARK                         _______ _______ _______ _____ _____    ______ ____
ROOT
ATOM      1  C   UNL     1      47.848   8.011  12.594  0.00  0.00    +0.000 C 
ATOM      2  C   UNL     1      48.948   7.658  11.612  0.00  0.00    +0.000 C 
ATOM      3  C   UNL     1      48.564   9.090  11.776  0.00  0.00    +0.000 C 
ENDROOT
BRANCH   1   8
ATOM      4  C   UNL     1      48.767   6.590  16.078  0.00  0.00    +0.000 A 
ATOM      5  C   UNL     1      48.712   7.761  16.850  0.00  0.00    +0.000 A 
ATOM      6  C   UNL     1      48.412   8.994  16.270  0.00  0.00    +0.000 A 
ATOM      7  C   UNL     1      48.139   9.079  14.905  0.00  0.00    +0.000 A 
ATOM      8  C   UNL     1      48.165   7.942  14.086  0.00  0.00    +0.000 A 
ATOM      9  C   UNL     1      48.502   6.717  14.700  0.00  0.00    +0.000 A 
BRANCH   4  14
ATOM     10  C   UNL     1      50.626   3.736  17.772  0.00  0.00    +0.000 A 
ATOM     11  C   UNL     1      49.601   2.801  17.783  0.00  0.00    +0.000 A 
ATOM     12  N   UNL     1      48.360   3.023  17.293  0.00  0.00    +0.000 NA
ATOM     13  C   UNL     1      48.135   4.248  16.762  0.00  0.00    +0.000 A 
ATOM     14  C   UNL     1      49.079   5.275  16.680  0.00  0.00    +0.000 A 
ATOM     15  C   UNL     1      50.352   4.981  17.206  0.00  0.00    +0.000 A 
BRANCH  10  17
ATOM     16  C   UNL     1      52.362   2.115  17.831  0.00  0.00    +0.000 C 
ATOM     17  O   UNL     1      51.814   3.337  18.313  0.00  0.00    +0.000 OA
ENDBRANCH  10  17
ENDBRANCH   4  14
ENDBRANCH   1   8
BRANCH   1  18
ATOM     18  N   UNL     1      46.421   7.904  12.274  0.00  0.00    +0.000 N 
ATOM     19  H   UNL     1      45.839   8.655  12.639  0.00  0.00    +0.000 HD
BRANCH  18  20
ATOM     20  C   UNL     1      45.692   6.733  12.019  0.00  0.00    +0.000 A 
ATOM     21  C   UNL     1      45.115   5.926  13.003  0.00  0.00    +0.000 A 
ATOM     22  C   UNL     1      44.523   4.698  12.667  0.00  0.00    +0.000 A 
ATOM     23  C   UNL     1      44.511   4.247  11.342  0.00  0.00    +0.000 A 
ATOM     24  C   UNL     1      45.090   5.038  10.348  0.00  0.00    +0.000 A 
ATOM     25  C   UNL     1      45.673   6.261  10.692  0.00  0.00    +0.000 A 
BRANCH  23  26
ATOM     26  C   UNL     1      43.949   2.905  11.037  0.00  0.00    +0.000 C 
ATOM     27  N   UNL     1      44.522   2.196  10.015  0.00  0.00    +0.000 N 
ATOM     28  O   UNL     1      43.002   2.449  11.664  0.00  0.00    +0.000 OA
ATOM     29  H   UNL     1      45.154   2.599   9.342  0.00  0.00    +0.000 HD
ATOM     30  H   UNL     1      44.089   1.309   9.788  0.00  0.00    +0.000 HD
ENDBRANCH  23  26
ENDBRANCH  18  20
ENDBRANCH   1  18
TORSDOF 6
ENDMDL
MODEL 8
REMARK VINA RESULT:    -6.415      4.914      8.245
REMARK INTER + INTRA:          -9.902
REMARK INTER:                  -8.459
REMARK INTRA:                  -1.442
REMARK UNBOUND:                -1.236
REMARK  Name = 
REMARK  7 active torsions:
REMARK  status: ('A' for Active; 'I' for Inactive)
REMARK    1  A    between atoms: C_1  and  O_2
REMARK    2  A    between atoms: O_2  and  C_3
REMARK    3  A    between atoms: C_7  and  C_8
REMARK    4  A    between atoms: C_12  and  C_13
REMARK    5  A    between atoms: C_13  and  N_14
REMARK    6  A    between atoms: N_14  and  C_15
REMARK    7  A    between atoms: C_18  and  C_19
REMARK                            x       y       z     vdW  Elec       q    Type
REMARK                         _______ _______ _______ _____ _____    ______ ____
ROOT
ATOM      1  C   UNL     1      49.104   8.455  17.346  0.00  0.00    +0.000 C 
ATOM      2  C   UNL     1      47.894   9.288  17.721  0.00  0.00    +0.000 C 
ATOM      3  C   UNL     1      49.245   9.919  17.774  0.00  0.00    +0.000 C 
ENDROOT
BRANCH   1   8
ATOM      4  C   UNL     1      48.494   7.157  13.747  0.00  0.00    +0.000 A 
ATOM      5  C   UNL     1      49.722   7.485  13.150  0.00  0.00    +0.000 A 
ATOM      6  C   UNL     1      50.725   8.134  13.872  0.00  0.00    +0.000 A 
ATOM      7  C   UNL     1      50.528   8.450  15.216  0.00  0.00    +0.000 A 
ATOM      8  C   UNL     1      49.329   8.135  15.870  0.00  0.00    +0.000 A 
ATOM      9  C   UNL     1      48.326   7.508  15.102  0.00  0.00    +0.000 A 
BRANCH   4  14
ATOM     10  C   UNL     1      45.656   4.790  12.849  0.00  0.00    +0.000 A 
ATOM     11  C   UNL     1      45.442   5.211  11.545  0.00  0.00    +0.000 A 
ATOM     12  N   UNL     1      46.137   6.200  10.938  0.00  0.00    +0.000 NA
ATOM     13  C   UNL     1      47.100   6.799  11.679  0.00  0.00    +0.000 A 
ATOM     14  C   UNL     1      47.423   6.466  12.997  0.00  0.00    +0.000 A 
ATOM     15  C   UNL     1      46.665   5.428  13.571  0.00  0.00    +0.000 A 
BRANCH  10  17
ATOM     16  C   UNL     1      43.499   3.795  12.869  0.00  0.00    +0.000 C 
ATOM     17  O   UNL     1      44.856   3.778  13.295  0.00  0.00    +0.000 OA
ENDBRANCH  10  17
ENDBRANCH   4  14
ENDBRANCH   1   8
BRANCH   1  18
ATOM     18  N   UNL     1      49.756   7.523  18.272  0.00  0.00    +0.000 N 
ATOM     19  H   UNL     1      50.423   7.947  18.912  0.00  0.00    +0.000 HD
BRANCH  18  20
ATOM     20  C   UNL     1      49.994   6.154  18.074  0.00  0.00    +0.000 A 
ATOM     21  C   UNL     1      51.232   5.603  17.736  0.00  0.00    +0.000 A 
ATOM     22  C   UNL     1      51.349   4.241  17.421  0.00  0.00    +0.000 A 
ATOM     23  C   UNL     1      50.225   3.406  17.423  0.00  0.00    +0.000 A 
ATOM     24  C   UNL     1      48.979   3.943  17.751  0.00  0.00    +0.000 A 
ATOM     25  C   UNL     1      48.875   5.300  18.068  0.00  0.00    +0.000 A 
BRANCH  23  26
ATOM     26  C   UNL     1      50.374   1.988  17.004  0.00  0.00    +0.000 C 
ATOM     27  N   UNL     1      51.157   1.177  17.782  0.00  0.00    +0.000 N 
ATOM     28  O   UNL     1      49.829   1.555  15.996  0.00  0.00    +0.000 OA
ATOM     29  H   UNL     1      51.784   1.521  18.491  0.00  0.00    +0.000 HD
ATOM     30  H   UNL     1      51.289   0.229  17.450  0.00  0.00    +0.000 HD
ENDBRANCH  23  26
ENDBRANCH  18  20
ENDBRANCH   1  18
TORSDOF 6
ENDMDL
MODEL 9
REMARK VINA RESULT:    -6.014      4.189      6.470
REMARK INTER + INTRA:          -9.359
REMARK INTER:                  -8.306
REMARK INTRA:                  -1.053
REMARK UNBOUND:                -1.236
REMARK  Name = 
REMARK  7 active torsions:
REMARK  status: ('A' for Active; 'I' for Inactive)
REMARK    1  A    between atoms: C_1  and  O_2
REMARK    2  A    between atoms: O_2  and  C_3
REMARK    3  A    between atoms: C_7  and  C_8
REMARK    4  A    between atoms: C_12  and  C_13
REMARK    5  A    between atoms: C_13  and  N_14
REMARK    6  A    between atoms: N_14  and  C_15
REMARK    7  A    between atoms: C_18  and  C_19
REMARK                            x       y       z     vdW  Elec       q    Type
REMARK                         _______ _______ _______ _____ _____    ______ ____
ROOT
ATOM      1  C   UNL     1      48.036   8.467  13.117  0.00  0.00    +0.000 C 
ATOM      2  C   UNL     1      48.240   9.142  11.774  0.00  0.00    +0.000 C 
ATOM      3  C   UNL     1      47.755   9.961  12.923  0.00  0.00    +0.000 C 
ENDROOT
BRANCH   1   8
ATOM      4  C   UNL     1      50.263   6.967  15.908  0.00  0.00    +0.000 A 
ATOM      5  C   UNL     1      51.527   7.408  15.486  0.00  0.00    +0.000 A 
ATOM      6  C   UNL     1      51.678   8.152  14.314  0.00  0.00    +0.000 A 
ATOM      7  C   UNL     1      50.561   8.490  13.550  0.00  0.00    +0.000 A 
ATOM      8  C   UNL     1      49.272   8.090  13.929  0.00  0.00    +0.000 A 
ATOM      9  C   UNL     1      49.160   7.313  15.101  0.00  0.00    +0.000 A 
BRANCH   4  14
ATOM     10  C   UNL     1      49.114   4.311  18.376  0.00  0.00    +0.000 A 
ATOM     11  C   UNL     1      49.795   4.763  19.497  0.00  0.00    +0.000 A 
ATOM     12  N   UNL     1      50.598   5.851  19.515  0.00  0.00    +0.000 NA
ATOM     13  C   UNL     1      50.723   6.524  18.346  0.00  0.00    +0.000 A 
ATOM     14  C   UNL     1      50.087   6.182  17.150  0.00  0.00    +0.000 A 
ATOM     15  C   UNL     1      49.265   5.041  17.197  0.00  0.00    +0.000 A 
BRANCH  10  17
ATOM     16  C   UNL     1      47.390   2.911  17.532  0.00  0.00    +0.000 C 
ATOM     17  O   UNL     1      48.350   3.192  18.544  0.00  0.00    +0.000 OA
ENDBRANCH  10  17
ENDBRANCH   4  14
ENDBRANCH   1   8
BRANCH   1  18
ATOM     18  N   UNL     1      46.833   7.699  13.454  0.00  0.00    +0.000 N 
ATOM     19  H   UNL     1      46.600   7.676  14.444  0.00  0.00    +0.000 HD
BRANCH  18  20
ATOM     20  C   UNL     1      46.289   6.616  12.747  0.00  0.00    +0.000 A 
ATOM     21  C   UNL     1      45.540   6.730  11.572  0.00  0.00    +0.000 A 
ATOM     22  C   UNL     1      44.917   5.606  11.008  0.00  0.00    +0.000 A 
ATOM     23  C   UNL     1      45.019   4.350  11.617  0.00  0.00    +0.000 A 
ATOM     24  C   UNL     1      45.757   4.221  12.794  0.00  0.00    +0.000 A 
ATOM     25  C   UNL     1      46.378   5.345  13.345  0.00  0.00    +0.000 A 
BRANCH  23  26
ATOM     26  C   UNL     1      44.277   3.200  11.035  0.00  0.00    +0.000 C 
ATOM     27  N   UNL     1      44.942   2.407  10.137  0.00  0.00    +0.000 N 
ATOM     28  O   UNL     1      43.113   2.969  11.334  0.00  0.00    +0.000 OA
ATOM     29  H   UNL     1      45.814   2.665   9.705  0.00  0.00    +0.000 HD
ATOM     30  H   UNL     1      44.403   1.663   9.712  0.00  0.00    +0.000 HD
ENDBRANCH  23  26
ENDBRANCH  18  20
ENDBRANCH   1  18
TORSDOF 6
ENDMDL
