MODEL 1
REMARK VINA RESULT:    -8.546      0.000      0.000
REMARK INTER + INTRA:         -10.354
REMARK INTER:                 -10.544
REMARK INTRA:                   0.190
REMARK UNBOUND:                 0.190
REMARK  Name = 
REMARK  4 active torsions:
REMARK  status: ('A' for Active; 'I' for Inactive)
REMARK    1  A    between atoms: C_2  and  C_3
REMARK    2  A    between atoms: C_6  and  C_7
REMARK    3  A    between atoms: C_7  and  N_8
REMARK    4  A    between atoms: C_12  and  C_13
REMARK                            x       y       z     vdW  Elec       q    Type
REMARK                         _______ _______ _______ _____ _____    ______ ____
ROOT
ATOM      1  N   UNL     1      44.342   5.158   9.814  0.00  0.00    +0.000 N 
ATOM      2  C   UNL     1      45.049   4.165   9.146  0.00  0.00    +0.000 A 
ATOM      3  C   UNL     1      45.104   2.839   9.558  0.00  0.00    +0.000 A 
ATOM      4  C   UNL     1      45.821   1.911   8.795  0.00  0.00    +0.000 A 
ATOM      5  C   UNL     1      46.466   2.332   7.634  0.00  0.00    +0.000 A 
ATOM      6  C   UNL     1      46.365   3.672   7.297  0.00  0.00    +0.000 A 
ATOM      7  N   UNL     1      45.667   4.583   8.020  0.00  0.00    +0.000 NA
ATOM      8  H   UNL     1      44.531   6.042   9.350  0.00  0.00    +0.000 HD
ENDROOT
BRANCH   5   9
ATOM      9  C   UNL     1      47.269   1.443   6.769  0.00  0.00    +0.000 C 
ATOM     10  N   UNL     1      48.270   2.012   6.032  0.00  0.00    +0.000 N 
ATOM     11  O   UNL     1      47.068   0.237   6.731  0.00  0.00    +0.000 OA
ATOM     12  H   UNL     1      48.626   2.941   6.210  0.00  0.00    +0.000 HD
ATOM     13  H   UNL     1      48.867   1.374   5.521  0.00  0.00    +0.000 HD
ENDBRANCH   5   9
BRANCH   1  14
ATOM     14  C   UNL     1      43.947   5.151  11.224  0.00  0.00    +0.000 C 
ATOM     15  C   UNL     1      42.519   5.438  11.646  0.00  0.00    +0.000 C 
ATOM     16  C   UNL     1      42.994   4.024  11.622  0.00  0.00    +0.000 C 
BRANCH  14  20
ATOM     17  C   UNL     1      47.291   5.947  13.909  0.00  0.00    +0.000 A 
ATOM     18  C   UNL     1      46.752   4.662  13.835  0.00  0.00    +0.000 A 
ATOM     19  C   UNL     1      45.662   4.407  12.995  0.00  0.00    +0.000 A 
ATOM     20  C   UNL     1      45.091   5.418  12.202  0.00  0.00    +0.000 A 
ATOM     21  C   UNL     1      45.635   6.710  12.320  0.00  0.00    +0.000 A 
ATOM     22  C   UNL     1      46.723   6.977  13.158  0.00  0.00    +0.000 A 
BRANCH  17  24
ATOM     23  N   UNL     1      49.355   6.405  15.409  0.00  0.00    +0.000 NA
ATOM     24  C   UNL     1      48.430   6.201  14.737  0.00  0.00    +0.000 C 
ENDBRANCH  17  24
ENDBRANCH  14  20
ENDBRANCH   1  14
TORSDOF 4
ENDMDL
MODEL 2
REMARK VINA RESULT:    -7.966      2.981      7.003
REMARK INTER + INTRA:          -9.639
REMARK INTER:                  -9.217
REMARK INTRA:                  -0.422
REMARK UNBOUND:                 0.190
REMARK  Name = 
REMARK  4 active torsions:
REMARK  status: ('A' for Active; 'I' for Inactive)
REMARK    1  A    between atoms: C_2  and  C_3
REMARK    2  A    between atoms: C_6  and  C_7
REMARK    3  A    between atoms: C_7  and  N_8
REMARK    4  A    between atoms: C_12  and  C_13
REMARK                            x       y       z     vdW  Elec       q    Type
REMARK                         _______ _______ _______ _____ _____    ______ ____
ROOT
ATOM      1  N   UNL     1      44.552   5.896  10.978  0.00  0.00    +0.000 N 
ATOM      2  C   UNL     1      45.458   6.560  11.797  0.00  0.00    +0.000 A 
ATOM      3  C   UNL     1      46.648   6.006  12.250  0.00  0.00    +0.000 A 
ATOM      4  C   UNL     1      47.506   6.773  13.046  0.00  0.00    +0.000 A 
ATOM      5  C   UNL     1      47.151   8.081  13.369  0.00  0.00    +0.000 A 
ATOM      6  C   UNL     1      45.945   8.556  12.882  0.00  0.00    +0.000 A 
ATOM      7  N   UNL     1      45.107   7.828  12.102  0.00  0.00    +0.000 NA
ATOM      8  H   UNL     1      43.739   6.493  10.862  0.00  0.00    +0.000 HD
ENDROOT
BRANCH   5   9
ATOM      9  C   UNL     1      47.969   8.970  14.222  0.00  0.00    +0.000 C 
ATOM     10  N   UNL     1      47.518   9.223  15.487  0.00  0.00    +0.000 N 
ATOM     11  O   UNL     1      49.026   9.440  13.824  0.00  0.00    +0.000 OA
ATOM     12  H   UNL     1      46.796   8.677  15.935  0.00  0.00    +0.000 HD
ATOM     13  H   UNL     1      48.139   9.755  16.084  0.00  0.00    +0.000 HD
ENDBRANCH   5   9
BRANCH   1  14
ATOM     14  C   UNL     1      44.411   4.445  10.829  0.00  0.00    +0.000 C 
ATOM     15  C   UNL     1      44.079   3.558  12.014  0.00  0.00    +0.000 C 
ATOM     16  C   UNL     1      42.996   3.908  11.050  0.00  0.00    +0.000 C 
BRANCH  14  20
ATOM     17  C   UNL     1      46.628   2.715   7.496  0.00  0.00    +0.000 A 
ATOM     18  C   UNL     1      46.499   4.100   7.598  0.00  0.00    +0.000 A 
ATOM     19  C   UNL     1      45.767   4.661   8.651  0.00  0.00    +0.000 A 
ATOM     20  C   UNL     1      45.156   3.858   9.631  0.00  0.00    +0.000 A 
ATOM     21  C   UNL     1      45.276   2.465   9.485  0.00  0.00    +0.000 A 
ATOM     22  C   UNL     1      46.004   1.894   8.436  0.00  0.00    +0.000 A 
BRANCH  17  24
ATOM     23  N   UNL     1      48.045   1.675   5.590  0.00  0.00    +0.000 NA
ATOM     24  C   UNL     1      47.409   2.142   6.443  0.00  0.00    +0.000 C 
ENDBRANCH  17  24
ENDBRANCH  14  20
ENDBRANCH   1  14
TORSDOF 4
ENDMDL
MODEL 3
REMARK VINA RESULT:    -7.687      1.636      2.265
REMARK INTER + INTRA:          -9.294
REMARK INTER:                  -8.711
REMARK INTRA:                  -0.583
REMARK UNBOUND:                 0.190
REMARK  Name = 
REMARK  4 active torsions:
REMARK  status: ('A' for Active; 'I' for Inactive)
REMARK    1  A    between atoms: C_2  and  C_3
REMARK    2  A    between atoms: C_6  and  C_7
REMARK    3  A    between atoms: C_7  and  N_8
REMARK    4  A    between atoms: C_12  and  C_13
REMARK                            x       y       z     vdW  Elec       q    Type
REMARK                         _______ _______ _______ _____ _____    ______ ____
ROOT
ATOM      1  N   UNL     1      44.531   3.943  11.306  0.00  0.00    +0.000 N 
ATOM      2  C   UNL     1      45.099   3.685  10.064  0.00  0.00    +0.000 A 
ATOM      3  C   UNL     1      45.628   4.664   9.232  0.00  0.00    +0.000 A 
ATOM      4  C   UNL     1      46.205   4.293   8.012  0.00  0.00    +0.000 A 
ATOM      5  C   UNL     1      46.242   2.947   7.655  0.00  0.00    +0.000 A 
ATOM      6  C   UNL     1      45.689   2.035   8.539  0.00  0.00    +0.000 A 
ATOM      7  N   UNL     1      45.133   2.377   9.728  0.00  0.00    +0.000 NA
ATOM      8  H   UNL     1      44.157   3.070  11.666  0.00  0.00    +0.000 HD
ENDROOT
BRANCH   5   9
ATOM      9  C   UNL     1      46.806   2.448   6.383  0.00  0.00    +0.000 C 
ATOM     10  N   UNL     1      46.957   3.345   5.363  0.00  0.00    +0.000 N 
ATOM     11  O   UNL     1      47.152   1.282   6.252  0.00  0.00    +0.000 OA
ATOM     12  H   UNL     1      46.916   4.345   5.498  0.00  0.00    +0.000 HD
ATOM     13  H   UNL     1      47.431   3.005   4.535  0.00  0.00    +0.000 HD
ENDBRANCH   5   9
BRANCH   1  14
ATOM     14  C   UNL     1      43.963   5.215  11.759  0.00  0.00    +0.000 C 
ATOM     15  C   UNL     1      42.552   5.628  11.386  0.00  0.00    +0.000 C 
ATOM     16  C   UNL     1      42.808   5.089  12.753  0.00  0.00    +0.000 C 
BRANCH  14  20
ATOM     17  C   UNL     1      46.899   8.254  12.838  0.00  0.00    +0.000 A 
ATOM     18  C   UNL     1      45.765   8.614  12.108  0.00  0.00    +0.000 A 
ATOM     19  C   UNL     1      44.833   7.639  11.737  0.00  0.00    +0.000 A 
ATOM     20  C   UNL     1      45.000   6.288  12.090  0.00  0.00    +0.000 A 
ATOM     21  C   UNL     1      46.167   5.950  12.798  0.00  0.00    +0.000 A 
ATOM     22  C   UNL     1      47.107   6.916  13.174  0.00  0.00    +0.000 A 
BRANCH  17  24
ATOM     23  N   UNL     1      48.592  10.070  13.586  0.00  0.00    +0.000 NA
ATOM     24  C   UNL     1      47.834   9.256  13.253  0.00  0.00    +0.000 C 
ENDBRANCH  17  24
ENDBRANCH  14  20
ENDBRANCH   1  14
TORSDOF 4
ENDMDL
MODEL 4
REMARK VINA RESULT:    -7.487      2.863      6.885
REMARK INTER + INTRA:          -9.047
REMARK INTER:                  -8.467
REMARK INTRA:                  -0.580
REMARK UNBOUND:                 0.190
REMARK  Name = 
REMARK  4 active torsions:
REMARK  status: ('A' for Active; 'I' for Inactive)
REMARK    1  A    between atoms: C_2  and  C_3
REMARK    2  A    between atoms: C_6  and  C_7
REMARK    3  A    between atoms: C_7  and  N_8
REMARK    4  A    between atoms: C_12  and  C_13
REMARK                            x       y       z     vdW  Elec       q    Type
REMARK                         _______ _______ _______ _____ _____    ______ ____
ROOT
ATOM      1  N   UNL     1      45.409   5.317  11.637  0.00  0.00    +0.000 N 
ATOM      2  C   UNL     1      46.055   4.923  12.803  0.00  0.00    +0.000 A 
ATOM      3  C   UNL     1      46.358   3.604  13.116  0.00  0.00    +0.000 A 
ATOM      4  C   UNL     1      47.039   3.317  14.305  0.00  0.00    +0.000 A 
ATOM      5  C   UNL     1      47.403   4.361  15.152  0.00  0.00    +0.000 A 
ATOM      6  C   UNL     1      47.060   5.647  14.769  0.00  0.00    +0.000 A 
ATOM      7  N   UNL     1      46.408   5.942  13.616  0.00  0.00    +0.000 NA
ATOM      8  H   UNL     1      45.244   6.318  11.694  0.00  0.00    +0.000 HD
ENDROOT
BRANCH   5   9
ATOM      9  C   UNL     1      48.102   4.170  16.441  0.00  0.00    +0.000 C 
ATOM     10  N   UNL     1      47.397   3.603  17.465  0.00  0.00    +0.000 N 
ATOM     11  O   UNL     1      49.277   4.479  16.581  0.00  0.00    +0.000 OA
ATOM     12  H   UNL     1      46.521   3.117  17.329  0.00  0.00    +0.000 HD
ATOM     13  H   UNL     1      47.920   3.394  18.306  0.00  0.00    +0.000 HD
ENDBRANCH   5   9
BRANCH   1  14
ATOM     14  C   UNL     1      44.544   4.488  10.795  0.00  0.00    +0.000 C 
ATOM     15  C   UNL     1      43.293   3.835  11.349  0.00  0.00    +0.000 C 
ATOM     16  C   UNL     1      43.157   5.070  10.525  0.00  0.00    +0.000 C 
BRANCH  14  20
ATOM     17  C   UNL     1      46.633   2.673   7.424  0.00  0.00    +0.000 A 
ATOM     18  C   UNL     1      46.547   4.062   7.519  0.00  0.00    +0.000 A 
ATOM     19  C   UNL     1      45.856   4.650   8.585  0.00  0.00    +0.000 A 
ATOM     20  C   UNL     1      45.244   3.872   9.584  0.00  0.00    +0.000 A 
ATOM     21  C   UNL     1      45.319   2.474   9.444  0.00  0.00    +0.000 A 
ATOM     22  C   UNL     1      46.006   1.876   8.382  0.00  0.00    +0.000 A 
BRANCH  17  24
ATOM     23  N   UNL     1      47.975   1.582   5.492  0.00  0.00    +0.000 NA
ATOM     24  C   UNL     1      47.372   2.070   6.357  0.00  0.00    +0.000 C 
ENDBRANCH  17  24
ENDBRANCH  14  20
ENDBRANCH   1  14
TORSDOF 4
ENDMDL
MODEL 5
REMARK VINA RESULT:    -6.668      2.791      6.544
REMARK INTER + INTRA:          -8.037
REMARK INTER:                  -8.236
REMARK INTRA:                   0.199
REMARK UNBOUND:                 0.190
REMARK  Name = 
REMARK  4 active torsions:
REMARK  status: ('A' for Active; 'I' for Inactive)
REMARK    1  A    between atoms: C_2  and  C_3
REMARK    2  A    between atoms: C_6  and  C_7
REMARK    3  A    between atoms: C_7  and  N_8
REMARK    4  A    between atoms: C_12  and  C_13
REMARK                            x       y       z     vdW  Elec       q    Type
REMARK                         _______ _______ _______ _____ _____    ______ ____
ROOT
ATOM      1  N   UNL     1      45.052   4.898  12.682  0.00  0.00    +0.000 N 
ATOM      2  C   UNL     1      46.203   5.670  12.787  0.00  0.00    +0.000 A 
ATOM      3  C   UNL     1      46.446   6.811  12.033  0.00  0.00    +0.000 A 
ATOM      4  C   UNL     1      47.626   7.535  12.240  0.00  0.00    +0.000 A 
ATOM      5  C   UNL     1      48.536   7.098  13.200  0.00  0.00    +0.000 A 
ATOM      6  C   UNL     1      48.221   5.948  13.904  0.00  0.00    +0.000 A 
ATOM      7  N   UNL     1      47.078   5.241  13.722  0.00  0.00    +0.000 NA
ATOM      8  H   UNL     1      45.163   4.087  13.282  0.00  0.00    +0.000 HD
ENDROOT
BRANCH   5   9
ATOM      9  C   UNL     1      49.822   7.771  13.482  0.00  0.00    +0.000 C 
ATOM     10  N   UNL     1      50.513   7.373  14.592  0.00  0.00    +0.000 N 
ATOM     11  O   UNL     1      50.269   8.631  12.737  0.00  0.00    +0.000 OA
ATOM     12  H   UNL     1      50.310   6.519  15.091  0.00  0.00    +0.000 HD
ATOM     13  H   UNL     1      51.433   7.778  14.715  0.00  0.00    +0.000 HD
ENDBRANCH   5   9
BRANCH   1  14
ATOM     14  C   UNL     1      44.152   4.826  11.528  0.00  0.00    +0.000 C 
ATOM     15  C   UNL     1      42.649   4.710  11.705  0.00  0.00    +0.000 C 
ATOM     16  C   UNL     1      43.234   6.036  11.350  0.00  0.00    +0.000 C 
BRANCH  14  20
ATOM     17  C   UNL     1      45.929   3.412   7.806  0.00  0.00    +0.000 A 
ATOM     18  C   UNL     1      45.273   2.512   8.646  0.00  0.00    +0.000 A 
ATOM     19  C   UNL     1      44.723   2.955   9.854  0.00  0.00    +0.000 A 
ATOM     20  C   UNL     1      44.804   4.303  10.249  0.00  0.00    +0.000 A 
ATOM     21  C   UNL     1      45.498   5.180   9.398  0.00  0.00    +0.000 A 
ATOM     22  C   UNL     1      46.053   4.748   8.188  0.00  0.00    +0.000 A 
BRANCH  17  24
ATOM     23  N   UNL     1      46.888   2.607   5.535  0.00  0.00    +0.000 NA
ATOM     24  C   UNL     1      46.457   2.969   6.551  0.00  0.00    +0.000 C 
ENDBRANCH  17  24
ENDBRANCH  14  20
ENDBRANCH   1  14
TORSDOF 4
ENDMDL
MODEL 6
REMARK VINA RESULT:    -6.580      4.157      6.802
REMARK INTER + INTRA:          -7.928
REMARK INTER:                  -7.646
REMARK INTRA:                  -0.282
REMARK UNBOUND:                 0.190
REMARK  Name = 
REMARK  4 active torsions:
REMARK  status: ('A' for Active; 'I' for Inactive)
REMARK    1  A    between atoms: C_2  and  C_3
REMARK    2  A    between atoms: C_6  and  C_7
REMARK    3  A    between atoms: C_7  and  N_8
REMARK    4  A    between atoms: C_12  and  C_13
REMARK                            x       y       z     vdW  Elec       q    Type
REMARK                         _______ _______ _______ _____ _____    ______ ____
ROOT
ATOM      1  N   UNL     1      47.228   3.948  15.817  0.00  0.00    +0.000 N 
ATOM      2  C   UNL     1      46.885   4.565  14.620  0.00  0.00    +0.000 A 
ATOM      3  C   UNL     1      47.603   5.610  14.051  0.00  0.00    +0.000 A 
ATOM      4  C   UNL     1      47.188   6.142  12.824  0.00  0.00    +0.000 A 
ATOM      5  C   UNL     1      46.064   5.612  12.195  0.00  0.00    +0.000 A 
ATOM      6  C   UNL     1      45.402   4.575  12.832  0.00  0.00    +0.000 A 
ATOM      7  N   UNL     1      45.796   4.043  14.016  0.00  0.00    +0.000 NA
ATOM      8  H   UNL     1      46.501   3.276  16.042  0.00  0.00    +0.000 HD
ENDROOT
BRANCH   5   9
ATOM      9  C   UNL     1      45.525   6.113  10.912  0.00  0.00    +0.000 C 
ATOM     10  N   UNL     1      44.747   7.236  10.948  0.00  0.00    +0.000 N 
ATOM     11  O   UNL     1      45.788   5.563   9.852  0.00  0.00    +0.000 OA
ATOM     12  H   UNL     1      44.704   7.851  11.748  0.00  0.00    +0.000 HD
ATOM     13  H   UNL     1      44.468   7.615  10.052  0.00  0.00    +0.000 HD
ENDBRANCH   5   9
BRANCH   1  14
ATOM     14  C   UNL     1      48.043   4.519  16.892  0.00  0.00    +0.000 C 
ATOM     15  C   UNL     1      47.911   5.976  17.294  0.00  0.00    +0.000 C 
ATOM     16  C   UNL     1      47.264   4.933  18.142  0.00  0.00    +0.000 C 
BRANCH  14  20
ATOM     17  C   UNL     1      51.726   2.341  17.734  0.00  0.00    +0.000 A 
ATOM     18  C   UNL     1      51.688   3.726  17.894  0.00  0.00    +0.000 A 
ATOM     19  C   UNL     1      50.517   4.434  17.601  0.00  0.00    +0.000 A 
ATOM     20  C   UNL     1      49.355   3.780  17.152  0.00  0.00    +0.000 A 
ATOM     21  C   UNL     1      49.433   2.388  16.969  0.00  0.00    +0.000 A 
ATOM     22  C   UNL     1      50.599   1.671  17.257  0.00  0.00    +0.000 A 
BRANCH  17  24
ATOM     23  N   UNL     1      53.871   1.017  18.340  0.00  0.00    +0.000 NA
ATOM     24  C   UNL     1      52.910   1.611  18.070  0.00  0.00    +0.000 C 
ENDBRANCH  17  24
ENDBRANCH  14  20
ENDBRANCH   1  14
TORSDOF 4
ENDMDL
MODEL 7
REMARK VINA RESULT:    -6.216      3.954      5.625
REMARK INTER + INTRA:          -7.480
REMARK INTER:                  -7.097
REMARK INTRA:                  -0.383
REMARK UNBOUND:                 0.190
REMARK  Name = 
REMARK  4 active torsions:
REMARK  status: ('A' for Active; 'I' for Inactive)
REMARK    1  A    between atoms: C_2  and  C_3
REMARK    2  A    between atoms: C_6  and  C_7
REMARK    3  A    between atoms: C_7  and  N_8
REMARK    4  A    between atoms: C_12  and  C_13
REMARK                            x       y       z     vdW  Elec       q    Type
REMARK                         _______ _______ _______ _____ _____    ______ ____
ROOT
ATOM      1  N   UNL     1      47.577   6.586  13.268  0.00  0.00    +0.000 N 
ATOM      2  C   UNL     1      46.683   5.758  12.599  0.00  0.00    +0.000 A 
ATOM      3  C   UNL     1      46.118   6.060  11.366  0.00  0.00    +0.000 A 
ATOM      4  C   UNL     1      45.251   5.141  10.764  0.00  0.00    +0.000 A 
ATOM      5  C   UNL     1      44.972   3.939  11.410  0.00  0.00    +0.000 A 
ATOM      6  C   UNL     1      45.573   3.718  12.639  0.00  0.00    +0.000 A 
ATOM      7  N   UNL     1      46.422   4.594  13.232  0.00  0.00    +0.000 NA
ATOM      8  H   UNL     1      47.773   6.169  14.173  0.00  0.00    +0.000 HD
ENDROOT
BRANCH   5   9
ATOM      9  C   UNL     1      44.054   2.910  10.876  0.00  0.00    +0.000 C 
ATOM     10  N   UNL     1      44.490   2.161   9.819  0.00  0.00    +0.000 N 
ATOM     11  O   UNL     1      42.956   2.713  11.377  0.00  0.00    +0.000 OA
ATOM     12  H   UNL     1      45.459   2.119   9.535  0.00  0.00    +0.000 HD
ATOM     13  H   UNL     1      43.887   1.400   9.532  0.00  0.00    +0.000 HD
ENDBRANCH   5   9
BRANCH   1  14
ATOM     14  C   UNL     1      47.727   8.033  13.091  0.00  0.00    +0.000 C 
ATOM     15  C   UNL     1      46.544   8.972  13.224  0.00  0.00    +0.000 C 
ATOM     16  C   UNL     1      47.509   8.864  14.356  0.00  0.00    +0.000 C 
BRANCH  14  20
ATOM     17  C   UNL     1      51.227   9.169  10.749  0.00  0.00    +0.000 A 
ATOM     18  C   UNL     1      50.283  10.135  11.099  0.00  0.00    +0.000 A 
ATOM     19  C   UNL     1      49.145   9.772  11.828  0.00  0.00    +0.000 A 
ATOM     20  C   UNL     1      48.925   8.444  12.235  0.00  0.00    +0.000 A 
ATOM     21  C   UNL     1      49.876   7.486  11.841  0.00  0.00    +0.000 A 
ATOM     22  C   UNL     1      51.016   7.838  11.110  0.00  0.00    +0.000 A 
BRANCH  17  24
ATOM     23  N   UNL     1      53.373   9.847   9.462  0.00  0.00    +0.000 NA
ATOM     24  C   UNL     1      52.410   9.545  10.038  0.00  0.00    +0.000 C 
ENDBRANCH  17  24
ENDBRANCH  14  20
ENDBRANCH   1  14
TORSDOF 4
ENDMDL
MODEL 8
REMARK VINA RESULT:    -6.000      3.616      5.422
REMARK INTER + INTRA:          -7.212
REMARK INTER:                  -6.548
REMARK INTRA:                  -0.664
REMARK UNBOUND:                 0.190
REMARK  Name = 
REMARK  4 active torsions:
REMARK  status: ('A' for Active; 'I' for Inactive)
REMARK    1  A    between atoms: C_2  and  C_3
REMARK    2  A    between atoms: C_6  and  C_7
REMARK    3  A    between atoms: C_7  and  N_8
REMARK    4  A    between atoms: C_12  and  C_13
REMARK                            x       y       z     vdW  Elec       q    Type
REMARK                         _______ _______ _______ _____ _____    ______ ____
ROOT
ATOM      1  N   UNL     1      46.983   8.037  12.249  0.00  0.00    +0.000 N 
ATOM      2  C   UNL     1      46.304   6.827  12.159  0.00  0.00    +0.000 A 
ATOM      3  C   UNL     1      46.733   5.648  12.755  0.00  0.00    +0.000 A 
ATOM      4  C   UNL     1      45.958   4.490  12.628  0.00  0.00    +0.000 A 
ATOM      5  C   UNL     1      44.766   4.542  11.907  0.00  0.00    +0.000 A 
ATOM      6  C   UNL     1      44.413   5.755  11.340  0.00  0.00    +0.000 A 
ATOM      7  N   UNL     1      45.149   6.888  11.461  0.00  0.00    +0.000 NA
ATOM      8  H   UNL     1      46.499   8.711  11.664  0.00  0.00    +0.000 HD
ENDROOT
BRANCH   5   9
ATOM      9  C   UNL     1      43.884   3.375  11.691  0.00  0.00    +0.000 C 
ATOM     10  N   UNL     1      43.733   2.495  12.726  0.00  0.00    +0.000 N 
ATOM     11  O   UNL     1      43.286   3.214  10.636  0.00  0.00    +0.000 OA
ATOM     12  H   UNL     1      44.005   2.709  13.675  0.00  0.00    +0.000 HD
ATOM     13  H   UNL     1      43.053   1.758  12.590  0.00  0.00    +0.000 HD
ENDBRANCH   5   9
BRANCH   1  14
ATOM     14  C   UNL     1      48.408   8.219  12.536  0.00  0.00    +0.000 C 
ATOM     15  C   UNL     1      49.471   7.875  11.510  0.00  0.00    +0.000 C 
ATOM     16  C   UNL     1      49.099   9.305  11.712  0.00  0.00    +0.000 C 
BRANCH  14  20
ATOM     17  C   UNL     1      49.369   8.034  16.786  0.00  0.00    +0.000 A 
ATOM     18  C   UNL     1      48.407   8.937  16.332  0.00  0.00    +0.000 A 
ATOM     19  C   UNL     1      48.113   9.019  14.966  0.00  0.00    +0.000 A 
ATOM     20  C   UNL     1      48.760   8.199  14.023  0.00  0.00    +0.000 A 
ATOM     21  C   UNL     1      49.747   7.322  14.506  0.00  0.00    +0.000 A 
ATOM     22  C   UNL     1      50.051   7.233  15.869  0.00  0.00    +0.000 A 
BRANCH  17  24
ATOM     23  N   UNL     1      49.865   7.833  19.323  0.00  0.00    +0.000 NA
ATOM     24  C   UNL     1      49.644   7.921  18.186  0.00  0.00    +0.000 C 
ENDBRANCH  17  24
ENDBRANCH  14  20
ENDBRANCH   1  14
TORSDOF 4
ENDMDL
MODEL 9
REMARK VINA RESULT:    -5.606      4.353      7.210
REMARK INTER + INTRA:          -6.727
REMARK INTER:                  -6.082
REMARK INTRA:                  -0.645
REMARK UNBOUND:                 0.190
REMARK  Name = 
REMARK  4 active torsions:
REMARK  status: ('A' for Active; 'I' for Inactive)
REMARK    1  A    between atoms: C_2  and  C_3
REMARK    2  A    between atoms: C_6  and  C_7
REMARK    3  A    between atoms: C_7  and  N_8
REMARK    4  A    between atoms: C_12  and  C_13
REMARK                            x       y       z     vdW  Elec       q    Type
REMARK                         _______ _______ _______ _____ _____    ______ ____
ROOT
ATOM      1  N   UNL     1      47.451   8.015  11.911  0.00  0.00    +0.000 N 
ATOM      2  C   UNL     1      48.392   7.828  12.917  0.00  0.00    +0.000 A 
ATOM      3  C   UNL     1      48.117   7.219  14.135  0.00  0.00    +0.000 A 
ATOM      4  C   UNL     1      49.146   7.053  15.070  0.00  0.00    +0.000 A 
ATOM      5  C   UNL     1      50.428   7.500  14.760  0.00  0.00    +0.000 A 
ATOM      6  C   UNL     1      50.617   8.101  13.526  0.00  0.00    +0.000 A 
ATOM      7  N   UNL     1      49.632   8.262  12.607  0.00  0.00    +0.000 NA
ATOM      8  H   UNL     1      47.890   8.549  11.167  0.00  0.00    +0.000 HD
ENDROOT
BRANCH   5   9
ATOM      9  C   UNL     1      51.581   7.397  15.680  0.00  0.00    +0.000 C 
ATOM     10  N   UNL     1      52.811   7.166  15.130  0.00  0.00    +0.000 N 
ATOM     11  O   UNL     1      51.448   7.541  16.888  0.00  0.00    +0.000 OA
ATOM     12  H   UNL     1      53.005   7.282  14.146  0.00  0.00    +0.000 HD
ATOM     13  H   UNL     1      53.597   7.194  15.767  0.00  0.00    +0.000 HD
ENDBRANCH   5   9
BRANCH   1  14
ATOM     14  C   UNL     1      45.996   8.063  12.074  0.00  0.00    +0.000 C 
ATOM     15  C   UNL     1      45.327   9.163  12.877  0.00  0.00    +0.000 C 
ATOM     16  C   UNL     1      45.308   9.243  11.387  0.00  0.00    +0.000 C 
BRANCH  14  20
ATOM     17  C   UNL     1      44.068   4.166  11.729  0.00  0.00    +0.000 A 
ATOM     18  C   UNL     1      44.895   4.624  10.703  0.00  0.00    +0.000 A 
ATOM     19  C   UNL     1      45.496   5.885  10.796  0.00  0.00    +0.000 A 
ATOM     20  C   UNL     1      45.297   6.714  11.915  0.00  0.00    +0.000 A 
ATOM     21  C   UNL     1      44.434   6.240  12.919  0.00  0.00    +0.000 A 
ATOM     22  C   UNL     1      43.827   4.982  12.835  0.00  0.00    +0.000 A 
BRANCH  17  24
ATOM     23  N   UNL     1      43.008   1.804  11.592  0.00  0.00    +0.000 NA
ATOM     24  C   UNL     1      43.485   2.862  11.654  0.00  0.00    +0.000 C 
ENDBRANCH  17  24
ENDBRANCH  14  20
ENDBRANCH   1  14
TORSDOF 4
ENDMDL
