MODEL 1
REMARK VINA RESULT:    -7.537      0.000      0.000
REMARK INTER + INTRA:         -11.113
REMARK INTER:                 -10.181
REMARK INTRA:                  -0.932
REMARK UNBOUND:                -0.932
REMARK  Name = 
REMARK  6 active torsions:
REMARK  status: ('A' for Active; 'I' for Inactive)
REMARK    1  A    between atoms: C_2  and  C_21
REMARK    2  A    between atoms: N_3  and  C_4
REMARK    3  A    between atoms: C_4  and  C_5
REMARK    4  A    between atoms: C_8  and  C_9
REMARK    5  A    between atoms: C_9  and  N_10
REMARK    6  A    between atoms: C_11  and  C_13
REMARK                            x       y       z     vdW  Elec       q    Type
REMARK                         _______ _______ _______ _____ _____    ______ ____
ROOT
ATOM      1  C   UNL     1      46.821   3.949  13.906  0.00  0.00    +0.000 A 
ATOM      2  C   UNL     1      45.934   3.215  13.116  0.00  0.00    +0.000 A 
ATOM      3  C   UNL     1      45.276   3.834  12.057  0.00  0.00    +0.000 A 
ATOM      4  C   UNL     1      45.505   5.187  11.818  0.00  0.00    +0.000 A 
ATOM      5  N   UNL     1      46.362   5.923  12.572  0.00  0.00    +0.000 NA
ATOM      6  C   UNL     1      46.984   5.295  13.598  0.00  0.00    +0.000 A 
ENDROOT
BRANCH   1   7
ATOM      7  C   UNL     1      47.558   3.330  15.055  0.00  0.00    +0.000 C 
BRANCH   7  10
ATOM      8  O   UNL     1      46.713   3.298  17.741  0.00  0.00    +0.000 OA
ATOM      9  C   UNL     1      47.451   4.202  17.364  0.00  0.00    +0.000 C 
ATOM     10  N   UNL     1      47.878   4.306  16.066  0.00  0.00    +0.000 N 
ATOM     11  H   UNL     1      48.615   4.964  15.835  0.00  0.00    +0.000 HD
BRANCH   9  12
ATOM     12  C   UNL     1      47.895   5.264  18.278  0.00  0.00    +0.000 A 
ATOM     13  C   UNL     1      46.967   5.920  19.076  0.00  0.00    +0.000 A 
ATOM     14  S   UNL     1      47.648   7.133  20.062  0.00  0.00    +0.000 S 
ATOM     15  C   UNL     1      49.214   6.795  19.494  0.00  0.00    +0.000 A 
ATOM     16  N   UNL     1      50.294   7.469  19.972  0.00  0.00    +0.000 NA
ATOM     17  C   UNL     1      51.425   7.086  19.483  0.00  0.00    +0.000 A 
ATOM     18  N   UNL     1      51.574   6.094  18.547  0.00  0.00    +0.000 N 
ATOM     19  C   UNL     1      50.510   5.438  17.983  0.00  0.00    +0.000 A 
ATOM     20  O   UNL     1      50.670   4.653  17.055  0.00  0.00    +0.000 OA
ATOM     21  C   UNL     1      49.216   5.794  18.538  0.00  0.00    +0.000 A 
ATOM     22  H   UNL     1      52.487   5.866  18.180  0.00  0.00    +0.000 HD
ENDBRANCH   9  12
ENDBRANCH   7  10
ENDBRANCH   1   7
BRANCH   4  23
ATOM     23  C   UNL     1      44.787   5.899  10.697  0.00  0.00    +0.000 C 
BRANCH  23  24
ATOM     24  N   UNL     1      44.491   5.035   9.573  0.00  0.00    +0.000 N 
ATOM     25  C   UNL     1      45.431   4.760   8.599  0.00  0.00    +0.000 C 
ATOM     26  O   UNL     1      46.547   5.272   8.598  0.00  0.00    +0.000 OA
ATOM     27  H   UNL     1      43.516   4.841   9.385  0.00  0.00    +0.000 HD
BRANCH  25  28
ATOM     28  C   UNL     1      44.947   3.728   7.547  0.00  0.00    +0.000 C 
ATOM     29  C   UNL     1      46.047   3.284   6.575  0.00  0.00    +0.000 C 
ATOM     30  C   UNL     1      47.097   2.393   7.237  0.00  0.00    +0.000 C 
ATOM     31  C   UNL     1      46.440   1.248   7.999  0.00  0.00    +0.000 C 
ATOM     32  C   UNL     1      45.332   1.744   8.924  0.00  0.00    +0.000 C 
ATOM     33  N   UNL     1      44.335   2.551   8.213  0.00  0.00    +0.000 NA
ATOM     34  H   UNL     1      43.638   2.869   8.883  0.00  0.00    +0.000 HD
ENDBRANCH  25  28
ENDBRANCH  23  24
ENDBRANCH   4  23
TORSDOF 6
ENDMDL
MODEL 2
REMARK VINA RESULT:    -7.384      2.928      9.268
REMARK INTER + INTRA:         -10.906
REMARK INTER:                  -9.906
REMARK INTRA:                  -1.000
REMARK UNBOUND:                -0.932
REMARK  Name = 
REMARK  6 active torsions:
REMARK  status: ('A' for Active; 'I' for Inactive)
REMARK    1  A    between atoms: C_2  and  C_21
REMARK    2  A    between atoms: N_3  and  C_4
REMARK    3  A    between atoms: C_4  and  C_5
REMARK    4  A    between atoms: C_8  and  C_9
REMARK    5  A    between atoms: C_9  and  N_10
REMARK    6  A    between atoms: C_11  and  C_13
REMARK                            x       y       z     vdW  Elec       q    Type
REMARK                         _______ _______ _______ _____ _____    ______ ____
ROOT
ATOM      1  C   UNL     1      48.019   7.900  13.054  0.00  0.00    +0.000 A 
ATOM      2  C   UNL     1      47.679   8.796  14.070  0.00  0.00    +0.000 A 
ATOM      3  C   UNL     1      48.384   8.778  15.271  0.00  0.00    +0.000 A 
ATOM      4  C   UNL     1      49.407   7.847  15.440  0.00  0.00    +0.000 A 
ATOM      5  N   UNL     1      49.755   6.966  14.467  0.00  0.00    +0.000 NA
ATOM      6  C   UNL     1      49.049   7.004  13.312  0.00  0.00    +0.000 A 
ENDROOT
BRANCH   1   7
ATOM      7  C   UNL     1      47.295   7.880  11.741  0.00  0.00    +0.000 C 
BRANCH   7  10
ATOM      8  O   UNL     1      44.532   7.394  11.983  0.00  0.00    +0.000 OA
ATOM      9  C   UNL     1      45.266   6.476  11.634  0.00  0.00    +0.000 C 
ATOM     10  N   UNL     1      46.624   6.623  11.526  0.00  0.00    +0.000 N 
ATOM     11  H   UNL     1      47.170   5.896  11.076  0.00  0.00    +0.000 HD
BRANCH   9  12
ATOM     12  C   UNL     1      44.736   5.134  11.347  0.00  0.00    +0.000 A 
ATOM     13  C   UNL     1      43.960   4.482  12.295  0.00  0.00    +0.000 A 
ATOM     14  S   UNL     1      43.443   2.932  11.808  0.00  0.00    +0.000 S 
ATOM     15  C   UNL     1      44.198   3.094  10.295  0.00  0.00    +0.000 A 
ATOM     16  N   UNL     1      44.111   2.111   9.359  0.00  0.00    +0.000 NA
ATOM     17  C   UNL     1      44.699   2.380   8.242  0.00  0.00    +0.000 A 
ATOM     18  N   UNL     1      45.379   3.542   7.978  0.00  0.00    +0.000 N 
ATOM     19  C   UNL     1      45.556   4.529   8.915  0.00  0.00    +0.000 A 
ATOM     20  O   UNL     1      46.279   5.493   8.690  0.00  0.00    +0.000 OA
ATOM     21  C   UNL     1      44.868   4.299  10.173  0.00  0.00    +0.000 A 
ATOM     22  H   UNL     1      45.846   3.676   7.093  0.00  0.00    +0.000 HD
ENDBRANCH   9  12
ENDBRANCH   7  10
ENDBRANCH   1   7
BRANCH   4  23
ATOM     23  C   UNL     1      50.174   7.779  16.738  0.00  0.00    +0.000 C 
BRANCH  23  24
ATOM     24  N   UNL     1      49.714   6.723  17.616  0.00  0.00    +0.000 N 
ATOM     25  C   UNL     1      50.314   5.480  17.634  0.00  0.00    +0.000 C 
ATOM     26  O   UNL     1      51.231   5.179  16.873  0.00  0.00    +0.000 OA
ATOM     27  H   UNL     1      48.797   6.833  18.029  0.00  0.00    +0.000 HD
BRANCH  25  28
ATOM     28  C   UNL     1      49.743   4.533  18.721  0.00  0.00    +0.000 C 
ATOM     29  C   UNL     1      48.284   4.830  19.088  0.00  0.00    +0.000 C 
ATOM     30  C   UNL     1      47.306   4.446  17.979  0.00  0.00    +0.000 C 
ATOM     31  C   UNL     1      47.551   3.018  17.505  0.00  0.00    +0.000 C 
ATOM     32  C   UNL     1      49.023   2.769  17.189  0.00  0.00    +0.000 C 
ATOM     33  N   UNL     1      49.898   3.114  18.313  0.00  0.00    +0.000 NA
ATOM     34  H   UNL     1      50.864   2.948  18.036  0.00  0.00    +0.000 HD
ENDBRANCH  25  28
ENDBRANCH  23  24
ENDBRANCH   4  23
TORSDOF 6
ENDMDL
MODEL 3
REMARK VINA RESULT:    -7.136      3.392      4.709
REMARK INTER + INTRA:         -10.571
REMARK INTER:                  -9.750
REMARK INTRA:                  -0.821
REMARK UNBOUND:                -0.932
REMARK  Name = 
REMARK  6 active torsions:
REMARK  status: ('A' for Active; 'I' for Inactive)
REMARK    1  A    between atoms: C_2  and  C_21
REMARK    2  A    between atoms: N_3  and  C_4
REMARK    3  A    between atoms: C_4  and  C_5
REMARK    4  A    between atoms: C_8  and  C_9
REMARK    5  A    between atoms: C_9  and  N_10
REMARK    6  A    between atoms: C_11  and  C_13
REMARK                            x       y       z     vdW  Elec       q    Type
REMARK                         _______ _______ _______ _____ _____    ______ ____
ROOT
ATOM      1  C   UNL     1      48.090   4.268  16.687  0.00  0.00    +0.000 A 
ATOM      2  C   UNL     1      47.207   3.885  15.675  0.00  0.00    +0.000 A 
ATOM      3  C   UNL     1      47.079   4.673  14.534  0.00  0.00    +0.000 A 
ATOM      4  C   UNL     1      47.826   5.845  14.437  0.00  0.00    +0.000 A 
ATOM      5  N   UNL     1      48.690   6.240  15.408  0.00  0.00    +0.000 NA
ATOM      6  C   UNL     1      48.790   5.455  16.507  0.00  0.00    +0.000 A 
ENDROOT
BRANCH   1   7
ATOM      7  C   UNL     1      48.268   3.453  17.933  0.00  0.00    +0.000 C 
BRANCH   7  10
ATOM      8  O   UNL     1      49.789   1.750  16.287  0.00  0.00    +0.000 OA
ATOM      9  C   UNL     1      50.327   2.266  17.260  0.00  0.00    +0.000 C 
ATOM     10  N   UNL     1      49.646   3.079  18.128  0.00  0.00    +0.000 N 
ATOM     11  H   UNL     1      50.162   3.615  18.818  0.00  0.00    +0.000 HD
BRANCH   9  12
ATOM     12  C   UNL     1      51.737   2.009  17.587  0.00  0.00    +0.000 A 
ATOM     13  C   UNL     1      52.192   0.703  17.701  0.00  0.00    +0.000 A 
ATOM     14  S   UNL     1      53.846   0.586  18.100  0.00  0.00    +0.000 S 
ATOM     15  C   UNL     1      54.026   2.276  18.087  0.00  0.00    +0.000 A 
ATOM     16  N   UNL     1      55.234   2.854  18.321  0.00  0.00    +0.000 NA
ATOM     17  C   UNL     1      55.238   4.142  18.244  0.00  0.00    +0.000 A 
ATOM     18  N   UNL     1      54.134   4.909  17.965  0.00  0.00    +0.000 N 
ATOM     19  C   UNL     1      52.882   4.376  17.795  0.00  0.00    +0.000 A 
ATOM     20  O   UNL     1      51.897   5.097  17.680  0.00  0.00    +0.000 OA
ATOM     21  C   UNL     1      52.833   2.924  17.819  0.00  0.00    +0.000 A 
ATOM     22  H   UNL     1      54.198   5.917  17.953  0.00  0.00    +0.000 HD
ENDBRANCH   9  12
ENDBRANCH   7  10
ENDBRANCH   1   7
BRANCH   4  23
ATOM     23  C   UNL     1      47.692   6.740  13.228  0.00  0.00    +0.000 C 
BRANCH  23  24
ATOM     24  N   UNL     1      46.679   6.289  12.297  0.00  0.00    +0.000 N 
ATOM     25  C   UNL     1      45.445   6.903  12.212  0.00  0.00    +0.000 C 
ATOM     26  O   UNL     1      45.114   7.824  12.954  0.00  0.00    +0.000 OA
ATOM     27  H   UNL     1      46.801   5.370  11.891  0.00  0.00    +0.000 HD
BRANCH  25  28
ATOM     28  C   UNL     1      44.551   6.339  11.077  0.00  0.00    +0.000 C 
ATOM     29  C   UNL     1      45.014   4.974  10.553  0.00  0.00    +0.000 C 
ATOM     30  C   UNL     1      44.773   3.845  11.553  0.00  0.00    +0.000 C 
ATOM     31  C   UNL     1      43.335   3.863  12.061  0.00  0.00    +0.000 C 
ATOM     32  C   UNL     1      42.918   5.252  12.537  0.00  0.00    +0.000 C 
ATOM     33  N   UNL     1      43.133   6.277  11.510  0.00  0.00    +0.000 NA
ATOM     34  H   UNL     1      42.858   7.180  11.892  0.00  0.00    +0.000 HD
ENDBRANCH  25  28
ENDBRANCH  23  24
ENDBRANCH   4  23
TORSDOF 6
ENDMDL
MODEL 4
REMARK VINA RESULT:    -6.805      3.301      4.603
REMARK INTER + INTRA:         -10.124
REMARK INTER:                  -9.205
REMARK INTRA:                  -0.918
REMARK UNBOUND:                -0.932
REMARK  Name = 
REMARK  6 active torsions:
REMARK  status: ('A' for Active; 'I' for Inactive)
REMARK    1  A    between atoms: C_2  and  C_21
REMARK    2  A    between atoms: N_3  and  C_4
REMARK    3  A    between atoms: C_4  and  C_5
REMARK    4  A    between atoms: C_8  and  C_9
REMARK    5  A    between atoms: C_9  and  N_10
REMARK    6  A    between atoms: C_11  and  C_13
REMARK                            x       y       z     vdW  Elec       q    Type
REMARK                         _______ _______ _______ _____ _____    ______ ____
ROOT
ATOM      1  C   UNL     1      48.315   5.476  16.132  0.00  0.00    +0.000 A 
ATOM      2  C   UNL     1      47.442   4.724  15.343  0.00  0.00    +0.000 A 
ATOM      3  C   UNL     1      47.137   5.148  14.052  0.00  0.00    +0.000 A 
ATOM      4  C   UNL     1      47.700   6.332  13.580  0.00  0.00    +0.000 A 
ATOM      5  N   UNL     1      48.551   7.081  14.328  0.00  0.00    +0.000 NA
ATOM      6  C   UNL     1      48.825   6.646  15.581  0.00  0.00    +0.000 A 
ENDROOT
BRANCH   1   7
ATOM      7  C   UNL     1      48.679   5.062  17.526  0.00  0.00    +0.000 C 
BRANCH   7  10
ATOM      8  O   UNL     1      50.270   4.794  19.833  0.00  0.00    +0.000 OA
ATOM      9  C   UNL     1      50.715   4.402  18.760  0.00  0.00    +0.000 C 
ATOM     10  N   UNL     1      50.016   4.527  17.588  0.00  0.00    +0.000 N 
ATOM     11  H   UNL     1      50.343   4.043  16.758  0.00  0.00    +0.000 HD
BRANCH   9  12
ATOM     12  C   UNL     1      52.054   3.804  18.654  0.00  0.00    +0.000 A 
ATOM     13  C   UNL     1      53.153   4.479  19.169  0.00  0.00    +0.000 A 
ATOM     14  S   UNL     1      54.629   3.654  18.946  0.00  0.00    +0.000 S 
ATOM     15  C   UNL     1      53.848   2.345  18.195  0.00  0.00    +0.000 A 
ATOM     16  N   UNL     1      54.548   1.255  17.781  0.00  0.00    +0.000 NA
ATOM     17  C   UNL     1      53.827   0.319  17.261  0.00  0.00    +0.000 A 
ATOM     18  N   UNL     1      52.465   0.379  17.107  0.00  0.00    +0.000 N 
ATOM     19  C   UNL     1      51.727   1.485  17.442  0.00  0.00    +0.000 A 
ATOM     20  O   UNL     1      50.533   1.556  17.169  0.00  0.00    +0.000 OA
ATOM     21  C   UNL     1      52.483   2.548  18.081  0.00  0.00    +0.000 A 
ATOM     22  H   UNL     1      51.964  -0.376  16.661  0.00  0.00    +0.000 HD
ENDBRANCH   9  12
ENDBRANCH   7  10
ENDBRANCH   1   7
BRANCH   4  23
ATOM     23  C   UNL     1      47.371   6.838  12.197  0.00  0.00    +0.000 C 
BRANCH  23  24
ATOM     24  N   UNL     1      46.460   5.972  11.477  0.00  0.00    +0.000 N 
ATOM     25  C   UNL     1      45.196   6.391  11.110  0.00  0.00    +0.000 C 
ATOM     26  O   UNL     1      44.751   7.494  11.419  0.00  0.00    +0.000 OA
ATOM     27  H   UNL     1      46.673   4.983  11.468  0.00  0.00    +0.000 HD
BRANCH  25  28
ATOM     28  C   UNL     1      44.426   5.354  10.252  0.00  0.00    +0.000 C 
ATOM     29  C   UNL     1      45.044   3.950  10.286  0.00  0.00    +0.000 C 
ATOM     30  C   UNL     1      44.852   3.253  11.631  0.00  0.00    +0.000 C 
ATOM     31  C   UNL     1      43.392   3.302  12.069  0.00  0.00    +0.000 C 
ATOM     32  C   UNL     1      42.820   4.714  11.982  0.00  0.00    +0.000 C 
ATOM     33  N   UNL     1      42.997   5.303  10.651  0.00  0.00    +0.000 NA
ATOM     34  H   UNL     1      42.618   6.248  10.661  0.00  0.00    +0.000 HD
ENDBRANCH  25  28
ENDBRANCH  23  24
ENDBRANCH   4  23
TORSDOF 6
ENDMDL
MODEL 5
REMARK VINA RESULT:    -6.469      3.244     10.040
REMARK INTER + INTRA:          -9.670
REMARK INTER:                  -8.889
REMARK INTRA:                  -0.781
REMARK UNBOUND:                -0.932
REMARK  Name = 
REMARK  6 active torsions:
REMARK  status: ('A' for Active; 'I' for Inactive)
REMARK    1  A    between atoms: C_2  and  C_21
REMARK    2  A    between atoms: N_3  and  C_4
REMARK    3  A    between atoms: C_4  and  C_5
REMARK    4  A    between atoms: C_8  and  C_9
REMARK    5  A    between atoms: C_9  and  N_10
REMARK    6  A    between atoms: C_11  and  C_13
REMARK                            x       y       z     vdW  Elec       q    Type
REMARK                         _______ _______ _______ _____ _____    ______ ____
ROOT
ATOM      1  C   UNL     1      45.706   4.635  12.633  0.00  0.00    +0.000 A 
ATOM      2  C   UNL     1      46.253   4.323  13.879  0.00  0.00    +0.000 A 
ATOM      3  C   UNL     1      47.173   5.188  14.466  0.00  0.00    +0.000 A 
ATOM      4  C   UNL     1      47.544   6.344  13.783  0.00  0.00    +0.000 A 
ATOM      5  N   UNL     1      47.027   6.669  12.570  0.00  0.00    +0.000 NA
ATOM      6  C   UNL     1      46.138   5.806  12.022  0.00  0.00    +0.000 A 
ENDROOT
BRANCH   1   7
ATOM      7  C   UNL     1      44.709   3.741  11.959  0.00  0.00    +0.000 C 
BRANCH   7  10
ATOM      8  O   UNL     1      43.758   3.429   9.327  0.00  0.00    +0.000 OA
ATOM      9  C   UNL     1      44.809   2.884   9.644  0.00  0.00    +0.000 C 
ATOM     10  N   UNL     1      45.321   2.960  10.913  0.00  0.00    +0.000 N 
ATOM     11  H   UNL     1      46.267   2.640  11.089  0.00  0.00    +0.000 HD
BRANCH   9  12
ATOM     12  C   UNL     1      45.575   2.071   8.687  0.00  0.00    +0.000 A 
ATOM     13  C   UNL     1      45.500   0.686   8.743  0.00  0.00    +0.000 A 
ATOM     14  S   UNL     1      46.460  -0.100   7.573  0.00  0.00    +0.000 S 
ATOM     15  C   UNL     1      46.974   1.382   6.919  0.00  0.00    +0.000 A 
ATOM     16  N   UNL     1      47.805   1.423   5.843  0.00  0.00    +0.000 NA
ATOM     17  C   UNL     1      48.086   2.611   5.426  0.00  0.00    +0.000 A 
ATOM     18  N   UNL     1      47.619   3.769   5.997  0.00  0.00    +0.000 N 
ATOM     19  C   UNL     1      46.840   3.779   7.126  0.00  0.00    +0.000 A 
ATOM     20  O   UNL     1      46.551   4.831   7.686  0.00  0.00    +0.000 OA
ATOM     21  C   UNL     1      46.450   2.464   7.605  0.00  0.00    +0.000 A 
ATOM     22  H   UNL     1      47.905   4.669   5.641  0.00  0.00    +0.000 HD
ENDBRANCH   9  12
ENDBRANCH   7  10
ENDBRANCH   1   7
BRANCH   4  23
ATOM     23  C   UNL     1      48.559   7.291  14.375  0.00  0.00    +0.000 C 
BRANCH  23  24
ATOM     24  N   UNL     1      48.533   7.321  15.823  0.00  0.00    +0.000 N 
ATOM     25  C   UNL     1      49.548   6.771  16.580  0.00  0.00    +0.000 C 
ATOM     26  O   UNL     1      50.500   6.179  16.077  0.00  0.00    +0.000 OA
ATOM     27  H   UNL     1      47.645   7.527  16.263  0.00  0.00    +0.000 HD
BRANCH  25  28
ATOM     28  C   UNL     1      49.380   7.009  18.104  0.00  0.00    +0.000 C 
ATOM     29  C   UNL     1      47.943   6.811  18.600  0.00  0.00    +0.000 C 
ATOM     30  C   UNL     1      47.513   5.345  18.595  0.00  0.00    +0.000 C 
ATOM     31  C   UNL     1      48.542   4.471  19.302  0.00  0.00    +0.000 C 
ATOM     32  C   UNL     1      49.956   4.735  18.794  0.00  0.00    +0.000 C 
ATOM     33  N   UNL     1      50.319   6.153  18.872  0.00  0.00    +0.000 NA
ATOM     34  H   UNL     1      51.259   6.269  18.501  0.00  0.00    +0.000 HD
ENDBRANCH  25  28
ENDBRANCH  23  24
ENDBRANCH   4  23
TORSDOF 6
ENDMDL
MODEL 6
REMARK VINA RESULT:    -6.227      3.378      5.201
REMARK INTER + INTRA:          -9.343
REMARK INTER:                  -8.647
REMARK INTRA:                  -0.697
REMARK UNBOUND:                -0.932
REMARK  Name = 
REMARK  6 active torsions:
REMARK  status: ('A' for Active; 'I' for Inactive)
REMARK    1  A    between atoms: C_2  and  C_21
REMARK    2  A    between atoms: N_3  and  C_4
REMARK    3  A    between atoms: C_4  and  C_5
REMARK    4  A    between atoms: C_8  and  C_9
REMARK    5  A    between atoms: C_9  and  N_10
REMARK    6  A    between atoms: C_11  and  C_13
REMARK                            x       y       z     vdW  Elec       q    Type
REMARK                         _______ _______ _______ _____ _____    ______ ____
ROOT
ATOM      1  C   UNL     1      50.004   8.018  16.329  0.00  0.00    +0.000 A 
ATOM      2  C   UNL     1      49.194   9.110  16.009  0.00  0.00    +0.000 A 
ATOM      3  C   UNL     1      48.289   9.014  14.955  0.00  0.00    +0.000 A 
ATOM      4  C   UNL     1      48.224   7.828  14.227  0.00  0.00    +0.000 A 
ATOM      5  N   UNL     1      49.001   6.753  14.519  0.00  0.00    +0.000 NA
ATOM      6  C   UNL     1      49.875   6.878  15.545  0.00  0.00    +0.000 A 
ENDROOT
BRANCH   1   7
ATOM      7  C   UNL     1      50.992   8.067  17.456  0.00  0.00    +0.000 C 
BRANCH   7  10
ATOM      8  O   UNL     1      51.046   6.542  19.822  0.00  0.00    +0.000 OA
ATOM      9  C   UNL     1      51.600   6.100  18.821  0.00  0.00    +0.000 C 
ATOM     10  N   UNL     1      51.647   6.797  17.642  0.00  0.00    +0.000 N 
ATOM     11  H   UNL     1      51.964   6.330  16.799  0.00  0.00    +0.000 HD
BRANCH   9  12
ATOM     12  C   UNL     1      52.292   4.803  18.833  0.00  0.00    +0.000 A 
ATOM     13  C   UNL     1      53.505   4.675  19.495  0.00  0.00    +0.000 A 
ATOM     14  S   UNL     1      54.178   3.111  19.396  0.00  0.00    +0.000 S 
ATOM     15  C   UNL     1      52.850   2.536  18.506  0.00  0.00    +0.000 A 
ATOM     16  N   UNL     1      52.776   1.234  18.120  0.00  0.00    +0.000 NA
ATOM     17  C   UNL     1      51.698   0.923  17.482  0.00  0.00    +0.000 A 
ATOM     18  N   UNL     1      50.687   1.803  17.184  0.00  0.00    +0.000 N 
ATOM     19  C   UNL     1      50.751   3.139  17.488  0.00  0.00    +0.000 A 
ATOM     20  O   UNL     1      49.893   3.920  17.091  0.00  0.00    +0.000 OA
ATOM     21  C   UNL     1      51.921   3.531  18.254  0.00  0.00    +0.000 A 
ATOM     22  H   UNL     1      49.883   1.502  16.652  0.00  0.00    +0.000 HD
ENDBRANCH   9  12
ENDBRANCH   7  10
ENDBRANCH   1   7
BRANCH   4  23
ATOM     23  C   UNL     1      47.275   7.697  13.061  0.00  0.00    +0.000 C 
BRANCH  23  24
ATOM     24  N   UNL     1      46.097   6.914  13.371  0.00  0.00    +0.000 N 
ATOM     25  C   UNL     1      45.330   6.331  12.382  0.00  0.00    +0.000 C 
ATOM     26  O   UNL     1      45.567   6.487  11.187  0.00  0.00    +0.000 OA
ATOM     27  H   UNL     1      45.710   7.012  14.301  0.00  0.00    +0.000 HD
BRANCH  25  28
ATOM     28  C   UNL     1      44.181   5.446  12.931  0.00  0.00    +0.000 C 
ATOM     29  C   UNL     1      43.020   5.267  11.945  0.00  0.00    +0.000 C 
ATOM     30  C   UNL     1      43.385   4.377  10.758  0.00  0.00    +0.000 C 
ATOM     31  C   UNL     1      44.011   3.069  11.228  0.00  0.00    +0.000 C 
ATOM     32  C   UNL     1      45.135   3.306  12.233  0.00  0.00    +0.000 C 
ATOM     33  N   UNL     1      44.701   4.126  13.368  0.00  0.00    +0.000 NA
ATOM     34  H   UNL     1      45.496   4.267  13.989  0.00  0.00    +0.000 HD
ENDBRANCH  25  28
ENDBRANCH  23  24
ENDBRANCH   4  23
TORSDOF 6
ENDMDL
MODEL 7
REMARK VINA RESULT:    -6.179      5.468      8.977
REMARK INTER + INTRA:          -9.278
REMARK INTER:                  -8.367
REMARK INTRA:                  -0.911
REMARK UNBOUND:                -0.932
REMARK  Name = 
REMARK  6 active torsions:
REMARK  status: ('A' for Active; 'I' for Inactive)
REMARK    1  A    between atoms: C_2  and  C_21
REMARK    2  A    between atoms: N_3  and  C_4
REMARK    3  A    between atoms: C_4  and  C_5
REMARK    4  A    between atoms: C_8  and  C_9
REMARK    5  A    between atoms: C_9  and  N_10
REMARK    6  A    between atoms: C_11  and  C_13
REMARK                            x       y       z     vdW  Elec       q    Type
REMARK                         _______ _______ _______ _____ _____    ______ ____
ROOT
ATOM      1  C   UNL     1      47.796   8.410  12.180  0.00  0.00    +0.000 A 
ATOM      2  C   UNL     1      48.553   9.519  11.795  0.00  0.00    +0.000 A 
ATOM      3  C   UNL     1      49.920   9.548  12.059  0.00  0.00    +0.000 A 
ATOM      4  C   UNL     1      50.502   8.471  12.723  0.00  0.00    +0.000 A 
ATOM      5  N   UNL     1      49.788   7.382  13.108  0.00  0.00    +0.000 NA
ATOM      6  C   UNL     1      48.460   7.384  12.842  0.00  0.00    +0.000 A 
ENDROOT
BRANCH   1   7
ATOM      7  C   UNL     1      46.323   8.326  11.916  0.00  0.00    +0.000 C 
BRANCH   7  10
ATOM      8  O   UNL     1      43.700   7.452  11.379  0.00  0.00    +0.000 OA
ATOM      9  C   UNL     1      44.602   6.622  11.427  0.00  0.00    +0.000 C 
ATOM     10  N   UNL     1      45.897   6.963  11.716  0.00  0.00    +0.000 N 
ATOM     11  H   UNL     1      46.635   6.280  11.582  0.00  0.00    +0.000 HD
BRANCH   9  12
ATOM     12  C   UNL     1      44.342   5.190  11.218  0.00  0.00    +0.000 A 
ATOM     13  C   UNL     1      43.557   4.492  12.126  0.00  0.00    +0.000 A 
ATOM     14  S   UNL     1      43.370   2.841  11.742  0.00  0.00    +0.000 S 
ATOM     15  C   UNL     1      44.293   3.009  10.325  0.00  0.00    +0.000 A 
ATOM     16  N   UNL     1      44.497   1.953   9.492  0.00  0.00    +0.000 NA
ATOM     17  C   UNL     1      45.183   2.228   8.434  0.00  0.00    +0.000 A 
ATOM     18  N   UNL     1      45.696   3.466   8.138  0.00  0.00    +0.000 N 
ATOM     19  C   UNL     1      45.579   4.541   8.982  0.00  0.00    +0.000 A 
ATOM     20  O   UNL     1      46.161   5.595   8.749  0.00  0.00    +0.000 OA
ATOM     21  C   UNL     1      44.769   4.298  10.163  0.00  0.00    +0.000 A 
ATOM     22  H   UNL     1      46.254   3.606   7.308  0.00  0.00    +0.000 HD
ENDBRANCH   9  12
ENDBRANCH   7  10
ENDBRANCH   1   7
BRANCH   4  23
ATOM     23  C   UNL     1      51.975   8.481  13.052  0.00  0.00    +0.000 C 
BRANCH  23  24
ATOM     24  N   UNL     1      52.801   7.971  11.977  0.00  0.00    +0.000 N 
ATOM     25  C   UNL     1      53.502   8.814  11.136  0.00  0.00    +0.000 C 
ATOM     26  O   UNL     1      53.423  10.037  11.214  0.00  0.00    +0.000 OA
ATOM     27  H   UNL     1      52.657   7.009  11.701  0.00  0.00    +0.000 HD
BRANCH  25  28
ATOM     28  C   UNL     1      54.410   8.065  10.126  0.00  0.00    +0.000 C 
ATOM     29  C   UNL     1      53.945   6.634   9.829  0.00  0.00    +0.000 C 
ATOM     30  C   UNL     1      52.668   6.589   8.993  0.00  0.00    +0.000 C 
ATOM     31  C   UNL     1      52.791   7.474   7.758  0.00  0.00    +0.000 C 
ATOM     32  C   UNL     1      53.290   8.873   8.109  0.00  0.00    +0.000 C 
ATOM     33  N   UNL     1      54.544   8.841   8.869  0.00  0.00    +0.000 NA
ATOM     34  H   UNL     1      54.813   9.797   9.091  0.00  0.00    +0.000 HD
ENDBRANCH  25  28
ENDBRANCH  23  24
ENDBRANCH   4  23
TORSDOF 6
ENDMDL
MODEL 8
REMARK VINA RESULT:    -6.155      3.037      4.675
REMARK INTER + INTRA:          -9.245
REMARK INTER:                  -8.231
REMARK INTRA:                  -1.014
REMARK UNBOUND:                -0.932
REMARK  Name = 
REMARK  6 active torsions:
REMARK  status: ('A' for Active; 'I' for Inactive)
REMARK    1  A    between atoms: C_2  and  C_21
REMARK    2  A    between atoms: N_3  and  C_4
REMARK    3  A    between atoms: C_4  and  C_5
REMARK    4  A    between atoms: C_8  and  C_9
REMARK    5  A    between atoms: C_9  and  N_10
REMARK    6  A    between atoms: C_11  and  C_13
REMARK                            x       y       z     vdW  Elec       q    Type
REMARK                         _______ _______ _______ _____ _____    ______ ____
ROOT
ATOM      1  C   UNL     1      48.807   9.074  13.903  0.00  0.00    +0.000 A 
ATOM      2  C   UNL     1      48.903   9.591  12.609  0.00  0.00    +0.000 A 
ATOM      3  C   UNL     1      47.755   9.723  11.831  0.00  0.00    +0.000 A 
ATOM      4  C   UNL     1      46.532   9.315  12.358  0.00  0.00    +0.000 A 
ATOM      5  N   UNL     1      46.414   8.808  13.612  0.00  0.00    +0.000 NA
ATOM      6  C   UNL     1      47.547   8.688  14.343  0.00  0.00    +0.000 A 
ENDROOT
BRANCH   1   7
ATOM      7  C   UNL     1      50.010   8.915  14.783  0.00  0.00    +0.000 C 
BRANCH   7  10
ATOM      8  O   UNL     1      51.954   7.026  15.548  0.00  0.00    +0.000 OA
ATOM      9  C   UNL     1      50.845   6.979  16.071  0.00  0.00    +0.000 C 
ATOM     10  N   UNL     1      49.836   7.840  15.728  0.00  0.00    +0.000 N 
ATOM     11  H   UNL     1      48.997   7.877  16.297  0.00  0.00    +0.000 HD
BRANCH   9  12
ATOM     12  C   UNL     1      50.512   5.960  17.077  0.00  0.00    +0.000 A 
ATOM     13  C   UNL     1      51.329   5.793  18.186  0.00  0.00    +0.000 A 
ATOM     14  S   UNL     1      50.807   4.559  19.242  0.00  0.00    +0.000 S 
ATOM     15  C   UNL     1      49.444   4.235  18.279  0.00  0.00    +0.000 A 
ATOM     16  N   UNL     1      48.538   3.289  18.643  0.00  0.00    +0.000 NA
ATOM     17  C   UNL     1      47.533   3.172  17.842  0.00  0.00    +0.000 A 
ATOM     18  N   UNL     1      47.357   3.910  16.698  0.00  0.00    +0.000 N 
ATOM     19  C   UNL     1      48.280   4.823  16.253  0.00  0.00    +0.000 A 
ATOM     20  O   UNL     1      48.156   5.368  15.162  0.00  0.00    +0.000 OA
ATOM     21  C   UNL     1      49.405   5.032  17.148  0.00  0.00    +0.000 A 
ATOM     22  H   UNL     1      46.563   3.745  16.096  0.00  0.00    +0.000 HD
ENDBRANCH   9  12
ENDBRANCH   7  10
ENDBRANCH   1   7
BRANCH   4  23
ATOM     23  C   UNL     1      45.272   9.416  11.533  0.00  0.00    +0.000 C 
BRANCH  23  24
ATOM     24  N   UNL     1      44.342   8.334  11.780  0.00  0.00    +0.000 N 
ATOM     25  C   UNL     1      44.583   7.051  11.329  0.00  0.00    +0.000 C 
ATOM     26  O   UNL     1      45.565   6.765  10.648  0.00  0.00    +0.000 OA
ATOM     27  H   UNL     1      43.406   8.587  12.068  0.00  0.00    +0.000 HD
BRANCH  25  28
ATOM     28  C   UNL     1      43.520   6.022  11.795  0.00  0.00    +0.000 C 
ATOM     29  C   UNL     1      43.430   4.784  10.893  0.00  0.00    +0.000 C 
ATOM     30  C   UNL     1      44.643   3.867  11.027  0.00  0.00    +0.000 C 
ATOM     31  C   UNL     1      44.933   3.552  12.490  0.00  0.00    +0.000 C 
ATOM     32  C   UNL     1      44.977   4.816  13.344  0.00  0.00    +0.000 C 
ATOM     33  N   UNL     1      43.761   5.624  13.204  0.00  0.00    +0.000 NA
ATOM     34  H   UNL     1      43.859   6.459  13.777  0.00  0.00    +0.000 HD
ENDBRANCH  25  28
ENDBRANCH  23  24
ENDBRANCH   4  23
TORSDOF 6
ENDMDL
MODEL 9
REMARK VINA RESULT:    -5.932      5.976      8.247
REMARK INTER + INTRA:          -8.944
REMARK INTER:                  -8.447
REMARK INTRA:                  -0.497
REMARK UNBOUND:                -0.932
REMARK  Name = 
REMARK  6 active torsions:
REMARK  status: ('A' for Active; 'I' for Inactive)
REMARK    1  A    between atoms: C_2  and  C_21
REMARK    2  A    between atoms: N_3  and  C_4
REMARK    3  A    between atoms: C_4  and  C_5
REMARK    4  A    between atoms: C_8  and  C_9
REMARK    5  A    between atoms: C_9  and  N_10
REMARK    6  A    between atoms: C_11  and  C_13
REMARK                            x       y       z     vdW  Elec       q    Type
REMARK                         _______ _______ _______ _____ _____    ______ ____
ROOT
ATOM      1  C   UNL     1      49.072   8.915  13.363  0.00  0.00    +0.000 A 
ATOM      2  C   UNL     1      48.598   9.664  12.284  0.00  0.00    +0.000 A 
ATOM      3  C   UNL     1      49.501  10.278  11.420  0.00  0.00    +0.000 A 
ATOM      4  C   UNL     1      50.866  10.148  11.665  0.00  0.00    +0.000 A 
ATOM      5  N   UNL     1      51.351   9.426  12.708  0.00  0.00    +0.000 NA
ATOM      6  C   UNL     1      50.450   8.843  13.534  0.00  0.00    +0.000 A 
ENDROOT
BRANCH   1   7
ATOM      7  C   UNL     1      48.144   8.230  14.320  0.00  0.00    +0.000 C 
BRANCH   7  10
ATOM      8  O   UNL     1      47.953   5.817  12.881  0.00  0.00    +0.000 OA
ATOM      9  C   UNL     1      46.954   6.518  12.995  0.00  0.00    +0.000 C 
ATOM     10  N   UNL     1      46.973   7.721  13.651  0.00  0.00    +0.000 N 
ATOM     11  H   UNL     1      46.098   8.186  13.866  0.00  0.00    +0.000 HD
BRANCH   9  12
ATOM     12  C   UNL     1      45.669   6.130  12.394  0.00  0.00    +0.000 A 
ATOM     13  C   UNL     1      44.885   7.088  11.764  0.00  0.00    +0.000 A 
ATOM     14  S   UNL     1      43.423   6.472  11.138  0.00  0.00    +0.000 S 
ATOM     15  C   UNL     1      43.805   4.895  11.645  0.00  0.00    +0.000 A 
ATOM     16  N   UNL     1      42.971   3.854  11.385  0.00  0.00    +0.000 NA
ATOM     17  C   UNL     1      43.400   2.707  11.792  0.00  0.00    +0.000 A 
ATOM     18  N   UNL     1      44.588   2.507  12.449  0.00  0.00    +0.000 N 
ATOM     19  C   UNL     1      45.426   3.536  12.798  0.00  0.00    +0.000 A 
ATOM     20  O   UNL     1      46.412   3.338  13.499  0.00  0.00    +0.000 OA
ATOM     21  C   UNL     1      45.015   4.843  12.315  0.00  0.00    +0.000 A 
ATOM     22  H   UNL     1      44.849   1.587  12.771  0.00  0.00    +0.000 HD
ENDBRANCH   9  12
ENDBRANCH   7  10
ENDBRANCH   1   7
BRANCH   4  23
ATOM     23  C   UNL     1      51.873  10.824  10.767  0.00  0.00    +0.000 C 
BRANCH  23  24
ATOM     24  N   UNL     1      52.763   9.891  10.107  0.00  0.00    +0.000 N 
ATOM     25  C   UNL     1      52.999   9.948   8.748  0.00  0.00    +0.000 C 
ATOM     26  O   UNL     1      52.430  10.752   8.013  0.00  0.00    +0.000 OA
ATOM     27  H   UNL     1      53.010   9.051  10.615  0.00  0.00    +0.000 HD
BRANCH  25  28
ATOM     28  C   UNL     1      54.067   8.934   8.262  0.00  0.00    +0.000 C 
ATOM     29  C   UNL     1      54.074   7.623   9.059  0.00  0.00    +0.000 C 
ATOM     30  C   UNL     1      52.852   6.753   8.774  0.00  0.00    +0.000 C 
ATOM     31  C   UNL     1      52.649   6.569   7.274  0.00  0.00    +0.000 C 
ATOM     32  C   UNL     1      52.686   7.901   6.529  0.00  0.00    +0.000 C 
ATOM     33  N   UNL     1      53.907   8.661   6.812  0.00  0.00    +0.000 NA
ATOM     34  H   UNL     1      53.864   9.544   6.307  0.00  0.00    +0.000 HD
ENDBRANCH  25  28
ENDBRANCH  23  24
ENDBRANCH   4  23
TORSDOF 6
ENDMDL
