MODEL 1
REMARK VINA RESULT:    -7.335      0.000      0.000
REMARK INTER + INTRA:         -13.304
REMARK INTER:                 -11.623
REMARK INTRA:                  -1.682
REMARK UNBOUND:                -1.682
REMARK  Name = 
REMARK  12 active torsions:
REMARK  status: ('A' for Active; 'I' for Inactive)
REMARK    1  A    between atoms: C_1  and  C_2
REMARK    2  A    between atoms: C_2  and  N_3
REMARK    3  A    between atoms: C_2  and  C_22
REMARK    4  A    between atoms: N_3  and  C_4
REMARK    5  A    between atoms: C_4  and  C_5
REMARK    6  A    between atoms: C_8  and  C_9
REMARK    7  A    between atoms: C_9  and  O_10
REMARK    8  A    between atoms: C_9  and  C_11
REMARK    9  A    between atoms: C_11  and  N_12
REMARK   10  A    between atoms: C_16  and  C_17
REMARK   11  A    between atoms: C_17  and  O_19
REMARK   12  A    between atoms: C_22  and  C_24
REMARK                            x       y       z     vdW  Elec       q    Type
REMARK                         _______ _______ _______ _____ _____    ______ ____
ROOT
ATOM      1  C   UNL     1      47.690   6.254  13.623  0.00  0.00    +0.000 A 
ATOM      2  C   UNL     1      47.126   4.979  13.579  0.00  0.00    +0.000 A 
ATOM      3  C   UNL     1      47.147   4.162  14.704  0.00  0.00    +0.000 A 
ATOM      4  C   UNL     1      47.746   4.607  15.895  0.00  0.00    +0.000 A 
ATOM      5  C   UNL     1      48.344   5.875  15.923  0.00  0.00    +0.000 A 
ATOM      6  C   UNL     1      48.313   6.693  14.797  0.00  0.00    +0.000 A 
ENDROOT
BRANCH   1   7
ATOM      7  C   UNL     1      47.642   7.145  12.415  0.00  0.00    +0.000 C 
BRANCH   7   8
ATOM      8  N   UNL     1      46.504   6.802  11.558  0.00  0.00    +0.000 NA
ATOM      9  H   UNL     1      46.476   5.784  11.447  0.00  0.00    +0.000 HD
BRANCH   8  11
ATOM     10  C   UNL     1      45.192   8.777  12.087  0.00  0.00    +0.000 C 
ATOM     11  C   UNL     1      45.235   7.251  12.169  0.00  0.00    +0.000 C 
BRANCH  11  12
ATOM     12  C   UNL     1      44.014   6.555  11.479  0.00  0.00    +0.000 C 
ATOM     13  O   UNL     1      43.082   7.220  11.023  0.00  0.00    +0.000 OA
BRANCH  12  14
ATOM     14  C   UNL     1      44.026   5.088  11.356  0.00  0.00    +0.000 A 
ATOM     15  C   UNL     1      43.471   4.259  12.316  0.00  0.00    +0.000 A 
ATOM     16  S   UNL     1      43.473   2.612  11.873  0.00  0.00    +0.000 S 
ATOM     17  C   UNL     1      44.214   2.952  10.392  0.00  0.00    +0.000 A 
ATOM     18  N   UNL     1      44.441   1.970   9.471  0.00  0.00    +0.000 NA
ATOM     19  C   UNL     1      44.946   2.391   8.363  0.00  0.00    +0.000 A 
ATOM     20  N   UNL     1      45.303   3.692   8.099  0.00  0.00    +0.000 N 
ATOM     21  C   UNL     1      45.326   4.652   9.097  0.00  0.00    +0.000 A 
ATOM     22  O   UNL     1      46.054   5.635   9.021  0.00  0.00    +0.000 OA
ATOM     23  C   UNL     1      44.548   4.292  10.265  0.00  0.00    +0.000 A 
ATOM     24  H   UNL     1      45.809   3.917   7.259  0.00  0.00    +0.000 HD
ENDBRANCH  12  14
ENDBRANCH  11  12
ENDBRANCH   8  11
ENDBRANCH   7   8
ENDBRANCH   1   7
BRANCH   4  25
ATOM     25  C   UNL     1      47.758   3.703  17.108  0.00  0.00    +0.000 C 
BRANCH  25  26
ATOM     26  O   UNL     1      46.442   3.291  17.483  0.00  0.00    +0.000 OA
ATOM     27  H   UNL     1      45.864   3.398  16.710  0.00  0.00    +0.000 HD
ENDBRANCH  25  26
BRANCH  25  28
ATOM     28  C   UNL     1      48.450   4.386  18.319  0.00  0.00    +0.000 C 
BRANCH  28  29
ATOM     29  N   UNL     1      49.778   3.810  18.657  0.00  0.00    +0.000 NA
ATOM     30  C   UNL     1      50.575   4.754  19.472  0.00  0.00    +0.000 C 
ATOM     31  C   UNL     1      51.151   5.728  18.462  0.00  0.00    +0.000 C 
ATOM     32  C   UNL     1      51.549   4.808  17.324  0.00  0.00    +0.000 C 
ATOM     33  C   UNL     1      50.608   3.607  17.427  0.00  0.00    +0.000 C 
BRANCH  33  34
ATOM     34  C   UNL     1      51.359   2.269  17.547  0.00  0.00    +0.000 C 
ATOM     35  O   UNL     1      52.364   2.098  18.222  0.00  0.00    +0.000 OA
BRANCH  34  36
ATOM     36  O   UNL     1      50.834   1.298  16.760  0.00  0.00    +0.000 OA
ATOM     37  H   UNL     1      50.019   1.646  16.323  0.00  0.00    +0.000 HD
ENDBRANCH  34  36
ENDBRANCH  33  34
ENDBRANCH  28  29
ENDBRANCH  25  28
ENDBRANCH   4  25
TORSDOF 11
ENDMDL
MODEL 2
REMARK VINA RESULT:    -7.114      2.963      8.109
REMARK INTER + INTRA:         -12.955
REMARK INTER:                 -10.811
REMARK INTRA:                  -2.144
REMARK UNBOUND:                -1.682
REMARK  Name = 
REMARK  12 active torsions:
REMARK  status: ('A' for Active; 'I' for Inactive)
REMARK    1  A    between atoms: C_1  and  C_2
REMARK    2  A    between atoms: C_2  and  N_3
REMARK    3  A    between atoms: C_2  and  C_22
REMARK    4  A    between atoms: N_3  and  C_4
REMARK    5  A    between atoms: C_4  and  C_5
REMARK    6  A    between atoms: C_8  and  C_9
REMARK    7  A    between atoms: C_9  and  O_10
REMARK    8  A    between atoms: C_9  and  C_11
REMARK    9  A    between atoms: C_11  and  N_12
REMARK   10  A    between atoms: C_16  and  C_17
REMARK   11  A    between atoms: C_17  and  O_19
REMARK   12  A    between atoms: C_22  and  C_24
REMARK                            x       y       z     vdW  Elec       q    Type
REMARK                         _______ _______ _______ _____ _____    ______ ____
ROOT
ATOM      1  C   UNL     1      48.940   8.191  13.183  0.00  0.00    +0.000 A 
ATOM      2  C   UNL     1      48.740   7.286  12.140  0.00  0.00    +0.000 A 
ATOM      3  C   UNL     1      47.468   7.094  11.611  0.00  0.00    +0.000 A 
ATOM      4  C   UNL     1      46.368   7.800  12.127  0.00  0.00    +0.000 A 
ATOM      5  C   UNL     1      46.569   8.680  13.199  0.00  0.00    +0.000 A 
ATOM      6  C   UNL     1      47.845   8.877  13.721  0.00  0.00    +0.000 A 
ENDROOT
BRANCH   1   7
ATOM      7  C   UNL     1      50.317   8.417  13.735  0.00  0.00    +0.000 C 
BRANCH   7   8
ATOM      8  N   UNL     1      50.649   7.404  14.742  0.00  0.00    +0.000 NA
ATOM      9  H   UNL     1      51.526   6.950  14.469  0.00  0.00    +0.000 HD
BRANCH   8  11
ATOM     10  C   UNL     1      51.097   9.518  15.855  0.00  0.00    +0.000 C 
ATOM     11  C   UNL     1      50.828   8.028  16.071  0.00  0.00    +0.000 C 
BRANCH  11  12
ATOM     12  C   UNL     1      49.588   7.745  16.983  0.00  0.00    +0.000 C 
ATOM     13  O   UNL     1      48.666   8.559  17.068  0.00  0.00    +0.000 OA
BRANCH  12  14
ATOM     14  C   UNL     1      49.534   6.464  17.708  0.00  0.00    +0.000 A 
ATOM     15  C   UNL     1      50.215   6.255  18.896  0.00  0.00    +0.000 A 
ATOM     16  S   UNL     1      49.871   4.749  19.619  0.00  0.00    +0.000 S 
ATOM     17  C   UNL     1      48.808   4.329  18.373  0.00  0.00    +0.000 A 
ATOM     18  N   UNL     1      48.096   3.165  18.411  0.00  0.00    +0.000 NA
ATOM     19  C   UNL     1      47.275   3.015  17.430  0.00  0.00    +0.000 A 
ATOM     20  N   UNL     1      47.131   3.887  16.376  0.00  0.00    +0.000 N 
ATOM     21  C   UNL     1      48.017   4.933  16.179  0.00  0.00    +0.000 A 
ATOM     22  O   UNL     1      48.208   5.407  15.065  0.00  0.00    +0.000 OA
ATOM     23  C   UNL     1      48.780   5.278  17.362  0.00  0.00    +0.000 A 
ATOM     24  H   UNL     1      46.562   3.635  15.586  0.00  0.00    +0.000 HD
ENDBRANCH  12  14
ENDBRANCH  11  12
ENDBRANCH   8  11
ENDBRANCH   7   8
ENDBRANCH   1   7
BRANCH   4  25
ATOM     25  C   UNL     1      44.994   7.576  11.538  0.00  0.00    +0.000 C 
BRANCH  25  26
ATOM     26  O   UNL     1      44.124   8.688  11.766  0.00  0.00    +0.000 OA
ATOM     27  H   UNL     1      43.279   8.500  11.324  0.00  0.00    +0.000 HD
ENDBRANCH  25  26
BRANCH  25  28
ATOM     28  C   UNL     1      44.339   6.285  12.098  0.00  0.00    +0.000 C 
BRANCH  28  29
ATOM     29  N   UNL     1      43.915   5.320  11.049  0.00  0.00    +0.000 NA
ATOM     30  C   UNL     1      42.892   4.385  11.568  0.00  0.00    +0.000 C 
ATOM     31  C   UNL     1      43.688   3.346  12.333  0.00  0.00    +0.000 C 
ATOM     32  C   UNL     1      44.877   3.119  11.419  0.00  0.00    +0.000 C 
ATOM     33  C   UNL     1      45.047   4.428  10.646  0.00  0.00    +0.000 C 
BRANCH  33  34
ATOM     34  C   UNL     1      45.008   4.228   9.120  0.00  0.00    +0.000 C 
ATOM     35  O   UNL     1      44.513   3.262   8.561  0.00  0.00    +0.000 OA
BRANCH  34  36
ATOM     36  O   UNL     1      45.653   5.211   8.444  0.00  0.00    +0.000 OA
ATOM     37  H   UNL     1      45.369   5.190   7.498  0.00  0.00    +0.000 HD
ENDBRANCH  34  36
ENDBRANCH  33  34
ENDBRANCH  28  29
ENDBRANCH  25  28
ENDBRANCH   4  25
TORSDOF 11
ENDMDL
MODEL 3
REMARK VINA RESULT:    -6.904      2.918      9.064
REMARK INTER + INTRA:         -12.622
REMARK INTER:                 -11.454
REMARK INTRA:                  -1.168
REMARK UNBOUND:                -1.682
REMARK  Name = 
REMARK  12 active torsions:
REMARK  status: ('A' for Active; 'I' for Inactive)
REMARK    1  A    between atoms: C_1  and  C_2
REMARK    2  A    between atoms: C_2  and  N_3
REMARK    3  A    between atoms: C_2  and  C_22
REMARK    4  A    between atoms: N_3  and  C_4
REMARK    5  A    between atoms: C_4  and  C_5
REMARK    6  A    between atoms: C_8  and  C_9
REMARK    7  A    between atoms: C_9  and  O_10
REMARK    8  A    between atoms: C_9  and  C_11
REMARK    9  A    between atoms: C_11  and  N_12
REMARK   10  A    between atoms: C_16  and  C_17
REMARK   11  A    between atoms: C_17  and  O_19
REMARK   12  A    between atoms: C_22  and  C_24
REMARK                            x       y       z     vdW  Elec       q    Type
REMARK                         _______ _______ _______ _____ _____    ______ ____
ROOT
ATOM      1  C   UNL     1      48.201   7.187  14.333  0.00  0.00    +0.000 A 
ATOM      2  C   UNL     1      47.561   5.990  14.009  0.00  0.00    +0.000 A 
ATOM      3  C   UNL     1      46.561   5.968  13.044  0.00  0.00    +0.000 A 
ATOM      4  C   UNL     1      46.175   7.151  12.391  0.00  0.00    +0.000 A 
ATOM      5  C   UNL     1      46.795   8.357  12.747  0.00  0.00    +0.000 A 
ATOM      6  C   UNL     1      47.803   8.374  13.707  0.00  0.00    +0.000 A 
ENDROOT
BRANCH   1   7
ATOM      7  C   UNL     1      49.300   7.205  15.356  0.00  0.00    +0.000 C 
BRANCH   7   8
ATOM      8  N   UNL     1      49.385   5.918  16.053  0.00  0.00    +0.000 NA
ATOM      9  H   UNL     1      50.199   5.409  15.696  0.00  0.00    +0.000 HD
BRANCH   8  11
ATOM     10  C   UNL     1      48.316   6.868  18.017  0.00  0.00    +0.000 C 
ATOM     11  C   UNL     1      49.549   6.121  17.508  0.00  0.00    +0.000 C 
BRANCH  11  12
ATOM     12  C   UNL     1      49.791   4.754  18.231  0.00  0.00    +0.000 C 
ATOM     13  O   UNL     1      48.849   4.105  18.689  0.00  0.00    +0.000 OA
BRANCH  12  14
ATOM     14  C   UNL     1      51.170   4.246  18.318  0.00  0.00    +0.000 A 
ATOM     15  C   UNL     1      52.205   4.997  18.851  0.00  0.00    +0.000 A 
ATOM     16  S   UNL     1      53.671   4.134  18.983  0.00  0.00    +0.000 S 
ATOM     17  C   UNL     1      52.974   2.738  18.333  0.00  0.00    +0.000 A 
ATOM     18  N   UNL     1      53.680   1.574  18.234  0.00  0.00    +0.000 NA
ATOM     19  C   UNL     1      52.997   0.577  17.786  0.00  0.00    +0.000 A 
ATOM     20  N   UNL     1      51.687   0.637  17.371  0.00  0.00    +0.000 N 
ATOM     21  C   UNL     1      51.034   1.848  17.216  0.00  0.00    +0.000 A 
ATOM     22  O   UNL     1      50.096   1.973  16.437  0.00  0.00    +0.000 OA
ATOM     23  C   UNL     1      51.664   2.942  17.928  0.00  0.00    +0.000 A 
ATOM     24  H   UNL     1      51.266  -0.154  16.915  0.00  0.00    +0.000 HD
ENDBRANCH  12  14
ENDBRANCH  11  12
ENDBRANCH   8  11
ENDBRANCH   7   8
ENDBRANCH   1   7
BRANCH   4  25
ATOM     25  C   UNL     1      45.084   7.105  11.344  0.00  0.00    +0.000 C 
BRANCH  25  26
ATOM     26  O   UNL     1      44.523   8.396  11.096  0.00  0.00    +0.000 OA
ATOM     27  H   UNL     1      45.232   8.970  10.760  0.00  0.00    +0.000 HD
ENDBRANCH  25  26
BRANCH  25  28
ATOM     28  C   UNL     1      43.953   6.120  11.745  0.00  0.00    +0.000 C 
BRANCH  28  29
ATOM     29  N   UNL     1      43.739   5.019  10.769  0.00  0.00    +0.000 NA
ATOM     30  C   UNL     1      42.963   3.914  11.375  0.00  0.00    +0.000 C 
ATOM     31  C   UNL     1      43.986   3.132  12.175  0.00  0.00    +0.000 C 
ATOM     32  C   UNL     1      45.179   3.117  11.238  0.00  0.00    +0.000 C 
ATOM     33  C   UNL     1      45.036   4.378  10.384  0.00  0.00    +0.000 C 
BRANCH  33  34
ATOM     34  C   UNL     1      45.016   4.077   8.875  0.00  0.00    +0.000 C 
ATOM     35  O   UNL     1      45.648   4.702   8.036  0.00  0.00    +0.000 OA
BRANCH  34  36
ATOM     36  O   UNL     1      44.158   3.079   8.549  0.00  0.00    +0.000 OA
ATOM     37  H   UNL     1      44.628   2.213   8.629  0.00  0.00    +0.000 HD
ENDBRANCH  34  36
ENDBRANCH  33  34
ENDBRANCH  28  29
ENDBRANCH  25  28
ENDBRANCH   4  25
TORSDOF 11
ENDMDL
MODEL 4
REMARK VINA RESULT:    -6.882      2.392      8.473
REMARK INTER + INTRA:         -12.587
REMARK INTER:                 -11.098
REMARK INTRA:                  -1.489
REMARK UNBOUND:                -1.682
REMARK  Name = 
REMARK  12 active torsions:
REMARK  status: ('A' for Active; 'I' for Inactive)
REMARK    1  A    between atoms: C_1  and  C_2
REMARK    2  A    between atoms: C_2  and  N_3
REMARK    3  A    between atoms: C_2  and  C_22
REMARK    4  A    between atoms: N_3  and  C_4
REMARK    5  A    between atoms: C_4  and  C_5
REMARK    6  A    between atoms: C_8  and  C_9
REMARK    7  A    between atoms: C_9  and  O_10
REMARK    8  A    between atoms: C_9  and  C_11
REMARK    9  A    between atoms: C_11  and  N_12
REMARK   10  A    between atoms: C_16  and  C_17
REMARK   11  A    between atoms: C_17  and  O_19
REMARK   12  A    between atoms: C_22  and  C_24
REMARK                            x       y       z     vdW  Elec       q    Type
REMARK                         _______ _______ _______ _____ _____    ______ ____
ROOT
ATOM      1  C   UNL     1      48.667   7.855  13.778  0.00  0.00    +0.000 A 
ATOM      2  C   UNL     1      48.569   6.854  12.811  0.00  0.00    +0.000 A 
ATOM      3  C   UNL     1      47.401   6.705  12.070  0.00  0.00    +0.000 A 
ATOM      4  C   UNL     1      46.304   7.553  12.293  0.00  0.00    +0.000 A 
ATOM      5  C   UNL     1      46.395   8.533  13.291  0.00  0.00    +0.000 A 
ATOM      6  C   UNL     1      47.568   8.685  14.025  0.00  0.00    +0.000 A 
ENDROOT
BRANCH   1   7
ATOM      7  C   UNL     1      49.937   8.031  14.558  0.00  0.00    +0.000 C 
BRANCH   7   8
ATOM      8  N   UNL     1      50.314   6.785  15.232  0.00  0.00    +0.000 NA
ATOM      9  H   UNL     1      51.100   6.366  14.726  0.00  0.00    +0.000 HD
BRANCH   8  11
ATOM     10  C   UNL     1      50.780   8.566  16.817  0.00  0.00    +0.000 C 
ATOM     11  C   UNL     1      50.730   7.049  16.625  0.00  0.00    +0.000 C 
BRANCH  11  12
ATOM     12  C   UNL     1      49.775   6.326  17.632  0.00  0.00    +0.000 C 
ATOM     13  O   UNL     1      49.229   6.948  18.546  0.00  0.00    +0.000 OA
BRANCH  12  14
ATOM     14  C   UNL     1      49.517   4.889  17.438  0.00  0.00    +0.000 A 
ATOM     15  C   UNL     1      48.305   4.410  16.969  0.00  0.00    +0.000 A 
ATOM     16  S   UNL     1      48.305   2.728  16.684  0.00  0.00    +0.000 S 
ATOM     17  C   UNL     1      49.915   2.587  17.179  0.00  0.00    +0.000 A 
ATOM     18  N   UNL     1      50.576   1.394  17.111  0.00  0.00    +0.000 NA
ATOM     19  C   UNL     1      51.816   1.455  17.454  0.00  0.00    +0.000 A 
ATOM     20  N   UNL     1      52.455   2.582  17.916  0.00  0.00    +0.000 N 
ATOM     21  C   UNL     1      51.751   3.729  18.240  0.00  0.00    +0.000 A 
ATOM     22  O   UNL     1      52.183   4.534  19.058  0.00  0.00    +0.000 OA
ATOM     23  C   UNL     1      50.430   3.785  17.649  0.00  0.00    +0.000 A 
ATOM     24  H   UNL     1      53.389   2.517  18.284  0.00  0.00    +0.000 HD
ENDBRANCH  12  14
ENDBRANCH  11  12
ENDBRANCH   8  11
ENDBRANCH   7   8
ENDBRANCH   1   7
BRANCH   4  25
ATOM     25  C   UNL     1      45.043   7.374  11.476  0.00  0.00    +0.000 C 
BRANCH  25  26
ATOM     26  O   UNL     1      44.281   8.581  11.394  0.00  0.00    +0.000 OA
ATOM     27  H   UNL     1      44.896   9.329  11.477  0.00  0.00    +0.000 HD
ENDBRANCH  25  26
BRANCH  25  28
ATOM     28  C   UNL     1      44.152   6.239  12.049  0.00  0.00    +0.000 C 
BRANCH  28  29
ATOM     29  N   UNL     1      43.847   5.162  11.071  0.00  0.00    +0.000 NA
ATOM     30  C   UNL     1      43.014   4.104  11.687  0.00  0.00    +0.000 C 
ATOM     31  C   UNL     1      44.001   3.252  12.460  0.00  0.00    +0.000 C 
ATOM     32  C   UNL     1      45.171   3.168  11.498  0.00  0.00    +0.000 C 
ATOM     33  C   UNL     1      45.093   4.442  10.655  0.00  0.00    +0.000 C 
BRANCH  33  34
ATOM     34  C   UNL     1      45.022   4.153   9.145  0.00  0.00    +0.000 C 
ATOM     35  O   UNL     1      44.589   3.120   8.657  0.00  0.00    +0.000 OA
BRANCH  34  36
ATOM     36  O   UNL     1      45.564   5.143   8.394  0.00  0.00    +0.000 OA
ATOM     37  H   UNL     1      45.209   5.079   7.474  0.00  0.00    +0.000 HD
ENDBRANCH  34  36
ENDBRANCH  33  34
ENDBRANCH  28  29
ENDBRANCH  25  28
ENDBRANCH   4  25
TORSDOF 11
ENDMDL
MODEL 5
REMARK VINA RESULT:    -6.805      2.718      7.835
REMARK INTER + INTRA:         -12.464
REMARK INTER:                 -10.239
REMARK INTRA:                  -2.225
REMARK UNBOUND:                -1.682
REMARK  Name = 
REMARK  12 active torsions:
REMARK  status: ('A' for Active; 'I' for Inactive)
REMARK    1  A    between atoms: C_1  and  C_2
REMARK    2  A    between atoms: C_2  and  N_3
REMARK    3  A    between atoms: C_2  and  C_22
REMARK    4  A    between atoms: N_3  and  C_4
REMARK    5  A    between atoms: C_4  and  C_5
REMARK    6  A    between atoms: C_8  and  C_9
REMARK    7  A    between atoms: C_9  and  O_10
REMARK    8  A    between atoms: C_9  and  C_11
REMARK    9  A    between atoms: C_11  and  N_12
REMARK   10  A    between atoms: C_16  and  C_17
REMARK   11  A    between atoms: C_17  and  O_19
REMARK   12  A    between atoms: C_22  and  C_24
REMARK                            x       y       z     vdW  Elec       q    Type
REMARK                         _______ _______ _______ _____ _____    ______ ____
ROOT
ATOM      1  C   UNL     1      49.178   7.986  13.571  0.00  0.00    +0.000 A 
ATOM      2  C   UNL     1      48.085   8.558  14.223  0.00  0.00    +0.000 A 
ATOM      3  C   UNL     1      46.839   8.592  13.606  0.00  0.00    +0.000 A 
ATOM      4  C   UNL     1      46.668   8.061  12.316  0.00  0.00    +0.000 A 
ATOM      5  C   UNL     1      47.779   7.521  11.652  0.00  0.00    +0.000 A 
ATOM      6  C   UNL     1      49.023   7.481  12.275  0.00  0.00    +0.000 A 
ENDROOT
BRANCH   1   7
ATOM      7  C   UNL     1      50.516   7.927  14.249  0.00  0.00    +0.000 C 
BRANCH   7   8
ATOM      8  N   UNL     1      50.590   6.781  15.160  0.00  0.00    +0.000 NA
ATOM      9  H   UNL     1      50.720   5.931  14.604  0.00  0.00    +0.000 HD
BRANCH   8  11
ATOM     10  C   UNL     1      51.928   8.415  16.361  0.00  0.00    +0.000 C 
ATOM     11  C   UNL     1      51.732   6.923  16.088  0.00  0.00    +0.000 C 
BRANCH  11  12
ATOM     12  C   UNL     1      51.496   6.079  17.385  0.00  0.00    +0.000 C 
ATOM     13  O   UNL     1      52.444   5.582  17.998  0.00  0.00    +0.000 OA
BRANCH  12  14
ATOM     14  C   UNL     1      50.117   5.923  17.874  0.00  0.00    +0.000 A 
ATOM     15  C   UNL     1      49.477   6.904  18.614  0.00  0.00    +0.000 A 
ATOM     16  S   UNL     1      47.837   6.554  18.929  0.00  0.00    +0.000 S 
ATOM     17  C   UNL     1      47.931   5.087  18.095  0.00  0.00    +0.000 A 
ATOM     18  N   UNL     1      46.828   4.301  17.918  0.00  0.00    +0.000 NA
ATOM     19  C   UNL     1      47.037   3.251  17.202  0.00  0.00    +0.000 A 
ATOM     20  N   UNL     1      48.255   2.871  16.689  0.00  0.00    +0.000 N 
ATOM     21  C   UNL     1      49.427   3.503  17.069  0.00  0.00    +0.000 A 
ATOM     22  O   UNL     1      50.508   2.927  17.021  0.00  0.00    +0.000 OA
ATOM     23  C   UNL     1      49.217   4.810  17.657  0.00  0.00    +0.000 A 
ATOM     24  H   UNL     1      48.360   1.972  16.250  0.00  0.00    +0.000 HD
ENDBRANCH  12  14
ENDBRANCH  11  12
ENDBRANCH   8  11
ENDBRANCH   7   8
ENDBRANCH   1   7
BRANCH   4  25
ATOM     25  C   UNL     1      45.305   8.107  11.664  0.00  0.00    +0.000 C 
BRANCH  25  26
ATOM     26  O   UNL     1      44.507   9.183  12.163  0.00  0.00    +0.000 OA
ATOM     27  H   UNL     1      44.200   9.705  11.404  0.00  0.00    +0.000 HD
ENDBRANCH  25  26
BRANCH  25  28
ATOM     28  C   UNL     1      44.540   6.769  11.849  0.00  0.00    +0.000 C 
BRANCH  28  29
ATOM     29  N   UNL     1      45.426   5.581  11.974  0.00  0.00    +0.000 NA
ATOM     30  C   UNL     1      45.175   4.614  10.882  0.00  0.00    +0.000 C 
ATOM     31  C   UNL     1      43.941   3.856  11.330  0.00  0.00    +0.000 C 
ATOM     32  C   UNL     1      44.214   3.646  12.807  0.00  0.00    +0.000 C 
ATOM     33  C   UNL     1      45.120   4.807  13.218  0.00  0.00    +0.000 C 
BRANCH  33  34
ATOM     34  C   UNL     1      46.442   4.336  13.851  0.00  0.00    +0.000 C 
ATOM     35  O   UNL     1      46.939   3.234  13.675  0.00  0.00    +0.000 OA
BRANCH  34  36
ATOM     36  O   UNL     1      46.976   5.251  14.698  0.00  0.00    +0.000 OA
ATOM     37  H   UNL     1      46.325   5.983  14.830  0.00  0.00    +0.000 HD
ENDBRANCH  34  36
ENDBRANCH  33  34
ENDBRANCH  28  29
ENDBRANCH  25  28
ENDBRANCH   4  25
TORSDOF 11
ENDMDL
MODEL 6
REMARK VINA RESULT:    -6.462      2.924      9.360
REMARK INTER + INTRA:         -11.921
REMARK INTER:                 -10.834
REMARK INTRA:                  -1.086
REMARK UNBOUND:                -1.682
REMARK  Name = 
REMARK  12 active torsions:
REMARK  status: ('A' for Active; 'I' for Inactive)
REMARK    1  A    between atoms: C_1  and  C_2
REMARK    2  A    between atoms: C_2  and  N_3
REMARK    3  A    between atoms: C_2  and  C_22
REMARK    4  A    between atoms: N_3  and  C_4
REMARK    5  A    between atoms: C_4  and  C_5
REMARK    6  A    between atoms: C_8  and  C_9
REMARK    7  A    between atoms: C_9  and  O_10
REMARK    8  A    between atoms: C_9  and  C_11
REMARK    9  A    between atoms: C_11  and  N_12
REMARK   10  A    between atoms: C_16  and  C_17
REMARK   11  A    between atoms: C_17  and  O_19
REMARK   12  A    between atoms: C_22  and  C_24
REMARK                            x       y       z     vdW  Elec       q    Type
REMARK                         _______ _______ _______ _____ _____    ______ ____
ROOT
ATOM      1  C   UNL     1      47.941   6.689  13.922  0.00  0.00    +0.000 A 
ATOM      2  C   UNL     1      47.865   7.503  12.791  0.00  0.00    +0.000 A 
ATOM      3  C   UNL     1      47.046   7.149  11.725  0.00  0.00    +0.000 A 
ATOM      4  C   UNL     1      46.293   5.963  11.769  0.00  0.00    +0.000 A 
ATOM      5  C   UNL     1      46.402   5.131  12.892  0.00  0.00    +0.000 A 
ATOM      6  C   UNL     1      47.216   5.493  13.962  0.00  0.00    +0.000 A 
ENDROOT
BRANCH   1   7
ATOM      7  C   UNL     1      48.806   7.087  15.083  0.00  0.00    +0.000 C 
BRANCH   7   8
ATOM      8  N   UNL     1      49.333   5.905  15.771  0.00  0.00    +0.000 NA
ATOM      9  H   UNL     1      50.238   5.664  15.357  0.00  0.00    +0.000 HD
BRANCH   8  11
ATOM     10  C   UNL     1      48.310   6.970  17.701  0.00  0.00    +0.000 C 
ATOM     11  C   UNL     1      49.524   6.180  17.211  0.00  0.00    +0.000 C 
BRANCH  11  12
ATOM     12  C   UNL     1      49.760   4.848  18.000  0.00  0.00    +0.000 C 
ATOM     13  O   UNL     1      48.817   4.237  18.505  0.00  0.00    +0.000 OA
BRANCH  12  14
ATOM     14  C   UNL     1      51.133   4.326  18.091  0.00  0.00    +0.000 A 
ATOM     15  C   UNL     1      52.189   5.094  18.555  0.00  0.00    +0.000 A 
ATOM     16  S   UNL     1      53.646   4.219  18.711  0.00  0.00    +0.000 S 
ATOM     17  C   UNL     1      52.916   2.796  18.165  0.00  0.00    +0.000 A 
ATOM     18  N   UNL     1      53.604   1.617  18.126  0.00  0.00    +0.000 NA
ATOM     19  C   UNL     1      52.898   0.605  17.756  0.00  0.00    +0.000 A 
ATOM     20  N   UNL     1      51.581   0.658  17.364  0.00  0.00    +0.000 N 
ATOM     21  C   UNL     1      50.941   1.866  17.146  0.00  0.00    +0.000 A 
ATOM     22  O   UNL     1      49.989   1.955  16.380  0.00  0.00    +0.000 OA
ATOM     23  C   UNL     1      51.601   2.993  17.774  0.00  0.00    +0.000 A 
ATOM     24  H   UNL     1      51.139  -0.154  16.968  0.00  0.00    +0.000 HD
ENDBRANCH  12  14
ENDBRANCH  11  12
ENDBRANCH   8  11
ENDBRANCH   7   8
ENDBRANCH   1   7
BRANCH   4  25
ATOM     25  C   UNL     1      45.408   5.596  10.599  0.00  0.00    +0.000 C 
BRANCH  25  26
ATOM     26  O   UNL     1      44.047   5.975  10.815  0.00  0.00    +0.000 OA
ATOM     27  H   UNL     1      43.655   5.338  11.435  0.00  0.00    +0.000 HD
ENDBRANCH  25  26
BRANCH  25  28
ATOM     28  C   UNL     1      45.477   4.076  10.289  0.00  0.00    +0.000 C 
BRANCH  28  29
ATOM     29  N   UNL     1      45.244   3.743   8.858  0.00  0.00    +0.000 NA
ATOM     30  C   UNL     1      44.031   2.910   8.698  0.00  0.00    +0.000 C 
ATOM     31  C   UNL     1      44.489   1.508   9.047  0.00  0.00    +0.000 C 
ATOM     32  C   UNL     1      45.845   1.438   8.371  0.00  0.00    +0.000 C 
ATOM     33  C   UNL     1      46.345   2.883   8.318  0.00  0.00    +0.000 C 
BRANCH  33  34
ATOM     34  C   UNL     1      46.684   3.344   6.890  0.00  0.00    +0.000 C 
ATOM     35  O   UNL     1      46.687   2.615   5.909  0.00  0.00    +0.000 OA
BRANCH  34  36
ATOM     36  O   UNL     1      47.057   4.647   6.832  0.00  0.00    +0.000 OA
ATOM     37  H   UNL     1      46.768   5.025   5.966  0.00  0.00    +0.000 HD
ENDBRANCH  34  36
ENDBRANCH  33  34
ENDBRANCH  28  29
ENDBRANCH  25  28
ENDBRANCH   4  25
TORSDOF 11
ENDMDL
MODEL 7
REMARK VINA RESULT:    -6.459      2.563      8.564
REMARK INTER + INTRA:         -11.917
REMARK INTER:                 -10.464
REMARK INTRA:                  -1.453
REMARK UNBOUND:                -1.682
REMARK  Name = 
REMARK  12 active torsions:
REMARK  status: ('A' for Active; 'I' for Inactive)
REMARK    1  A    between atoms: C_1  and  C_2
REMARK    2  A    between atoms: C_2  and  N_3
REMARK    3  A    between atoms: C_2  and  C_22
REMARK    4  A    between atoms: N_3  and  C_4
REMARK    5  A    between atoms: C_4  and  C_5
REMARK    6  A    between atoms: C_8  and  C_9
REMARK    7  A    between atoms: C_9  and  O_10
REMARK    8  A    between atoms: C_9  and  C_11
REMARK    9  A    between atoms: C_11  and  N_12
REMARK   10  A    between atoms: C_16  and  C_17
REMARK   11  A    between atoms: C_17  and  O_19
REMARK   12  A    between atoms: C_22  and  C_24
REMARK                            x       y       z     vdW  Elec       q    Type
REMARK                         _______ _______ _______ _____ _____    ______ ____
ROOT
ATOM      1  C   UNL     1      49.752   7.713  13.816  0.00  0.00    +0.000 A 
ATOM      2  C   UNL     1      48.772   6.930  14.427  0.00  0.00    +0.000 A 
ATOM      3  C   UNL     1      47.531   6.761  13.822  0.00  0.00    +0.000 A 
ATOM      4  C   UNL     1      47.245   7.385  12.596  0.00  0.00    +0.000 A 
ATOM      5  C   UNL     1      48.220   8.200  12.006  0.00  0.00    +0.000 A 
ATOM      6  C   UNL     1      49.465   8.361  12.608  0.00  0.00    +0.000 A 
ENDROOT
BRANCH   1   7
ATOM      7  C   UNL     1      51.100   7.873  14.456  0.00  0.00    +0.000 C 
BRANCH   7   8
ATOM      8  N   UNL     1      51.036   7.574  15.890  0.00  0.00    +0.000 NA
ATOM      9  H   UNL     1      50.108   7.198  16.102  0.00  0.00    +0.000 HD
BRANCH   8  11
ATOM     10  C   UNL     1      53.418   7.264  16.259  0.00  0.00    +0.000 C 
ATOM     11  C   UNL     1      52.055   6.569  16.261  0.00  0.00    +0.000 C 
BRANCH  11  12
ATOM     12  C   UNL     1      51.698   5.902  17.631  0.00  0.00    +0.000 C 
ATOM     13  O   UNL     1      52.581   5.464  18.371  0.00  0.00    +0.000 OA
BRANCH  12  14
ATOM     14  C   UNL     1      50.282   5.845  18.030  0.00  0.00    +0.000 A 
ATOM     15  C   UNL     1      49.677   6.850  18.766  0.00  0.00    +0.000 A 
ATOM     16  S   UNL     1      47.998   6.626  18.969  0.00  0.00    +0.000 S 
ATOM     17  C   UNL     1      48.026   5.184  18.087  0.00  0.00    +0.000 A 
ATOM     18  N   UNL     1      46.878   4.498  17.813  0.00  0.00    +0.000 NA
ATOM     19  C   UNL     1      47.047   3.458  17.072  0.00  0.00    +0.000 A 
ATOM     20  N   UNL     1      48.261   2.997  16.619  0.00  0.00    +0.000 N 
ATOM     21  C   UNL     1      49.453   3.518  17.092  0.00  0.00    +0.000 A 
ATOM     22  O   UNL     1      50.485   2.856  17.088  0.00  0.00    +0.000 OA
ATOM     23  C   UNL     1      49.311   4.817  17.717  0.00  0.00    +0.000 A 
ATOM     24  H   UNL     1      48.321   2.107  16.153  0.00  0.00    +0.000 HD
ENDBRANCH  12  14
ENDBRANCH  11  12
ENDBRANCH   8  11
ENDBRANCH   7   8
ENDBRANCH   1   7
BRANCH   4  25
ATOM     25  C   UNL     1      45.889   7.188  11.956  0.00  0.00    +0.000 C 
BRANCH  25  26
ATOM     26  O   UNL     1      44.856   7.875  12.665  0.00  0.00    +0.000 OA
ATOM     27  H   UNL     1      45.095   7.883  13.607  0.00  0.00    +0.000 HD
ENDBRANCH  25  26
BRANCH  25  28
ATOM     28  C   UNL     1      45.526   5.682  11.847  0.00  0.00    +0.000 C 
BRANCH  28  29
ATOM     29  N   UNL     1      44.743   5.338  10.631  0.00  0.00    +0.000 NA
ATOM     30  C   UNL     1      43.306   5.183  10.951  0.00  0.00    +0.000 C 
ATOM     31  C   UNL     1      43.198   3.786  11.529  0.00  0.00    +0.000 C 
ATOM     32  C   UNL     1      44.109   2.991  10.612  0.00  0.00    +0.000 C 
ATOM     33  C   UNL     1      45.138   3.997  10.095  0.00  0.00    +0.000 C 
BRANCH  33  34
ATOM     34  C   UNL     1      45.183   4.067   8.558  0.00  0.00    +0.000 C 
ATOM     35  O   UNL     1      45.996   4.718   7.918  0.00  0.00    +0.000 OA
BRANCH  34  36
ATOM     36  O   UNL     1      44.170   3.384   7.970  0.00  0.00    +0.000 OA
ATOM     37  H   UNL     1      44.067   2.511   8.422  0.00  0.00    +0.000 HD
ENDBRANCH  34  36
ENDBRANCH  33  34
ENDBRANCH  28  29
ENDBRANCH  25  28
ENDBRANCH   4  25
TORSDOF 11
ENDMDL
MODEL 8
REMARK VINA RESULT:    -6.438      2.697      8.148
REMARK INTER + INTRA:         -11.883
REMARK INTER:                 -10.156
REMARK INTRA:                  -1.728
REMARK UNBOUND:                -1.682
REMARK  Name = 
REMARK  12 active torsions:
REMARK  status: ('A' for Active; 'I' for Inactive)
REMARK    1  A    between atoms: C_1  and  C_2
REMARK    2  A    between atoms: C_2  and  N_3
REMARK    3  A    between atoms: C_2  and  C_22
REMARK    4  A    between atoms: N_3  and  C_4
REMARK    5  A    between atoms: C_4  and  C_5
REMARK    6  A    between atoms: C_8  and  C_9
REMARK    7  A    between atoms: C_9  and  O_10
REMARK    8  A    between atoms: C_9  and  C_11
REMARK    9  A    between atoms: C_11  and  N_12
REMARK   10  A    between atoms: C_16  and  C_17
REMARK   11  A    between atoms: C_17  and  O_19
REMARK   12  A    between atoms: C_22  and  C_24
REMARK                            x       y       z     vdW  Elec       q    Type
REMARK                         _______ _______ _______ _____ _____    ______ ____
ROOT
ATOM      1  C   UNL     1      49.577   8.017  13.953  0.00  0.00    +0.000 A 
ATOM      2  C   UNL     1      48.483   8.367  14.744  0.00  0.00    +0.000 A 
ATOM      3  C   UNL     1      47.223   8.514  14.173  0.00  0.00    +0.000 A 
ATOM      4  C   UNL     1      47.039   8.322  12.793  0.00  0.00    +0.000 A 
ATOM      5  C   UNL     1      48.149   8.007  11.998  0.00  0.00    +0.000 A 
ATOM      6  C   UNL     1      49.408   7.852  12.573  0.00  0.00    +0.000 A 
ENDROOT
BRANCH   1   7
ATOM      7  C   UNL     1      50.931   7.833  14.574  0.00  0.00    +0.000 C 
BRANCH   7   8
ATOM      8  N   UNL     1      50.922   6.719  15.527  0.00  0.00    +0.000 NA
ATOM      9  H   UNL     1      51.487   5.957  15.141  0.00  0.00    +0.000 HD
BRANCH   8  11
ATOM     10  C   UNL     1      51.422   8.659  16.901  0.00  0.00    +0.000 C 
ATOM     11  C   UNL     1      51.501   7.134  16.822  0.00  0.00    +0.000 C 
BRANCH  11  12
ATOM     12  C   UNL     1      50.775   6.410  18.006  0.00  0.00    +0.000 C 
ATOM     13  O   UNL     1      50.634   6.968  19.096  0.00  0.00    +0.000 OA
BRANCH  12  14
ATOM     14  C   UNL     1      50.235   5.061  17.772  0.00  0.00    +0.000 A 
ATOM     15  C   UNL     1      48.921   4.845  17.389  0.00  0.00    +0.000 A 
ATOM     16  S   UNL     1      48.580   3.212  17.032  0.00  0.00    +0.000 S 
ATOM     17  C   UNL     1      50.167   2.745  17.378  0.00  0.00    +0.000 A 
ATOM     18  N   UNL     1      50.581   1.456  17.200  0.00  0.00    +0.000 NA
ATOM     19  C   UNL     1      51.833   1.265  17.436  0.00  0.00    +0.000 A 
ATOM     20  N   UNL     1      52.708   2.223  17.890  0.00  0.00    +0.000 N 
ATOM     21  C   UNL     1      52.263   3.460  18.325  0.00  0.00    +0.000 A 
ATOM     22  O   UNL     1      52.901   4.120  19.137  0.00  0.00    +0.000 OA
ATOM     23  C   UNL     1      50.934   3.796  17.854  0.00  0.00    +0.000 A 
ATOM     24  H   UNL     1      53.639   1.964  18.173  0.00  0.00    +0.000 HD
ENDBRANCH  12  14
ENDBRANCH  11  12
ENDBRANCH   8  11
ENDBRANCH   7   8
ENDBRANCH   1   7
BRANCH   4  25
ATOM     25  C   UNL     1      45.661   8.486  12.194  0.00  0.00    +0.000 C 
BRANCH  25  26
ATOM     26  O   UNL     1      44.909   9.511  12.848  0.00  0.00    +0.000 OA
ATOM     27  H   UNL     1      45.444   9.850  13.585  0.00  0.00    +0.000 HD
ENDBRANCH  25  26
BRANCH  25  28
ATOM     28  C   UNL     1      44.862   7.155  12.233  0.00  0.00    +0.000 C 
BRANCH  28  29
ATOM     29  N   UNL     1      45.709   5.941  12.103  0.00  0.00    +0.000 NA
ATOM     30  C   UNL     1      45.357   5.175  10.885  0.00  0.00    +0.000 C 
ATOM     31  C   UNL     1      44.124   4.387  11.282  0.00  0.00    +0.000 C 
ATOM     32  C   UNL     1      44.477   3.927  12.684  0.00  0.00    +0.000 C 
ATOM     33  C   UNL     1      45.449   4.979  13.220  0.00  0.00    +0.000 C 
BRANCH  33  34
ATOM     34  C   UNL     1      46.788   4.373  13.679  0.00  0.00    +0.000 C 
ATOM     35  O   UNL     1      47.768   5.027  14.004  0.00  0.00    +0.000 OA
BRANCH  34  36
ATOM     36  O   UNL     1      46.801   3.019  13.618  0.00  0.00    +0.000 OA
ATOM     37  H   UNL     1      45.870   2.689  13.594  0.00  0.00    +0.000 HD
ENDBRANCH  34  36
ENDBRANCH  33  34
ENDBRANCH  28  29
ENDBRANCH  25  28
ENDBRANCH   4  25
TORSDOF 11
ENDMDL
MODEL 9
REMARK VINA RESULT:    -6.218      2.818      8.165
REMARK INTER + INTRA:         -11.535
REMARK INTER:                  -9.651
REMARK INTRA:                  -1.884
REMARK UNBOUND:                -1.682
REMARK  Name = 
REMARK  12 active torsions:
REMARK  status: ('A' for Active; 'I' for Inactive)
REMARK    1  A    between atoms: C_1  and  C_2
REMARK    2  A    between atoms: C_2  and  N_3
REMARK    3  A    between atoms: C_2  and  C_22
REMARK    4  A    between atoms: N_3  and  C_4
REMARK    5  A    between atoms: C_4  and  C_5
REMARK    6  A    between atoms: C_8  and  C_9
REMARK    7  A    between atoms: C_9  and  O_10
REMARK    8  A    between atoms: C_9  and  C_11
REMARK    9  A    between atoms: C_11  and  N_12
REMARK   10  A    between atoms: C_16  and  C_17
REMARK   11  A    between atoms: C_17  and  O_19
REMARK   12  A    between atoms: C_22  and  C_24
REMARK                            x       y       z     vdW  Elec       q    Type
REMARK                         _______ _______ _______ _____ _____    ______ ____
ROOT
ATOM      1  C   UNL     1      50.035   8.186  14.804  0.00  0.00    +0.000 A 
ATOM      2  C   UNL     1      50.003   7.396  13.654  0.00  0.00    +0.000 A 
ATOM      3  C   UNL     1      48.837   7.298  12.903  0.00  0.00    +0.000 A 
ATOM      4  C   UNL     1      47.675   7.983  13.298  0.00  0.00    +0.000 A 
ATOM      5  C   UNL     1      47.703   8.745  14.474  0.00  0.00    +0.000 A 
ATOM      6  C   UNL     1      48.874   8.849  15.220  0.00  0.00    +0.000 A 
ENDROOT
BRANCH   1   7
ATOM      7  C   UNL     1      51.302   8.312  15.599  0.00  0.00    +0.000 C 
BRANCH   7   8
ATOM      8  N   UNL     1      51.651   7.037  16.233  0.00  0.00    +0.000 NA
ATOM      9  H   UNL     1      52.610   6.795  15.969  0.00  0.00    +0.000 HD
BRANCH   8  11
ATOM     10  C   UNL     1      51.949   8.579  18.087  0.00  0.00    +0.000 C 
ATOM     11  C   UNL     1      51.574   7.146  17.705  0.00  0.00    +0.000 C 
BRANCH  11  12
ATOM     12  C   UNL     1      50.158   6.717  18.216  0.00  0.00    +0.000 C 
ATOM     13  O   UNL     1      49.495   7.460  18.942  0.00  0.00    +0.000 OA
BRANCH  12  14
ATOM     14  C   UNL     1      49.623   5.417  17.777  0.00  0.00    +0.000 A 
ATOM     15  C   UNL     1      48.367   5.286  17.208  0.00  0.00    +0.000 A 
ATOM     16  S   UNL     1      48.040   3.710  16.644  0.00  0.00    +0.000 S 
ATOM     17  C   UNL     1      49.557   3.155  17.141  0.00  0.00    +0.000 A 
ATOM     18  N   UNL     1      49.963   1.877  16.886  0.00  0.00    +0.000 NA
ATOM     19  C   UNL     1      51.169   1.620  17.260  0.00  0.00    +0.000 A 
ATOM     20  N   UNL     1      51.998   2.497  17.919  0.00  0.00    +0.000 N 
ATOM     21  C   UNL     1      51.526   3.700  18.417  0.00  0.00    +0.000 A 
ATOM     22  O   UNL     1      52.067   4.252  19.369  0.00  0.00    +0.000 OA
ATOM     23  C   UNL     1      50.278   4.127  17.817  0.00  0.00    +0.000 A 
ATOM     24  H   UNL     1      52.877   2.179  18.290  0.00  0.00    +0.000 HD
ENDBRANCH  12  14
ENDBRANCH  11  12
ENDBRANCH   8  11
ENDBRANCH   7   8
ENDBRANCH   1   7
BRANCH   4  25
ATOM     25  C   UNL     1      46.418   7.863  12.466  0.00  0.00    +0.000 C 
BRANCH  25  26
ATOM     26  O   UNL     1      45.252   8.254  13.196  0.00  0.00    +0.000 OA
ATOM     27  H   UNL     1      45.544   8.678  14.019  0.00  0.00    +0.000 HD
ENDBRANCH  25  26
BRANCH  25  28
ATOM     28  C   UNL     1      46.229   6.419  11.928  0.00  0.00    +0.000 C 
BRANCH  28  29
ATOM     29  N   UNL     1      45.248   5.612  12.700  0.00  0.00    +0.000 NA
ATOM     30  C   UNL     1      45.901   4.926  13.838  0.00  0.00    +0.000 C 
ATOM     31  C   UNL     1      46.555   3.708  13.216  0.00  0.00    +0.000 C 
ATOM     32  C   UNL     1      45.490   3.236  12.244  0.00  0.00    +0.000 C 
ATOM     33  C   UNL     1      44.699   4.491  11.872  0.00  0.00    +0.000 C 
BRANCH  33  34
ATOM     34  C   UNL     1      43.193   4.352  12.156  0.00  0.00    +0.000 C 
ATOM     35  O   UNL     1      42.578   5.018  12.975  0.00  0.00    +0.000 OA
BRANCH  34  36
ATOM     36  O   UNL     1      42.615   3.350  11.448  0.00  0.00    +0.000 OA
ATOM     37  H   UNL     1      43.212   3.098  10.702  0.00  0.00    +0.000 HD
ENDBRANCH  34  36
ENDBRANCH  33  34
ENDBRANCH  28  29
ENDBRANCH  25  28
ENDBRANCH   4  25
TORSDOF 11
ENDMDL
