MODEL 1
REMARK VINA RESULT:    -7.280      0.000      0.000
REMARK INTER + INTRA:          -9.689
REMARK INTER:                  -9.195
REMARK INTRA:                  -0.495
REMARK UNBOUND:                -0.495
REMARK  Name = 
REMARK  5 active torsions:
REMARK  status: ('A' for Active; 'I' for Inactive)
REMARK    1  A    between atoms: N_1  and  C_2
REMARK    2  A    between atoms: C_2  and  C_3
REMARK    3  A    between atoms: C_3  and  C_4
REMARK    4  A    between atoms: C_8  and  C_9
REMARK    5  A    between atoms: C_9  and  N_10
REMARK                            x       y       z     vdW  Elec       q    Type
REMARK                         _______ _______ _______ _____ _____    ______ ____
ROOT
ATOM      1  C   UNL     1      46.802   4.696  13.551  0.00  0.00    +0.000 A 
ATOM      2  C   UNL     1      47.520   5.902  13.517  0.00  0.00    +0.000 A 
ATOM      3  C   UNL     1      47.260   6.865  12.556  0.00  0.00    +0.000 A 
ATOM      4  C   UNL     1      46.254   6.652  11.613  0.00  0.00    +0.000 A 
ATOM      5  C   UNL     1      45.494   5.473  11.633  0.00  0.00    +0.000 A 
ATOM      6  C   UNL     1      45.782   4.500  12.598  0.00  0.00    +0.000 A 
ENDROOT
BRANCH   1   7
ATOM      7  C   UNL     1      47.124   3.637  14.569  0.00  0.00    +0.000 C 
BRANCH   7   8
ATOM      8  C   UNL     1      47.463   4.217  15.947  0.00  0.00    +0.000 C 
BRANCH   8   9
ATOM      9  N   UNL     1      46.673   3.562  16.990  0.00  0.00    +0.000 NA
ATOM     10  H   UNL     1      46.830   2.556  16.957  0.00  0.00    +0.000 HD
ATOM     11  H   UNL     1      45.679   3.701  16.807  0.00  0.00    +0.000 HD
ENDBRANCH   8   9
ENDBRANCH   7   8
ENDBRANCH   1   7
BRANCH   5  12
ATOM     12  C   UNL     1      44.363   5.264  10.653  0.00  0.00    +0.000 C 
BRANCH  12  13
ATOM     13  N   UNL     1      44.419   3.970   9.979  0.00  0.00    +0.000 N 
ATOM     14  C   UNL     1      43.934   2.798  10.520  0.00  0.00    +0.000 A 
ATOM     15  C   UNL     1      44.235   1.775   9.652  0.00  0.00    +0.000 A 
ATOM     16  C   UNL     1      45.260   2.269   8.810  0.00  0.00    +0.000 A 
ATOM     17  C   UNL     1      46.236   1.650   8.006  0.00  0.00    +0.000 A 
ATOM     18  C   UNL     1      47.114   2.462   7.291  0.00  0.00    +0.000 A 
ATOM     19  F   UNL     1      48.141   1.895   6.641  0.00  0.00    +0.000 F 
ATOM     20  C   UNL     1      46.969   3.841   7.260  0.00  0.00    +0.000 A 
ATOM     21  C   UNL     1      45.989   4.476   8.038  0.00  0.00    +0.000 A 
ATOM     22  C   UNL     1      45.227   3.665   8.895  0.00  0.00    +0.000 A 
ENDBRANCH  12  13
ENDBRANCH   5  12
TORSDOF 5
ENDMDL
MODEL 2
REMARK VINA RESULT:    -7.174      2.894      6.651
REMARK INTER + INTRA:          -9.556
REMARK INTER:                  -8.964
REMARK INTRA:                  -0.593
REMARK UNBOUND:                -0.495
REMARK  Name = 
REMARK  5 active torsions:
REMARK  status: ('A' for Active; 'I' for Inactive)
REMARK    1  A    between atoms: N_1  and  C_2
REMARK    2  A    between atoms: C_2  and  C_3
REMARK    3  A    between atoms: C_3  and  C_4
REMARK    4  A    between atoms: C_8  and  C_9
REMARK    5  A    between atoms: C_9  and  N_10
REMARK                            x       y       z     vdW  Elec       q    Type
REMARK                         _______ _______ _______ _____ _____    ______ ____
ROOT
ATOM      1  C   UNL     1      45.996   3.434   7.800  0.00  0.00    +0.000 A 
ATOM      2  C   UNL     1      45.374   2.192   8.006  0.00  0.00    +0.000 A 
ATOM      3  C   UNL     1      44.626   1.945   9.145  0.00  0.00    +0.000 A 
ATOM      4  C   UNL     1      44.462   2.949  10.101  0.00  0.00    +0.000 A 
ATOM      5  C   UNL     1      45.043   4.213   9.917  0.00  0.00    +0.000 A 
ATOM      6  C   UNL     1      45.813   4.441   8.769  0.00  0.00    +0.000 A 
ENDROOT
BRANCH   1   7
ATOM      7  C   UNL     1      46.846   3.676   6.584  0.00  0.00    +0.000 C 
BRANCH   7   8
ATOM      8  C   UNL     1      47.024   2.423   5.720  0.00  0.00    +0.000 C 
BRANCH   8   9
ATOM      9  N   UNL     1      48.410   1.954   5.769  0.00  0.00    +0.000 NA
ATOM     10  H   UNL     1      49.039   2.730   5.564  0.00  0.00    +0.000 HD
ATOM     11  H   UNL     1      48.565   1.261   5.037  0.00  0.00    +0.000 HD
ENDBRANCH   8   9
ENDBRANCH   7   8
ENDBRANCH   1   7
BRANCH   5  12
ATOM     12  C   UNL     1      44.818   5.322  10.917  0.00  0.00    +0.000 C 
BRANCH  12  13
ATOM     13  N   UNL     1      45.727   5.258  12.058  0.00  0.00    +0.000 N 
ATOM     14  C   UNL     1      45.436   4.609  13.239  0.00  0.00    +0.000 A 
ATOM     15  C   UNL     1      46.477   4.831  14.111  0.00  0.00    +0.000 A 
ATOM     16  C   UNL     1      47.178   5.949  13.602  0.00  0.00    +0.000 A 
ATOM     17  C   UNL     1      48.060   6.885  14.178  0.00  0.00    +0.000 A 
ATOM     18  C   UNL     1      48.580   7.889  13.363  0.00  0.00    +0.000 A 
ATOM     19  F   UNL     1      49.298   8.873  13.924  0.00  0.00    +0.000 F 
ATOM     20  C   UNL     1      48.348   7.910  11.996  0.00  0.00    +0.000 A 
ATOM     21  C   UNL     1      47.490   6.975  11.399  0.00  0.00    +0.000 A 
ATOM     22  C   UNL     1      46.827   6.078  12.254  0.00  0.00    +0.000 A 
ENDBRANCH  12  13
ENDBRANCH   5  12
TORSDOF 5
ENDMDL
MODEL 3
REMARK VINA RESULT:    -7.009      1.754      2.509
REMARK INTER + INTRA:          -9.348
REMARK INTER:                  -8.732
REMARK INTRA:                  -0.616
REMARK UNBOUND:                -0.495
REMARK  Name = 
REMARK  5 active torsions:
REMARK  status: ('A' for Active; 'I' for Inactive)
REMARK    1  A    between atoms: N_1  and  C_2
REMARK    2  A    between atoms: C_2  and  C_3
REMARK    3  A    between atoms: C_3  and  C_4
REMARK    4  A    between atoms: C_8  and  C_9
REMARK    5  A    between atoms: C_9  and  N_10
REMARK                            x       y       z     vdW  Elec       q    Type
REMARK                         _______ _______ _______ _____ _____    ______ ____
ROOT
ATOM      1  C   UNL     1      47.734   6.670  12.267  0.00  0.00    +0.000 A 
ATOM      2  C   UNL     1      47.732   5.943  13.468  0.00  0.00    +0.000 A 
ATOM      3  C   UNL     1      46.676   5.110  13.799  0.00  0.00    +0.000 A 
ATOM      4  C   UNL     1      45.602   4.966  12.920  0.00  0.00    +0.000 A 
ATOM      5  C   UNL     1      45.582   5.653  11.697  0.00  0.00    +0.000 A 
ATOM      6  C   UNL     1      46.647   6.507  11.385  0.00  0.00    +0.000 A 
ENDROOT
BRANCH   1   7
ATOM      7  C   UNL     1      48.863   7.609  11.939  0.00  0.00    +0.000 C 
BRANCH   7   8
ATOM      8  C   UNL     1      49.491   8.246  13.183  0.00  0.00    +0.000 C 
BRANCH   8   9
ATOM      9  N   UNL     1      50.881   7.814  13.338  0.00  0.00    +0.000 NA
ATOM     10  H   UNL     1      50.918   6.993  13.941  0.00  0.00    +0.000 HD
ATOM     11  H   UNL     1      51.416   8.541  13.813  0.00  0.00    +0.000 HD
ENDBRANCH   8   9
ENDBRANCH   7   8
ENDBRANCH   1   7
BRANCH   5  12
ATOM     12  C   UNL     1      44.451   5.454  10.715  0.00  0.00    +0.000 C 
BRANCH  12  13
ATOM     13  N   UNL     1      44.458   4.134  10.092  0.00  0.00    +0.000 N 
ATOM     14  C   UNL     1      43.970   2.995  10.696  0.00  0.00    +0.000 A 
ATOM     15  C   UNL     1      44.219   1.933   9.859  0.00  0.00    +0.000 A 
ATOM     16  C   UNL     1      45.223   2.371   8.963  0.00  0.00    +0.000 A 
ATOM     17  C   UNL     1      46.156   1.701   8.149  0.00  0.00    +0.000 A 
ATOM     18  C   UNL     1      47.023   2.466   7.372  0.00  0.00    +0.000 A 
ATOM     19  F   UNL     1      48.015   1.852   6.710  0.00  0.00    +0.000 F 
ATOM     20  C   UNL     1      46.904   3.845   7.292  0.00  0.00    +0.000 A 
ATOM     21  C   UNL     1      45.966   4.531   8.078  0.00  0.00    +0.000 A 
ATOM     22  C   UNL     1      45.220   3.770   8.993  0.00  0.00    +0.000 A 
ENDBRANCH  12  13
ENDBRANCH   5  12
TORSDOF 5
ENDMDL
MODEL 4
REMARK VINA RESULT:    -6.392      3.359      5.188
REMARK INTER + INTRA:          -8.568
REMARK INTER:                  -7.991
REMARK INTRA:                  -0.577
REMARK UNBOUND:                -0.495
REMARK  Name = 
REMARK  5 active torsions:
REMARK  status: ('A' for Active; 'I' for Inactive)
REMARK    1  A    between atoms: N_1  and  C_2
REMARK    2  A    between atoms: C_2  and  C_3
REMARK    3  A    between atoms: C_3  and  C_4
REMARK    4  A    between atoms: C_8  and  C_9
REMARK    5  A    between atoms: C_9  and  N_10
REMARK                            x       y       z     vdW  Elec       q    Type
REMARK                         _______ _______ _______ _____ _____    ______ ____
ROOT
ATOM      1  C   UNL     1      43.838   9.847  10.893  0.00  0.00    +0.000 A 
ATOM      2  C   UNL     1      44.673  10.936  11.191  0.00  0.00    +0.000 A 
ATOM      3  C   UNL     1      45.883  10.754  11.838  0.00  0.00    +0.000 A 
ATOM      4  C   UNL     1      46.300   9.469  12.185  0.00  0.00    +0.000 A 
ATOM      5  C   UNL     1      45.508   8.352  11.877  0.00  0.00    +0.000 A 
ATOM      6  C   UNL     1      44.277   8.554  11.240  0.00  0.00    +0.000 A 
ENDROOT
BRANCH   1   7
ATOM      7  C   UNL     1      42.503  10.060  10.233  0.00  0.00    +0.000 C 
BRANCH   7   8
ATOM      8  C   UNL     1      41.411  10.490  11.218  0.00  0.00    +0.000 C 
BRANCH   8   9
ATOM      9  N   UNL     1      40.422   9.424  11.390  0.00  0.00    +0.000 NA
ATOM     10  H   UNL     1      39.489   9.793  11.210  0.00  0.00    +0.000 HD
ATOM     11  H   UNL     1      40.421   9.108  12.359  0.00  0.00    +0.000 HD
ENDBRANCH   8   9
ENDBRANCH   7   8
ENDBRANCH   1   7
BRANCH   5  12
ATOM     12  C   UNL     1      45.982   6.954  12.196  0.00  0.00    +0.000 C 
BRANCH  12  13
ATOM     13  N   UNL     1      44.934   5.947  12.057  0.00  0.00    +0.000 N 
ATOM     14  C   UNL     1      44.162   5.490  13.103  0.00  0.00    +0.000 A 
ATOM     15  C   UNL     1      43.347   4.491  12.623  0.00  0.00    +0.000 A 
ATOM     16  C   UNL     1      43.929   4.068  11.404  0.00  0.00    +0.000 A 
ATOM     17  C   UNL     1      43.829   2.889  10.640  0.00  0.00    +0.000 A 
ATOM     18  C   UNL     1      44.564   2.804   9.459  0.00  0.00    +0.000 A 
ATOM     19  F   UNL     1      44.600   1.637   8.799  0.00  0.00    +0.000 F 
ATOM     20  C   UNL     1      45.281   3.885   8.969  0.00  0.00    +0.000 A 
ATOM     21  C   UNL     1      45.377   5.075   9.704  0.00  0.00    +0.000 A 
ATOM     22  C   UNL     1      44.784   5.091  10.977  0.00  0.00    +0.000 A 
ENDBRANCH  12  13
ENDBRANCH   5  12
TORSDOF 5
ENDMDL
MODEL 5
REMARK VINA RESULT:    -6.232      2.503      3.637
REMARK INTER + INTRA:          -8.366
REMARK INTER:                  -7.949
REMARK INTRA:                  -0.417
REMARK UNBOUND:                -0.495
REMARK  Name = 
REMARK  5 active torsions:
REMARK  status: ('A' for Active; 'I' for Inactive)
REMARK    1  A    between atoms: N_1  and  C_2
REMARK    2  A    between atoms: C_2  and  C_3
REMARK    3  A    between atoms: C_3  and  C_4
REMARK    4  A    between atoms: C_8  and  C_9
REMARK    5  A    between atoms: C_9  and  N_10
REMARK                            x       y       z     vdW  Elec       q    Type
REMARK                         _______ _______ _______ _____ _____    ______ ____
ROOT
ATOM      1  C   UNL     1      47.803   8.487  12.094  0.00  0.00    +0.000 A 
ATOM      2  C   UNL     1      46.736   9.394  12.202  0.00  0.00    +0.000 A 
ATOM      3  C   UNL     1      45.461   8.963  12.527  0.00  0.00    +0.000 A 
ATOM      4  C   UNL     1      45.225   7.611  12.776  0.00  0.00    +0.000 A 
ATOM      5  C   UNL     1      46.272   6.679  12.708  0.00  0.00    +0.000 A 
ATOM      6  C   UNL     1      47.552   7.126  12.358  0.00  0.00    +0.000 A 
ENDROOT
BRANCH   1   7
ATOM      7  C   UNL     1      49.174   8.958  11.693  0.00  0.00    +0.000 C 
BRANCH   7   8
ATOM      8  C   UNL     1      50.298   8.115  12.307  0.00  0.00    +0.000 C 
BRANCH   8   9
ATOM      9  N   UNL     1      51.035   7.400  11.265  0.00  0.00    +0.000 NA
ATOM     10  H   UNL     1      50.509   7.430  10.393  0.00  0.00    +0.000 HD
ATOM     11  H   UNL     1      51.115   6.414  11.515  0.00  0.00    +0.000 HD
ENDBRANCH   8   9
ENDBRANCH   7   8
ENDBRANCH   1   7
BRANCH   5  12
ATOM     12  C   UNL     1      46.035   5.223  13.036  0.00  0.00    +0.000 C 
BRANCH  12  13
ATOM     13  N   UNL     1      45.064   4.586  12.152  0.00  0.00    +0.000 N 
ATOM     14  C   UNL     1      44.167   3.623  12.560  0.00  0.00    +0.000 A 
ATOM     15  C   UNL     1      43.477   3.191  11.452  0.00  0.00    +0.000 A 
ATOM     16  C   UNL     1      44.251   3.585  10.335  0.00  0.00    +0.000 A 
ATOM     17  C   UNL     1      44.316   3.146   8.998  0.00  0.00    +0.000 A 
ATOM     18  C   UNL     1      45.221   3.772   8.143  0.00  0.00    +0.000 A 
ATOM     19  F   UNL     1      45.404   3.271   6.912  0.00  0.00    +0.000 F 
ATOM     20  C   UNL     1      45.955   4.878   8.542  0.00  0.00    +0.000 A 
ATOM     21  C   UNL     1      45.888   5.344   9.863  0.00  0.00    +0.000 A 
ATOM     22  C   UNL     1      45.113   4.598  10.767  0.00  0.00    +0.000 A 
ENDBRANCH  12  13
ENDBRANCH   5  12
TORSDOF 5
ENDMDL
MODEL 6
REMARK VINA RESULT:    -5.849      2.232      3.700
REMARK INTER + INTRA:          -7.882
REMARK INTER:                  -7.328
REMARK INTRA:                  -0.554
REMARK UNBOUND:                -0.495
REMARK  Name = 
REMARK  5 active torsions:
REMARK  status: ('A' for Active; 'I' for Inactive)
REMARK    1  A    between atoms: N_1  and  C_2
REMARK    2  A    between atoms: C_2  and  C_3
REMARK    3  A    between atoms: C_3  and  C_4
REMARK    4  A    between atoms: C_8  and  C_9
REMARK    5  A    between atoms: C_9  and  N_10
REMARK                            x       y       z     vdW  Elec       q    Type
REMARK                         _______ _______ _______ _____ _____    ______ ____
ROOT
ATOM      1  C   UNL     1      46.550   8.119  12.395  0.00  0.00    +0.000 A 
ATOM      2  C   UNL     1      47.676   7.313  12.628  0.00  0.00    +0.000 A 
ATOM      3  C   UNL     1      47.543   5.972  12.950  0.00  0.00    +0.000 A 
ATOM      4  C   UNL     1      46.274   5.397  13.024  0.00  0.00    +0.000 A 
ATOM      5  C   UNL     1      45.126   6.162  12.768  0.00  0.00    +0.000 A 
ATOM      6  C   UNL     1      45.276   7.522  12.464  0.00  0.00    +0.000 A 
ENDROOT
BRANCH   1   7
ATOM      7  C   UNL     1      46.703   9.584  12.094  0.00  0.00    +0.000 C 
BRANCH   7   8
ATOM      8  C   UNL     1      45.363  10.328  12.049  0.00  0.00    +0.000 C 
BRANCH   8   9
ATOM      9  N   UNL     1      44.986  10.630  10.668  0.00  0.00    +0.000 NA
ATOM     10  H   UNL     1      44.290   9.958  10.349  0.00  0.00    +0.000 HD
ATOM     11  H   UNL     1      45.795  10.514  10.057  0.00  0.00    +0.000 HD
ENDBRANCH   8   9
ENDBRANCH   7   8
ENDBRANCH   1   7
BRANCH   5  12
ATOM     12  C   UNL     1      43.755   5.531  12.786  0.00  0.00    +0.000 C 
BRANCH  12  13
ATOM     13  N   UNL     1      43.678   4.302  12.002  0.00  0.00    +0.000 N 
ATOM     14  C   UNL     1      43.417   3.060  12.541  0.00  0.00    +0.000 A 
ATOM     15  C   UNL     1      43.508   2.133  11.530  0.00  0.00    +0.000 A 
ATOM     16  C   UNL     1      44.233   2.762  10.490  0.00  0.00    +0.000 A 
ATOM     17  C   UNL     1      44.971   2.279   9.392  0.00  0.00    +0.000 A 
ATOM     18  C   UNL     1      45.575   3.205   8.544  0.00  0.00    +0.000 A 
ATOM     19  F   UNL     1      46.403   2.764   7.586  0.00  0.00    +0.000 F 
ATOM     20  C   UNL     1      45.365   4.568   8.687  0.00  0.00    +0.000 A 
ATOM     21  C   UNL     1      44.616   5.070   9.762  0.00  0.00    +0.000 A 
ATOM     22  C   UNL     1      44.162   4.142  10.714  0.00  0.00    +0.000 A 
ENDBRANCH  12  13
ENDBRANCH   5  12
TORSDOF 5
ENDMDL
MODEL 7
REMARK VINA RESULT:    -5.652      4.033      5.713
REMARK INTER + INTRA:          -7.634
REMARK INTER:                  -6.874
REMARK INTRA:                  -0.760
REMARK UNBOUND:                -0.495
REMARK  Name = 
REMARK  5 active torsions:
REMARK  status: ('A' for Active; 'I' for Inactive)
REMARK    1  A    between atoms: N_1  and  C_2
REMARK    2  A    between atoms: C_2  and  C_3
REMARK    3  A    between atoms: C_3  and  C_4
REMARK    4  A    between atoms: C_8  and  C_9
REMARK    5  A    between atoms: C_9  and  N_10
REMARK                            x       y       z     vdW  Elec       q    Type
REMARK                         _______ _______ _______ _____ _____    ______ ____
ROOT
ATOM      1  C   UNL     1      48.439   5.815  17.743  0.00  0.00    +0.000 A 
ATOM      2  C   UNL     1      48.382   7.010  18.479  0.00  0.00    +0.000 A 
ATOM      3  C   UNL     1      48.541   8.239  17.862  0.00  0.00    +0.000 A 
ATOM      4  C   UNL     1      48.740   8.304  16.482  0.00  0.00    +0.000 A 
ATOM      5  C   UNL     1      48.773   7.134  15.708  0.00  0.00    +0.000 A 
ATOM      6  C   UNL     1      48.631   5.897  16.350  0.00  0.00    +0.000 A 
ENDROOT
BRANCH   1   7
ATOM      7  C   UNL     1      48.313   4.483  18.430  0.00  0.00    +0.000 C 
BRANCH   7   8
ATOM      8  C   UNL     1      47.989   3.340  17.461  0.00  0.00    +0.000 C 
BRANCH   8   9
ATOM      9  N   UNL     1      46.590   2.930  17.596  0.00  0.00    +0.000 NA
ATOM     10  H   UNL     1      46.520   2.180  18.284  0.00  0.00    +0.000 HD
ATOM     11  H   UNL     1      46.260   2.539  16.714  0.00  0.00    +0.000 HD
ENDBRANCH   8   9
ENDBRANCH   7   8
ENDBRANCH   1   7
BRANCH   5  12
ATOM     12  C   UNL     1      48.927   7.202  14.208  0.00  0.00    +0.000 C 
BRANCH  12  13
ATOM     13  N   UNL     1      47.656   7.368  13.507  0.00  0.00    +0.000 N 
ATOM     14  C   UNL     1      46.995   8.571  13.387  0.00  0.00    +0.000 A 
ATOM     15  C   UNL     1      45.800   8.335  12.749  0.00  0.00    +0.000 A 
ATOM     16  C   UNL     1      45.564   6.945  12.868  0.00  0.00    +0.000 A 
ATOM     17  C   UNL     1      44.406   6.148  12.783  0.00  0.00    +0.000 A 
ATOM     18  C   UNL     1      44.539   4.772  12.960  0.00  0.00    +0.000 A 
ATOM     19  F   UNL     1      43.432   4.017  13.033  0.00  0.00    +0.000 F 
ATOM     20  C   UNL     1      45.781   4.171  13.094  0.00  0.00    +0.000 A 
ATOM     21  C   UNL     1      46.949   4.945  13.160  0.00  0.00    +0.000 A 
ATOM     22  C   UNL     1      46.791   6.341  13.163  0.00  0.00    +0.000 A 
ENDBRANCH  12  13
ENDBRANCH   5  12
TORSDOF 5
ENDMDL
MODEL 8
REMARK VINA RESULT:    -5.579      3.770      7.192
REMARK INTER + INTRA:          -7.541
REMARK INTER:                  -6.831
REMARK INTRA:                  -0.711
REMARK UNBOUND:                -0.495
REMARK  Name = 
REMARK  5 active torsions:
REMARK  status: ('A' for Active; 'I' for Inactive)
REMARK    1  A    between atoms: N_1  and  C_2
REMARK    2  A    between atoms: C_2  and  C_3
REMARK    3  A    between atoms: C_3  and  C_4
REMARK    4  A    between atoms: C_8  and  C_9
REMARK    5  A    between atoms: C_9  and  N_10
REMARK                            x       y       z     vdW  Elec       q    Type
REMARK                         _______ _______ _______ _____ _____    ______ ____
ROOT
ATOM      1  C   UNL     1      44.802   5.745  11.675  0.00  0.00    +0.000 A 
ATOM      2  C   UNL     1      44.405   7.087  11.565  0.00  0.00    +0.000 A 
ATOM      3  C   UNL     1      45.204   8.112  12.041  0.00  0.00    +0.000 A 
ATOM      4  C   UNL     1      46.439   7.820  12.622  0.00  0.00    +0.000 A 
ATOM      5  C   UNL     1      46.885   6.493  12.723  0.00  0.00    +0.000 A 
ATOM      6  C   UNL     1      46.056   5.465  12.255  0.00  0.00    +0.000 A 
ENDROOT
BRANCH   1   7
ATOM      7  C   UNL     1      43.906   4.636  11.199  0.00  0.00    +0.000 C 
BRANCH   7   8
ATOM      8  C   UNL     1      44.514   3.244  11.408  0.00  0.00    +0.000 C 
BRANCH   8   9
ATOM      9  N   UNL     1      43.819   2.533  12.481  0.00  0.00    +0.000 NA
ATOM     10  H   UNL     1      44.395   1.757  12.805  0.00  0.00    +0.000 HD
ATOM     11  H   UNL     1      42.960   2.118  12.119  0.00  0.00    +0.000 HD
ENDBRANCH   8   9
ENDBRANCH   7   8
ENDBRANCH   1   7
BRANCH   5  12
ATOM     12  C   UNL     1      48.246   6.175  13.295  0.00  0.00    +0.000 C 
BRANCH  12  13
ATOM     13  N   UNL     1      48.325   6.383  14.738  0.00  0.00    +0.000 N 
ATOM     14  C   UNL     1      49.024   7.413  15.330  0.00  0.00    +0.000 A 
ATOM     15  C   UNL     1      48.951   7.245  16.693  0.00  0.00    +0.000 A 
ATOM     16  C   UNL     1      48.575   5.896  16.898  0.00  0.00    +0.000 A 
ATOM     17  C   UNL     1      48.693   5.012  17.988  0.00  0.00    +0.000 A 
ATOM     18  C   UNL     1      48.204   3.716  17.841  0.00  0.00    +0.000 A 
ATOM     19  F   UNL     1      48.441   2.819  18.810  0.00  0.00    +0.000 F 
ATOM     20  C   UNL     1      47.507   3.324  16.708  0.00  0.00    +0.000 A 
ATOM     21  C   UNL     1      47.360   4.196  15.620  0.00  0.00    +0.000 A 
ATOM     22  C   UNL     1      48.011   5.438  15.702  0.00  0.00    +0.000 A 
ENDBRANCH  12  13
ENDBRANCH   5  12
TORSDOF 5
ENDMDL
MODEL 9
REMARK VINA RESULT:    -5.567      3.687      5.899
REMARK INTER + INTRA:          -7.526
REMARK INTER:                  -6.845
REMARK INTRA:                  -0.682
REMARK UNBOUND:                -0.495
REMARK  Name = 
REMARK  5 active torsions:
REMARK  status: ('A' for Active; 'I' for Inactive)
REMARK    1  A    between atoms: N_1  and  C_2
REMARK    2  A    between atoms: C_2  and  C_3
REMARK    3  A    between atoms: C_3  and  C_4
REMARK    4  A    between atoms: C_8  and  C_9
REMARK    5  A    between atoms: C_9  and  N_10
REMARK                            x       y       z     vdW  Elec       q    Type
REMARK                         _______ _______ _______ _____ _____    ______ ____
ROOT
ATOM      1  C   UNL     1      50.038   4.695  17.293  0.00  0.00    +0.000 A 
ATOM      2  C   UNL     1      51.396   5.047  17.339  0.00  0.00    +0.000 A 
ATOM      3  C   UNL     1      51.860   6.196  16.720  0.00  0.00    +0.000 A 
ATOM      4  C   UNL     1      50.966   7.037  16.056  0.00  0.00    +0.000 A 
ATOM      5  C   UNL     1      49.597   6.735  16.014  0.00  0.00    +0.000 A 
ATOM      6  C   UNL     1      49.146   5.559  16.627  0.00  0.00    +0.000 A 
ENDROOT
BRANCH   1   7
ATOM      7  C   UNL     1      49.552   3.420  17.926  0.00  0.00    +0.000 C 
BRANCH   7   8
ATOM      8  C   UNL     1      48.612   2.621  17.017  0.00  0.00    +0.000 C 
BRANCH   8   9
ATOM      9  N   UNL     1      49.376   1.776  16.099  0.00  0.00    +0.000 NA
ATOM     10  H   UNL     1      48.946   0.853  16.046  0.00  0.00    +0.000 HD
ATOM     11  H   UNL     1      50.316   1.630  16.467  0.00  0.00    +0.000 HD
ENDBRANCH   8   9
ENDBRANCH   7   8
ENDBRANCH   1   7
BRANCH   5  12
ATOM     12  C   UNL     1      48.617   7.673  15.349  0.00  0.00    +0.000 C 
BRANCH  12  13
ATOM     13  N   UNL     1      48.462   7.421  13.919  0.00  0.00    +0.000 N 
ATOM     14  C   UNL     1      48.924   8.267  12.934  0.00  0.00    +0.000 A 
ATOM     15  C   UNL     1      48.526   7.759  11.719  0.00  0.00    +0.000 A 
ATOM     16  C   UNL     1      47.476   6.853  12.002  0.00  0.00    +0.000 A 
ATOM     17  C   UNL     1      46.427   6.314  11.233  0.00  0.00    +0.000 A 
ATOM     18  C   UNL     1      45.547   5.427  11.849  0.00  0.00    +0.000 A 
ATOM     19  F   UNL     1      44.458   5.022  11.178  0.00  0.00    +0.000 F 
ATOM     20  C   UNL     1      45.753   4.978  13.144  0.00  0.00    +0.000 A 
ATOM     21  C   UNL     1      46.804   5.486  13.921  0.00  0.00    +0.000 A 
ATOM     22  C   UNL     1      47.578   6.514  13.356  0.00  0.00    +0.000 A 
ENDBRANCH  12  13
ENDBRANCH   5  12
TORSDOF 5
ENDMDL
