MODEL 1
REMARK VINA RESULT:    -7.993      0.000      0.000
REMARK INTER + INTRA:         -11.898
REMARK INTER:                 -10.797
REMARK INTRA:                  -1.101
REMARK UNBOUND:                -1.101
REMARK  Name = 
REMARK  10 active torsions:
REMARK  status: ('A' for Active; 'I' for Inactive)
REMARK    1  A    between atoms: C_1  and  C_2
REMARK    2  A    between atoms: N_4  and  C_5
REMARK    3  A    between atoms: C_9  and  C_10
REMARK    4  A    between atoms: C_10  and  C_11
REMARK    5  A    between atoms: C_10  and  C_12
REMARK    6  A    between atoms: C_10  and  C_13
REMARK    7  A    between atoms: C_13  and  N_14
REMARK    8  A    between atoms: N_14  and  C_15
REMARK    9  A    between atoms: C_18  and  C_19
REMARK   10  A    between atoms: C_26  and  C_27
REMARK                            x       y       z     vdW  Elec       q    Type
REMARK                         _______ _______ _______ _____ _____    ______ ____
ROOT
ATOM      1  C   UNL     1      44.098   4.637  12.338  0.00  0.00    +0.000 C 
ATOM      2  C   UNL     1      44.049   3.092  12.449  0.00  0.00    +0.000 C 
ATOM      3  C   UNL     1      42.994   5.257  13.218  0.00  0.00    +0.000 C 
ENDROOT
BRANCH   1   8
ATOM      4  C   UNL     1      47.308   6.786  12.669  0.00  0.00    +0.000 A 
ATOM      5  C   UNL     1      47.877   6.238  13.819  0.00  0.00    +0.000 A 
ATOM      6  C   UNL     1      47.302   5.146  14.459  0.00  0.00    +0.000 A 
ATOM      7  C   UNL     1      46.114   4.594  13.979  0.00  0.00    +0.000 A 
ATOM      8  C   UNL     1      45.484   5.116  12.841  0.00  0.00    +0.000 A 
ATOM      9  C   UNL     1      46.138   6.180  12.181  0.00  0.00    +0.000 A 
BRANCH   4  13
ATOM     10  C   UNL     1      48.676   9.770  14.457  0.00  0.00    +0.000 C 
ATOM     11  C   UNL     1      48.499  10.100  12.976  0.00  0.00    +0.000 C 
ATOM     12  C   UNL     1      47.410   9.249  12.296  0.00  0.00    +0.000 C 
ATOM     13  N   UNL     1      47.878   7.883  12.059  0.00  0.00    +0.000 N 
ATOM     14  C   UNL     1      49.190   7.784  11.401  0.00  0.00    +0.000 C 
ATOM     15  C   UNL     1      50.228   8.677  12.116  0.00  0.00    +0.000 C 
ATOM     16  C   UNL     1      51.527   8.731  11.318  0.00  0.00    +0.000 C 
ATOM     17  O   UNL     1      49.754  10.029  12.269  0.00  0.00    +0.000 OA
ENDBRANCH   4  13
ENDBRANCH   1   8
BRANCH   1  18
ATOM     18  C   UNL     1      43.852   5.021  10.848  0.00  0.00    +0.000 C 
BRANCH  18  19
ATOM     19  N   UNL     1      43.543   3.875   9.975  0.00  0.00    +0.000 N 
ATOM     20  H   UNL     1      42.664   3.983   9.477  0.00  0.00    +0.000 HD
BRANCH  19  21
ATOM     21  C   UNL     1      44.565   3.473   9.100  0.00  0.00    +0.000 A 
ATOM     22  C   UNL     1      45.333   4.384   8.367  0.00  0.00    +0.000 A 
ATOM     23  C   UNL     1      46.376   3.941   7.556  0.00  0.00    +0.000 A 
ATOM     24  C   UNL     1      46.654   2.583   7.523  0.00  0.00    +0.000 A 
ATOM     25  N   UNL     1      45.960   1.653   8.241  0.00  0.00    +0.000 NA
ATOM     26  C   UNL     1      44.955   2.131   9.013  0.00  0.00    +0.000 A 
BRANCH  24  27
ATOM     27  C   UNL     1      47.779   2.090   6.680  0.00  0.00    +0.000 C 
ATOM     28  N   UNL     1      48.130   2.900   5.634  0.00  0.00    +0.000 N 
ATOM     29  O   UNL     1      48.355   1.031   6.897  0.00  0.00    +0.000 OA
ATOM     30  H   UNL     1      47.615   3.757   5.472  0.00  0.00    +0.000 HD
ATOM     31  H   UNL     1      48.865   2.610   5.006  0.00  0.00    +0.000 HD
ENDBRANCH  24  27
ENDBRANCH  19  21
ENDBRANCH  18  19
ENDBRANCH   1  18
TORSDOF 6
ENDMDL
MODEL 2
REMARK VINA RESULT:    -7.871      1.355      2.159
REMARK INTER + INTRA:         -11.733
REMARK INTER:                 -10.729
REMARK INTRA:                  -1.004
REMARK UNBOUND:                -1.101
REMARK  Name = 
REMARK  10 active torsions:
REMARK  status: ('A' for Active; 'I' for Inactive)
REMARK    1  A    between atoms: C_1  and  C_2
REMARK    2  A    between atoms: N_4  and  C_5
REMARK    3  A    between atoms: C_9  and  C_10
REMARK    4  A    between atoms: C_10  and  C_11
REMARK    5  A    between atoms: C_10  and  C_12
REMARK    6  A    between atoms: C_10  and  C_13
REMARK    7  A    between atoms: C_13  and  N_14
REMARK    8  A    between atoms: N_14  and  C_15
REMARK    9  A    between atoms: C_18  and  C_19
REMARK   10  A    between atoms: C_26  and  C_27
REMARK                            x       y       z     vdW  Elec       q    Type
REMARK                         _______ _______ _______ _____ _____    ______ ____
ROOT
ATOM      1  C   UNL     1      44.077   5.303  12.066  0.00  0.00    +0.000 C 
ATOM      2  C   UNL     1      45.344   4.472  12.396  0.00  0.00    +0.000 C 
ATOM      3  C   UNL     1      43.030   5.120  13.184  0.00  0.00    +0.000 C 
ENDROOT
BRANCH   1   8
ATOM      4  C   UNL     1      46.243   8.506  12.341  0.00  0.00    +0.000 A 
ATOM      5  C   UNL     1      45.444   9.427  11.662  0.00  0.00    +0.000 A 
ATOM      6  C   UNL     1      44.190   9.073  11.176  0.00  0.00    +0.000 A 
ATOM      7  C   UNL     1      43.718   7.769  11.329  0.00  0.00    +0.000 A 
ATOM      8  C   UNL     1      44.485   6.796  11.984  0.00  0.00    +0.000 A 
ATOM      9  C   UNL     1      45.722   7.214  12.523  0.00  0.00    +0.000 A 
BRANCH   4  13
ATOM     10  C   UNL     1      48.382   6.444  14.610  0.00  0.00    +0.000 C 
ATOM     11  C   UNL     1      48.917   7.873  14.566  0.00  0.00    +0.000 C 
ATOM     12  C   UNL     1      47.833   8.911  14.219  0.00  0.00    +0.000 C 
ATOM     13  N   UNL     1      47.494   8.866  12.796  0.00  0.00    +0.000 N 
ATOM     14  C   UNL     1      48.648   8.903  11.883  0.00  0.00    +0.000 C 
ATOM     15  C   UNL     1      49.705   7.857  12.299  0.00  0.00    +0.000 C 
ATOM     16  C   UNL     1      50.981   8.033  11.481  0.00  0.00    +0.000 C 
ATOM     17  O   UNL     1      50.059   7.979  13.691  0.00  0.00    +0.000 OA
ENDBRANCH   4  13
ENDBRANCH   1   8
BRANCH   1  18
ATOM     18  C   UNL     1      43.496   4.780  10.719  0.00  0.00    +0.000 C 
BRANCH  18  19
ATOM     19  N   UNL     1      43.821   3.373  10.429  0.00  0.00    +0.000 N 
ATOM     20  H   UNL     1      42.995   2.787  10.335  0.00  0.00    +0.000 HD
BRANCH  19  21
ATOM     21  C   UNL     1      44.711   3.151   9.366  0.00  0.00    +0.000 A 
ATOM     22  C   UNL     1      45.224   4.190   8.581  0.00  0.00    +0.000 A 
ATOM     23  C   UNL     1      46.152   3.927   7.576  0.00  0.00    +0.000 A 
ATOM     24  C   UNL     1      46.578   2.620   7.397  0.00  0.00    +0.000 A 
ATOM     25  N   UNL     1      46.137   1.573   8.153  0.00  0.00    +0.000 NA
ATOM     26  C   UNL     1      45.235   1.877   9.117  0.00  0.00    +0.000 A 
BRANCH  24  27
ATOM     27  C   UNL     1      47.586   2.319   6.342  0.00  0.00    +0.000 C 
ATOM     28  N   UNL     1      47.514   3.100   5.220  0.00  0.00    +0.000 N 
ATOM     29  O   UNL     1      48.424   1.434   6.459  0.00  0.00    +0.000 OA
ATOM     30  H   UNL     1      46.792   3.807   5.149  0.00  0.00    +0.000 HD
ATOM     31  H   UNL     1      48.149   2.928   4.455  0.00  0.00    +0.000 HD
ENDBRANCH  24  27
ENDBRANCH  19  21
ENDBRANCH  18  19
ENDBRANCH   1  18
TORSDOF 6
ENDMDL
MODEL 3
REMARK VINA RESULT:    -7.786      1.257      2.002
REMARK INTER + INTRA:         -11.617
REMARK INTER:                 -10.236
REMARK INTRA:                  -1.382
REMARK UNBOUND:                -1.101
REMARK  Name = 
REMARK  10 active torsions:
REMARK  status: ('A' for Active; 'I' for Inactive)
REMARK    1  A    between atoms: C_1  and  C_2
REMARK    2  A    between atoms: N_4  and  C_5
REMARK    3  A    between atoms: C_9  and  C_10
REMARK    4  A    between atoms: C_10  and  C_11
REMARK    5  A    between atoms: C_10  and  C_12
REMARK    6  A    between atoms: C_10  and  C_13
REMARK    7  A    between atoms: C_13  and  N_14
REMARK    8  A    between atoms: N_14  and  C_15
REMARK    9  A    between atoms: C_18  and  C_19
REMARK   10  A    between atoms: C_26  and  C_27
REMARK                            x       y       z     vdW  Elec       q    Type
REMARK                         _______ _______ _______ _____ _____    ______ ____
ROOT
ATOM      1  C   UNL     1      43.764   5.703  11.925  0.00  0.00    +0.000 C 
ATOM      2  C   UNL     1      42.731   5.462  13.054  0.00  0.00    +0.000 C 
ATOM      3  C   UNL     1      43.761   7.192  11.525  0.00  0.00    +0.000 C 
ENDROOT
BRANCH   1   8
ATOM      4  C   UNL     1      47.518   6.004  12.850  0.00  0.00    +0.000 A 
ATOM      5  C   UNL     1      47.696   4.850  13.613  0.00  0.00    +0.000 A 
ATOM      6  C   UNL     1      46.667   3.931  13.785  0.00  0.00    +0.000 A 
ATOM      7  C   UNL     1      45.413   4.166  13.221  0.00  0.00    +0.000 A 
ATOM      8  C   UNL     1      45.167   5.319  12.462  0.00  0.00    +0.000 A 
ATOM      9  C   UNL     1      46.259   6.191  12.254  0.00  0.00    +0.000 A 
BRANCH   4  13
ATOM     10  C   UNL     1      47.068   9.650  12.156  0.00  0.00    +0.000 C 
ATOM     11  C   UNL     1      48.520   9.256  11.890  0.00  0.00    +0.000 C 
ATOM     12  C   UNL     1      48.682   7.768  11.527  0.00  0.00    +0.000 C 
ATOM     13  N   UNL     1      48.541   6.917  12.709  0.00  0.00    +0.000 N 
ATOM     14  C   UNL     1      49.353   7.325  13.867  0.00  0.00    +0.000 C 
ATOM     15  C   UNL     1      49.163   8.829  14.163  0.00  0.00    +0.000 C 
ATOM     16  C   UNL     1      50.152   9.293  15.227  0.00  0.00    +0.000 C 
ATOM     17  O   UNL     1      49.376   9.636  12.988  0.00  0.00    +0.000 OA
ENDBRANCH   4  13
ENDBRANCH   1   8
BRANCH   1  18
ATOM     18  C   UNL     1      43.350   4.835  10.699  0.00  0.00    +0.000 C 
BRANCH  18  19
ATOM     19  N   UNL     1      44.124   5.113   9.477  0.00  0.00    +0.000 N 
ATOM     20  H   UNL     1      44.670   5.968   9.539  0.00  0.00    +0.000 HD
BRANCH  19  21
ATOM     21  C   UNL     1      44.909   4.055   8.989  0.00  0.00    +0.000 A 
ATOM     22  C   UNL     1      44.711   2.726   9.377  0.00  0.00    +0.000 A 
ATOM     23  C   UNL     1      45.476   1.703   8.821  0.00  0.00    +0.000 A 
ATOM     24  C   UNL     1      46.410   2.032   7.851  0.00  0.00    +0.000 A 
ATOM     25  N   UNL     1      46.624   3.306   7.410  0.00  0.00    +0.000 NA
ATOM     26  C   UNL     1      45.858   4.266   7.981  0.00  0.00    +0.000 A 
BRANCH  24  27
ATOM     27  C   UNL     1      47.224   0.951   7.226  0.00  0.00    +0.000 C 
ATOM     28  N   UNL     1      46.949  -0.318   7.660  0.00  0.00    +0.000 N 
ATOM     29  O   UNL     1      48.085   1.172   6.385  0.00  0.00    +0.000 OA
ATOM     30  H   UNL     1      46.245  -0.459   8.375  0.00  0.00    +0.000 HD
ATOM     31  H   UNL     1      47.485  -1.092   7.300  0.00  0.00    +0.000 HD
ENDBRANCH  24  27
ENDBRANCH  19  21
ENDBRANCH  18  19
ENDBRANCH   1  18
TORSDOF 6
ENDMDL
MODEL 4
REMARK VINA RESULT:    -7.382      2.076      2.566
REMARK INTER + INTRA:         -11.073
REMARK INTER:                 -10.088
REMARK INTRA:                  -0.985
REMARK UNBOUND:                -1.101
REMARK  Name = 
REMARK  10 active torsions:
REMARK  status: ('A' for Active; 'I' for Inactive)
REMARK    1  A    between atoms: C_1  and  C_2
REMARK    2  A    between atoms: N_4  and  C_5
REMARK    3  A    between atoms: C_9  and  C_10
REMARK    4  A    between atoms: C_10  and  C_11
REMARK    5  A    between atoms: C_10  and  C_12
REMARK    6  A    between atoms: C_10  and  C_13
REMARK    7  A    between atoms: C_13  and  N_14
REMARK    8  A    between atoms: N_14  and  C_15
REMARK    9  A    between atoms: C_18  and  C_19
REMARK   10  A    between atoms: C_26  and  C_27
REMARK                            x       y       z     vdW  Elec       q    Type
REMARK                         _______ _______ _______ _____ _____    ______ ____
ROOT
ATOM      1  C   UNL     1      44.835   6.603  11.893  0.00  0.00    +0.000 C 
ATOM      2  C   UNL     1      43.512   5.932  12.342  0.00  0.00    +0.000 C 
ATOM      3  C   UNL     1      44.682   8.137  11.937  0.00  0.00    +0.000 C 
ENDROOT
BRANCH   1   8
ATOM      4  C   UNL     1      47.914   6.841  14.238  0.00  0.00    +0.000 A 
ATOM      5  C   UNL     1      47.886   5.582  14.840  0.00  0.00    +0.000 A 
ATOM      6  C   UNL     1      46.951   4.624  14.466  0.00  0.00    +0.000 A 
ATOM      7  C   UNL     1      45.991   4.916  13.498  0.00  0.00    +0.000 A 
ATOM      8  C   UNL     1      45.955   6.171  12.874  0.00  0.00    +0.000 A 
ATOM      9  C   UNL     1      46.965   7.091  13.232  0.00  0.00    +0.000 A 
BRANCH   4  13
ATOM     10  C   UNL     1      48.655   7.761  17.784  0.00  0.00    +0.000 C 
ATOM     11  C   UNL     1      49.227   8.826  16.852  0.00  0.00    +0.000 C 
ATOM     12  C   UNL     1      48.480   8.911  15.506  0.00  0.00    +0.000 C 
ATOM     13  N   UNL     1      48.832   7.788  14.636  0.00  0.00    +0.000 N 
ATOM     14  C   UNL     1      50.277   7.549  14.487  0.00  0.00    +0.000 C 
ATOM     15  C   UNL     1      50.967   7.498  15.867  0.00  0.00    +0.000 C 
ATOM     16  C   UNL     1      52.482   7.454  15.706  0.00  0.00    +0.000 C 
ATOM     17  O   UNL     1      50.647   8.654  16.667  0.00  0.00    +0.000 OA
ENDBRANCH   4  13
ENDBRANCH   1   8
BRANCH   1  18
ATOM     18  C   UNL     1      45.132   6.152  10.431  0.00  0.00    +0.000 C 
BRANCH  18  19
ATOM     19  N   UNL     1      44.297   5.032   9.966  0.00  0.00    +0.000 N 
ATOM     20  H   UNL     1      43.453   5.338   9.489  0.00  0.00    +0.000 HD
BRANCH  19  21
ATOM     21  C   UNL     1      44.955   4.037   9.224  0.00  0.00    +0.000 A 
ATOM     22  C   UNL     1      45.818   4.333   8.164  0.00  0.00    +0.000 A 
ATOM     23  C   UNL     1      46.495   3.316   7.495  0.00  0.00    +0.000 A 
ATOM     24  C   UNL     1      46.319   2.011   7.930  0.00  0.00    +0.000 A 
ATOM     25  N   UNL     1      45.517   1.667   8.978  0.00  0.00    +0.000 NA
ATOM     26  C   UNL     1      44.878   2.690   9.596  0.00  0.00    +0.000 A 
BRANCH  24  27
ATOM     27  C   UNL     1      47.051   0.909   7.244  0.00  0.00    +0.000 C 
ATOM     28  N   UNL     1      46.752  -0.355   7.676  0.00  0.00    +0.000 N 
ATOM     29  O   UNL     1      47.871   1.110   6.356  0.00  0.00    +0.000 OA
ATOM     30  H   UNL     1      46.086  -0.480   8.429  0.00  0.00    +0.000 HD
ATOM     31  H   UNL     1      47.235  -1.144   7.274  0.00  0.00    +0.000 HD
ENDBRANCH  24  27
ENDBRANCH  19  21
ENDBRANCH  18  19
ENDBRANCH   1  18
TORSDOF 6
ENDMDL
MODEL 5
REMARK VINA RESULT:    -7.381      1.756      2.912
REMARK INTER + INTRA:         -11.071
REMARK INTER:                 -10.118
REMARK INTRA:                  -0.953
REMARK UNBOUND:                -1.101
REMARK  Name = 
REMARK  10 active torsions:
REMARK  status: ('A' for Active; 'I' for Inactive)
REMARK    1  A    between atoms: C_1  and  C_2
REMARK    2  A    between atoms: N_4  and  C_5
REMARK    3  A    between atoms: C_9  and  C_10
REMARK    4  A    between atoms: C_10  and  C_11
REMARK    5  A    between atoms: C_10  and  C_12
REMARK    6  A    between atoms: C_10  and  C_13
REMARK    7  A    between atoms: C_13  and  N_14
REMARK    8  A    between atoms: N_14  and  C_15
REMARK    9  A    between atoms: C_18  and  C_19
REMARK   10  A    between atoms: C_26  and  C_27
REMARK                            x       y       z     vdW  Elec       q    Type
REMARK                         _______ _______ _______ _____ _____    ______ ____
ROOT
ATOM      1  C   UNL     1      44.007   5.597  12.000  0.00  0.00    +0.000 C 
ATOM      2  C   UNL     1      43.185   5.235  13.263  0.00  0.00    +0.000 C 
ATOM      3  C   UNL     1      43.058   6.065  10.878  0.00  0.00    +0.000 C 
ENDROOT
BRANCH   1   8
ATOM      4  C   UNL     1      47.155   7.419  13.341  0.00  0.00    +0.000 A 
ATOM      5  C   UNL     1      46.935   8.713  12.867  0.00  0.00    +0.000 A 
ATOM      6  C   UNL     1      45.768   9.043  12.187  0.00  0.00    +0.000 A 
ATOM      7  C   UNL     1      44.801   8.071  11.934  0.00  0.00    +0.000 A 
ATOM      8  C   UNL     1      44.976   6.749  12.367  0.00  0.00    +0.000 A 
ATOM      9  C   UNL     1      46.143   6.471  13.113  0.00  0.00    +0.000 A 
BRANCH   4  13
ATOM     10  C   UNL     1      49.022   9.696  15.643  0.00  0.00    +0.000 C 
ATOM     11  C   UNL     1      49.922   8.530  15.241  0.00  0.00    +0.000 C 
ATOM     12  C   UNL     1      49.538   7.916  13.881  0.00  0.00    +0.000 C 
ATOM     13  N   UNL     1      48.328   7.101  13.992  0.00  0.00    +0.000 N 
ATOM     14  C   UNL     1      48.340   6.121  15.091  0.00  0.00    +0.000 C 
ATOM     15  C   UNL     1      48.754   6.795  16.418  0.00  0.00    +0.000 C 
ATOM     16  C   UNL     1      48.962   5.748  17.507  0.00  0.00    +0.000 C 
ATOM     17  O   UNL     1      49.985   7.532  16.281  0.00  0.00    +0.000 OA
ENDBRANCH   4  13
ENDBRANCH   1   8
BRANCH   1  18
ATOM     18  C   UNL     1      44.768   4.318  11.538  0.00  0.00    +0.000 C 
BRANCH  18  19
ATOM     19  N   UNL     1      44.177   3.659  10.360  0.00  0.00    +0.000 N 
ATOM     20  H   UNL     1      43.385   4.169   9.977  0.00  0.00    +0.000 HD
BRANCH  19  21
ATOM     21  C   UNL     1      45.074   3.294   9.342  0.00  0.00    +0.000 A 
ATOM     22  C   UNL     1      45.369   1.962   9.039  0.00  0.00    +0.000 A 
ATOM     23  C   UNL     1      46.219   1.647   7.981  0.00  0.00    +0.000 A 
ATOM     24  C   UNL     1      46.734   2.684   7.218  0.00  0.00    +0.000 A 
ATOM     25  N   UNL     1      46.455   4.000   7.448  0.00  0.00    +0.000 NA
ATOM     26  C   UNL     1      45.625   4.256   8.487  0.00  0.00    +0.000 A 
BRANCH  24  27
ATOM     27  C   UNL     1      47.628   2.370   6.068  0.00  0.00    +0.000 C 
ATOM     28  N   UNL     1      47.444   3.141   4.952  0.00  0.00    +0.000 N 
ATOM     29  O   UNL     1      48.469   1.480   6.106  0.00  0.00    +0.000 OA
ATOM     30  H   UNL     1      46.723   3.852   4.950  0.00  0.00    +0.000 HD
ATOM     31  H   UNL     1      47.996   2.960   4.128  0.00  0.00    +0.000 HD
ENDBRANCH  24  27
ENDBRANCH  19  21
ENDBRANCH  18  19
ENDBRANCH   1  18
TORSDOF 6
ENDMDL
MODEL 6
REMARK VINA RESULT:    -7.237      3.385      7.819
REMARK INTER + INTRA:         -10.876
REMARK INTER:                  -9.855
REMARK INTRA:                  -1.021
REMARK UNBOUND:                -1.101
REMARK  Name = 
REMARK  10 active torsions:
REMARK  status: ('A' for Active; 'I' for Inactive)
REMARK    1  A    between atoms: C_1  and  C_2
REMARK    2  A    between atoms: N_4  and  C_5
REMARK    3  A    between atoms: C_9  and  C_10
REMARK    4  A    between atoms: C_10  and  C_11
REMARK    5  A    between atoms: C_10  and  C_12
REMARK    6  A    between atoms: C_10  and  C_13
REMARK    7  A    between atoms: C_13  and  N_14
REMARK    8  A    between atoms: N_14  and  C_15
REMARK    9  A    between atoms: C_18  and  C_19
REMARK   10  A    between atoms: C_26  and  C_27
REMARK                            x       y       z     vdW  Elec       q    Type
REMARK                         _______ _______ _______ _____ _____    ______ ____
ROOT
ATOM      1  C   UNL     1      49.294   8.478  12.365  0.00  0.00    +0.000 C 
ATOM      2  C   UNL     1      49.968   7.805  11.143  0.00  0.00    +0.000 C 
ATOM      3  C   UNL     1      49.561   9.996  12.337  0.00  0.00    +0.000 C 
ENDROOT
BRANCH   1   8
ATOM      4  C   UNL     1      45.935   6.582  11.975  0.00  0.00    +0.000 A 
ATOM      5  C   UNL     1      45.025   7.576  12.339  0.00  0.00    +0.000 A 
ATOM      6  C   UNL     1      45.448   8.866  12.638  0.00  0.00    +0.000 A 
ATOM      7  C   UNL     1      46.805   9.186  12.614  0.00  0.00    +0.000 A 
ATOM      8  C   UNL     1      47.767   8.223  12.278  0.00  0.00    +0.000 A 
ATOM      9  C   UNL     1      47.291   6.945  11.913  0.00  0.00    +0.000 A 
BRANCH   4  13
ATOM     10  C   UNL     1      42.357   5.512  11.799  0.00  0.00    +0.000 C 
ATOM     11  C   UNL     1      43.253   4.279  11.901  0.00  0.00    +0.000 C 
ATOM     12  C   UNL     1      44.598   4.569  12.593  0.00  0.00    +0.000 C 
ATOM     13  N   UNL     1      45.502   5.301  11.704  0.00  0.00    +0.000 N 
ATOM     14  C   UNL     1      45.652   4.723  10.359  0.00  0.00    +0.000 C 
ATOM     15  C   UNL     1      44.270   4.435   9.732  0.00  0.00    +0.000 C 
ATOM     16  C   UNL     1      44.425   3.654   8.432  0.00  0.00    +0.000 C 
ATOM     17  O   UNL     1      43.436   3.656  10.613  0.00  0.00    +0.000 OA
ENDBRANCH   4  13
ENDBRANCH   1   8
BRANCH   1  18
ATOM     18  C   UNL     1      49.916   7.864  13.656  0.00  0.00    +0.000 C 
BRANCH  18  19
ATOM     19  N   UNL     1      49.126   8.105  14.877  0.00  0.00    +0.000 N 
ATOM     20  H   UNL     1      48.302   8.676  14.709  0.00  0.00    +0.000 HD
BRANCH  19  21
ATOM     21  C   UNL     1      48.799   6.969  15.635  0.00  0.00    +0.000 A 
ATOM     22  C   UNL     1      48.885   6.943  17.030  0.00  0.00    +0.000 A 
ATOM     23  C   UNL     1      48.492   5.812  17.743  0.00  0.00    +0.000 A 
ATOM     24  C   UNL     1      47.985   4.731  17.038  0.00  0.00    +0.000 A 
ATOM     25  N   UNL     1      47.848   4.714  15.681  0.00  0.00    +0.000 NA
ATOM     26  C   UNL     1      48.244   5.834  15.031  0.00  0.00    +0.000 A 
BRANCH  24  27
ATOM     27  C   UNL     1      47.538   3.520  17.782  0.00  0.00    +0.000 C 
ATOM     28  N   UNL     1      48.334   3.148  18.832  0.00  0.00    +0.000 N 
ATOM     29  O   UNL     1      46.531   2.891  17.481  0.00  0.00    +0.000 OA
ATOM     30  H   UNL     1      49.171   3.679  19.036  0.00  0.00    +0.000 HD
ATOM     31  H   UNL     1      48.104   2.318  19.359  0.00  0.00    +0.000 HD
ENDBRANCH  24  27
ENDBRANCH  19  21
ENDBRANCH  18  19
ENDBRANCH   1  18
TORSDOF 6
ENDMDL
MODEL 7
REMARK VINA RESULT:    -6.795      3.487      6.062
REMARK INTER + INTRA:         -10.280
REMARK INTER:                  -8.990
REMARK INTRA:                  -1.290
REMARK UNBOUND:                -1.101
REMARK  Name = 
REMARK  10 active torsions:
REMARK  status: ('A' for Active; 'I' for Inactive)
REMARK    1  A    between atoms: C_1  and  C_2
REMARK    2  A    between atoms: N_4  and  C_5
REMARK    3  A    between atoms: C_9  and  C_10
REMARK    4  A    between atoms: C_10  and  C_11
REMARK    5  A    between atoms: C_10  and  C_12
REMARK    6  A    between atoms: C_10  and  C_13
REMARK    7  A    between atoms: C_13  and  N_14
REMARK    8  A    between atoms: N_14  and  C_15
REMARK    9  A    between atoms: C_18  and  C_19
REMARK   10  A    between atoms: C_26  and  C_27
REMARK                            x       y       z     vdW  Elec       q    Type
REMARK                         _______ _______ _______ _____ _____    ______ ____
ROOT
ATOM      1  C   UNL     1      48.524   8.020  13.219  0.00  0.00    +0.000 C 
ATOM      2  C   UNL     1      49.524   9.067  12.666  0.00  0.00    +0.000 C 
ATOM      3  C   UNL     1      49.021   6.598  12.884  0.00  0.00    +0.000 C 
ENDROOT
BRANCH   1   8
ATOM      4  C   UNL     1      48.638   7.125  16.990  0.00  0.00    +0.000 A 
ATOM      5  C   UNL     1      48.581   8.395  17.566  0.00  0.00    +0.000 A 
ATOM      6  C   UNL     1      48.434   9.535  16.784  0.00  0.00    +0.000 A 
ATOM      7  C   UNL     1      48.374   9.435  15.395  0.00  0.00    +0.000 A 
ATOM      8  C   UNL     1      48.448   8.188  14.758  0.00  0.00    +0.000 A 
ATOM      9  C   UNL     1      48.527   7.050  15.591  0.00  0.00    +0.000 A 
BRANCH   4  13
ATOM     10  C   UNL     1      47.468   3.684  16.114  0.00  0.00    +0.000 C 
ATOM     11  C   UNL     1      47.816   3.741  17.600  0.00  0.00    +0.000 C 
ATOM     12  C   UNL     1      47.690   5.158  18.193  0.00  0.00    +0.000 C 
ATOM     13  N   UNL     1      48.807   6.005  17.776  0.00  0.00    +0.000 N 
ATOM     14  C   UNL     1      50.140   5.411  17.965  0.00  0.00    +0.000 C 
ATOM     15  C   UNL     1      50.192   3.987  17.371  0.00  0.00    +0.000 C 
ATOM     16  C   UNL     1      51.501   3.299  17.744  0.00  0.00    +0.000 C 
ATOM     17  O   UNL     1      49.113   3.165  17.858  0.00  0.00    +0.000 OA
ENDBRANCH   4  13
ENDBRANCH   1   8
BRANCH   1  18
ATOM     18  C   UNL     1      47.145   8.262  12.536  0.00  0.00    +0.000 C 
BRANCH  18  19
ATOM     19  N   UNL     1      46.001   7.698  13.274  0.00  0.00    +0.000 N 
ATOM     20  H   UNL     1      45.287   8.390  13.485  0.00  0.00    +0.000 HD
BRANCH  19  21
ATOM     21  C   UNL     1      45.425   6.539  12.729  0.00  0.00    +0.000 A 
ATOM     22  C   UNL     1      44.974   6.469  11.407  0.00  0.00    +0.000 A 
ATOM     23  C   UNL     1      44.465   5.279  10.894  0.00  0.00    +0.000 A 
ATOM     24  C   UNL     1      44.450   4.160  11.713  0.00  0.00    +0.000 A 
ATOM     25  N   UNL     1      44.907   4.162  12.999  0.00  0.00    +0.000 NA
ATOM     26  C   UNL     1      45.391   5.341  13.454  0.00  0.00    +0.000 A 
BRANCH  24  27
ATOM     27  C   UNL     1      43.931   2.871  11.177  0.00  0.00    +0.000 C 
ATOM     28  N   UNL     1      44.576   2.392  10.069  0.00  0.00    +0.000 N 
ATOM     29  O   UNL     1      42.988   2.274  11.683  0.00  0.00    +0.000 OA
ATOM     30  H   UNL     1      45.336   2.925   9.665  0.00  0.00    +0.000 HD
ATOM     31  H   UNL     1      44.254   1.538   9.638  0.00  0.00    +0.000 HD
ENDBRANCH  24  27
ENDBRANCH  19  21
ENDBRANCH  18  19
ENDBRANCH   1  18
TORSDOF 6
ENDMDL
MODEL 8
REMARK VINA RESULT:    -6.693      4.019      6.542
REMARK INTER + INTRA:         -10.141
REMARK INTER:                  -9.162
REMARK INTRA:                  -0.980
REMARK UNBOUND:                -1.101
REMARK  Name = 
REMARK  10 active torsions:
REMARK  status: ('A' for Active; 'I' for Inactive)
REMARK    1  A    between atoms: C_1  and  C_2
REMARK    2  A    between atoms: N_4  and  C_5
REMARK    3  A    between atoms: C_9  and  C_10
REMARK    4  A    between atoms: C_10  and  C_11
REMARK    5  A    between atoms: C_10  and  C_12
REMARK    6  A    between atoms: C_10  and  C_13
REMARK    7  A    between atoms: C_13  and  N_14
REMARK    8  A    between atoms: N_14  and  C_15
REMARK    9  A    between atoms: C_18  and  C_19
REMARK   10  A    between atoms: C_26  and  C_27
REMARK                            x       y       z     vdW  Elec       q    Type
REMARK                         _______ _______ _______ _____ _____    ______ ____
ROOT
ATOM      1  C   UNL     1      49.199   8.201  14.061  0.00  0.00    +0.000 C 
ATOM      2  C   UNL     1      48.179   8.971  14.938  0.00  0.00    +0.000 C 
ATOM      3  C   UNL     1      49.804   9.153  13.009  0.00  0.00    +0.000 C 
ENDROOT
BRANCH   1   8
ATOM      4  C   UNL     1      51.011   6.052  16.731  0.00  0.00    +0.000 A 
ATOM      5  C   UNL     1      52.335   6.447  16.535  0.00  0.00    +0.000 A 
ATOM      6  C   UNL     1      52.665   7.439  15.619  0.00  0.00    +0.000 A 
ATOM      7  C   UNL     1      51.672   8.040  14.845  0.00  0.00    +0.000 A 
ATOM      8  C   UNL     1      50.327   7.670  14.982  0.00  0.00    +0.000 A 
ATOM      9  C   UNL     1      50.027   6.709  15.973  0.00  0.00    +0.000 A 
BRANCH   4  13
ATOM     10  C   UNL     1      47.978   3.874  16.562  0.00  0.00    +0.000 C 
ATOM     11  C   UNL     1      48.616   3.751  17.944  0.00  0.00    +0.000 C 
ATOM     12  C   UNL     1      49.428   4.998  18.344  0.00  0.00    +0.000 C 
ATOM     13  N   UNL     1      50.703   5.051  17.627  0.00  0.00    +0.000 N 
ATOM     14  C   UNL     1      51.488   3.807  17.668  0.00  0.00    +0.000 C 
ATOM     15  C   UNL     1      50.612   2.596  17.280  0.00  0.00    +0.000 C 
ATOM     16  C   UNL     1      51.367   1.292  17.517  0.00  0.00    +0.000 C 
ATOM     17  O   UNL     1      49.398   2.544  18.055  0.00  0.00    +0.000 OA
ENDBRANCH   4  13
ENDBRANCH   1   8
BRANCH   1  18
ATOM     18  C   UNL     1      48.440   7.046  13.341  0.00  0.00    +0.000 C 
BRANCH  18  19
ATOM     19  N   UNL     1      47.131   6.724  13.936  0.00  0.00    +0.000 N 
ATOM     20  H   UNL     1      46.600   7.551  14.194  0.00  0.00    +0.000 HD
BRANCH  19  21
ATOM     21  C   UNL     1      46.331   5.822  13.216  0.00  0.00    +0.000 A 
ATOM     22  C   UNL     1      45.607   6.196  12.080  0.00  0.00    +0.000 A 
ATOM     23  C   UNL     1      44.874   5.253  11.363  0.00  0.00    +0.000 A 
ATOM     24  C   UNL     1      44.910   3.932  11.784  0.00  0.00    +0.000 A 
ATOM     25  N   UNL     1      45.624   3.504  12.865  0.00  0.00    +0.000 NA
ATOM     26  C   UNL     1      46.319   4.458  13.530  0.00  0.00    +0.000 A 
BRANCH  24  27
ATOM     27  C   UNL     1      44.152   2.902  11.020  0.00  0.00    +0.000 C 
ATOM     28  N   UNL     1      44.808   2.366   9.945  0.00  0.00    +0.000 N 
ATOM     29  O   UNL     1      43.017   2.555  11.320  0.00  0.00    +0.000 OA
ATOM     30  H   UNL     1      45.737   2.695   9.712  0.00  0.00    +0.000 HD
ATOM     31  H   UNL     1      44.339   1.685   9.366  0.00  0.00    +0.000 HD
ENDBRANCH  24  27
ENDBRANCH  19  21
ENDBRANCH  18  19
ENDBRANCH   1  18
TORSDOF 6
ENDMDL
MODEL 9
REMARK VINA RESULT:    -6.493      4.000      7.088
REMARK INTER + INTRA:          -9.872
REMARK INTER:                  -8.471
REMARK INTRA:                  -1.400
REMARK UNBOUND:                -1.101
REMARK  Name = 
REMARK  10 active torsions:
REMARK  status: ('A' for Active; 'I' for Inactive)
REMARK    1  A    between atoms: C_1  and  C_2
REMARK    2  A    between atoms: N_4  and  C_5
REMARK    3  A    between atoms: C_9  and  C_10
REMARK    4  A    between atoms: C_10  and  C_11
REMARK    5  A    between atoms: C_10  and  C_12
REMARK    6  A    between atoms: C_10  and  C_13
REMARK    7  A    between atoms: C_13  and  N_14
REMARK    8  A    between atoms: N_14  and  C_15
REMARK    9  A    between atoms: C_18  and  C_19
REMARK   10  A    between atoms: C_26  and  C_27
REMARK                            x       y       z     vdW  Elec       q    Type
REMARK                         _______ _______ _______ _____ _____    ______ ____
ROOT
ATOM      1  C   UNL     1      50.223   8.299  13.248  0.00  0.00    +0.000 C 
ATOM      2  C   UNL     1      49.342   9.549  13.498  0.00  0.00    +0.000 C 
ATOM      3  C   UNL     1      51.513   8.710  12.511  0.00  0.00    +0.000 C 
ENDROOT
BRANCH   1   8
ATOM      4  C   UNL     1      49.875   6.301  16.552  0.00  0.00    +0.000 A 
ATOM      5  C   UNL     1      51.196   6.302  17.003  0.00  0.00    +0.000 A 
ATOM      6  C   UNL     1      52.192   6.989  16.318  0.00  0.00    +0.000 A 
ATOM      7  C   UNL     1      51.894   7.666  15.135  0.00  0.00    +0.000 A 
ATOM      8  C   UNL     1      50.590   7.682  14.621  0.00  0.00    +0.000 A 
ATOM      9  C   UNL     1      49.595   7.031  15.384  0.00  0.00    +0.000 A 
BRANCH   4  13
ATOM     10  C   UNL     1      49.956   2.623  17.217  0.00  0.00    +0.000 C 
ATOM     11  C   UNL     1      48.546   3.155  17.466  0.00  0.00    +0.000 C 
ATOM     12  C   UNL     1      48.232   4.428  16.658  0.00  0.00    +0.000 C 
ATOM     13  N   UNL     1      48.904   5.596  17.230  0.00  0.00    +0.000 N 
ATOM     14  C   UNL     1      48.721   5.767  18.680  0.00  0.00    +0.000 C 
ATOM     15  C   UNL     1      49.028   4.451  19.428  0.00  0.00    +0.000 C 
ATOM     16  C   UNL     1      48.645   4.570  20.899  0.00  0.00    +0.000 C 
ATOM     17  O   UNL     1      48.296   3.339  18.875  0.00  0.00    +0.000 OA
ENDBRANCH   4  13
ENDBRANCH   1   8
BRANCH   1  18
ATOM     18  C   UNL     1      49.411   7.308  12.360  0.00  0.00    +0.000 C 
BRANCH  18  19
ATOM     19  N   UNL     1      48.035   7.748  12.071  0.00  0.00    +0.000 N 
ATOM     20  H   UNL     1      47.942   8.179  11.155  0.00  0.00    +0.000 HD
BRANCH  19  21
ATOM     21  C   UNL     1      47.026   6.793  12.277  0.00  0.00    +0.000 A 
ATOM     22  C   UNL     1      47.105   5.813  13.272  0.00  0.00    +0.000 A 
ATOM     23  C   UNL     1      46.052   4.925  13.479  0.00  0.00    +0.000 A 
ATOM     24  C   UNL     1      44.913   5.061  12.698  0.00  0.00    +0.000 A 
ATOM     25  N   UNL     1      44.767   6.018  11.737  0.00  0.00    +0.000 NA
ATOM     26  C   UNL     1      45.818   6.856  11.572  0.00  0.00    +0.000 A 
BRANCH  24  27
ATOM     27  C   UNL     1      43.766   4.136  12.917  0.00  0.00    +0.000 C 
ATOM     28  N   UNL     1      44.000   2.823  12.609  0.00  0.00    +0.000 N 
ATOM     29  O   UNL     1      42.680   4.515  13.340  0.00  0.00    +0.000 OA
ATOM     30  H   UNL     1      44.903   2.551  12.239  0.00  0.00    +0.000 HD
ATOM     31  H   UNL     1      43.255   2.150  12.705  0.00  0.00    +0.000 HD
ENDBRANCH  24  27
ENDBRANCH  19  21
ENDBRANCH  18  19
ENDBRANCH   1  18
TORSDOF 6
ENDMDL
