MODEL 1
REMARK VINA RESULT:    -8.823      0.000      0.000
REMARK INTER + INTRA:         -13.181
REMARK INTER:                 -12.175
REMARK INTRA:                  -1.006
REMARK UNBOUND:                -1.006
REMARK  Name = 
REMARK  7 active torsions:
REMARK  status: ('A' for Active; 'I' for Inactive)
REMARK    1  A    between atoms: N_1  and  C_2
REMARK    2  A    between atoms: C_2  and  C_3
REMARK    3  A    between atoms: C_3  and  N_4
REMARK    4  A    between atoms: C_3  and  C_17
REMARK    5  A    between atoms: C_5  and  C_7
REMARK    6  A    between atoms: C_20  and  C_21
REMARK    7  A    between atoms: C_21  and  N_22
REMARK                            x       y       z     vdW  Elec       q    Type
REMARK                         _______ _______ _______ _____ _____    ______ ____
ROOT
ATOM      1  C   UNL     1      46.569   7.928  12.841  0.00  0.00    +0.000 C 
ENDROOT
BRANCH   1   2
ATOM      2  C   UNL     1      45.897   6.740  12.170  0.00  0.00    +0.000 A 
ATOM      3  C   UNL     1      44.883   6.000  12.792  0.00  0.00    +0.000 A 
ATOM      4  C   UNL     1      44.300   4.917  12.135  0.00  0.00    +0.000 A 
ATOM      5  C   UNL     1      44.736   4.594  10.852  0.00  0.00    +0.000 A 
ATOM      6  N   UNL     1      45.724   5.291  10.234  0.00  0.00    +0.000 NA
ATOM      7  C   UNL     1      46.284   6.328  10.902  0.00  0.00    +0.000 A 
BRANCH   5   8
ATOM      8  C   UNL     1      44.080   3.465  10.077  0.00  0.00    +0.000 C 
BRANCH   8   9
ATOM      9  N   UNL     1      44.276   3.594   8.643  0.00  0.00    +0.000 N 
ATOM     10  C   UNL     1      45.321   2.937   8.019  0.00  0.00    +0.000 A 
ATOM     11  C   UNL     1      45.819   1.709   8.448  0.00  0.00    +0.000 A 
ATOM     12  C   UNL     1      46.839   1.084   7.731  0.00  0.00    +0.000 A 
ATOM     13  C   UNL     1      47.322   1.688   6.582  0.00  0.00    +0.000 A 
ATOM     14  C   UNL     1      46.768   2.897   6.210  0.00  0.00    +0.000 A 
ATOM     15  N   UNL     1      45.796   3.532   6.907  0.00  0.00    +0.000 NA
ATOM     16  H   UNL     1      44.179   4.522   8.247  0.00  0.00    +0.000 HD
ENDBRANCH   8   9
ENDBRANCH   5   8
ENDBRANCH   1   2
BRANCH   1  17
ATOM     17  N   UNL     1      47.128   7.478  14.112  0.00  0.00    +0.000 N 
ATOM     18  C   UNL     1      48.322   6.808  14.210  0.00  0.00    +0.000 C 
ATOM     19  O   UNL     1      49.083   6.660  13.263  0.00  0.00    +0.000 OA
ATOM     20  H   UNL     1      46.450   7.328  14.853  0.00  0.00    +0.000 HD
BRANCH  18  21
ATOM     21  C   UNL     1      48.676   6.320  15.550  0.00  0.00    +0.000 A 
ATOM     22  C   UNL     1      49.615   6.994  16.310  0.00  0.00    +0.000 A 
ATOM     23  S   UNL     1      49.903   6.275  17.830  0.00  0.00    +0.000 S 
ATOM     24  C   UNL     1      48.814   5.009  17.499  0.00  0.00    +0.000 A 
ATOM     25  N   UNL     1      48.621   3.995  18.388  0.00  0.00    +0.000 NA
ATOM     26  C   UNL     1      47.795   3.085  17.987  0.00  0.00    +0.000 A 
ATOM     27  N   UNL     1      47.130   3.106  16.787  0.00  0.00    +0.000 N 
ATOM     28  C   UNL     1      47.249   4.137  15.888  0.00  0.00    +0.000 A 
ATOM     29  O   UNL     1      46.568   4.184  14.872  0.00  0.00    +0.000 OA
ATOM     30  C   UNL     1      48.206   5.160  16.267  0.00  0.00    +0.000 A 
ATOM     31  H   UNL     1      46.473   2.377  16.551  0.00  0.00    +0.000 HD
ENDBRANCH  18  21
ENDBRANCH   1  17
BRANCH   1  32
ATOM     32  C   UNL     1      45.581   9.123  13.013  0.00  0.00    +0.000 C 
BRANCH  32  33
ATOM     33  N   UNL     1      45.995  10.359  12.333  0.00  0.00    +0.000 NA
ATOM     34  H   UNL     1      45.709  10.305  11.355  0.00  0.00    +0.000 HD
ATOM     35  H   UNL     1      47.011  10.433  12.329  0.00  0.00    +0.000 HD
ENDBRANCH  32  33
ENDBRANCH   1  32
TORSDOF 7
ENDMDL
MODEL 2
REMARK VINA RESULT:    -8.555      2.012      2.496
REMARK INTER + INTRA:         -12.813
REMARK INTER:                 -11.594
REMARK INTRA:                  -1.218
REMARK UNBOUND:                -1.006
REMARK  Name = 
REMARK  7 active torsions:
REMARK  status: ('A' for Active; 'I' for Inactive)
REMARK    1  A    between atoms: N_1  and  C_2
REMARK    2  A    between atoms: C_2  and  C_3
REMARK    3  A    between atoms: C_3  and  N_4
REMARK    4  A    between atoms: C_3  and  C_17
REMARK    5  A    between atoms: C_5  and  C_7
REMARK    6  A    between atoms: C_20  and  C_21
REMARK    7  A    between atoms: C_21  and  N_22
REMARK                            x       y       z     vdW  Elec       q    Type
REMARK                         _______ _______ _______ _____ _____    ______ ____
ROOT
ATOM      1  C   UNL     1      47.911   6.960  13.721  0.00  0.00    +0.000 C 
ENDROOT
BRANCH   1   2
ATOM      2  C   UNL     1      46.921   6.168  12.880  0.00  0.00    +0.000 A 
ATOM      3  C   UNL     1      46.435   4.914  13.273  0.00  0.00    +0.000 A 
ATOM      4  C   UNL     1      45.531   4.226  12.465  0.00  0.00    +0.000 A 
ATOM      5  C   UNL     1      45.114   4.811  11.272  0.00  0.00    +0.000 A 
ATOM      6  N   UNL     1      45.579   6.022  10.866  0.00  0.00    +0.000 NA
ATOM      7  C   UNL     1      46.469   6.660  11.663  0.00  0.00    +0.000 A 
BRANCH   5   8
ATOM      8  C   UNL     1      44.078   4.126  10.397  0.00  0.00    +0.000 C 
BRANCH   8   9
ATOM      9  N   UNL     1      44.360   4.286   8.981  0.00  0.00    +0.000 N 
ATOM     10  C   UNL     1      45.277   3.464   8.353  0.00  0.00    +0.000 A 
ATOM     11  C   UNL     1      45.499   2.139   8.725  0.00  0.00    +0.000 A 
ATOM     12  C   UNL     1      46.402   1.358   8.006  0.00  0.00    +0.000 A 
ATOM     13  C   UNL     1      47.048   1.909   6.911  0.00  0.00    +0.000 A 
ATOM     14  C   UNL     1      46.765   3.224   6.594  0.00  0.00    +0.000 A 
ATOM     15  N   UNL     1      45.911   4.006   7.295  0.00  0.00    +0.000 NA
ATOM     16  H   UNL     1      44.470   5.234   8.638  0.00  0.00    +0.000 HD
ENDBRANCH   8   9
ENDBRANCH   5   8
ENDBRANCH   1   2
BRANCH   1  17
ATOM     17  N   UNL     1      47.872   6.439  15.083  0.00  0.00    +0.000 N 
ATOM     18  C   UNL     1      48.997   6.247  15.845  0.00  0.00    +0.000 C 
ATOM     19  O   UNL     1      50.108   6.629  15.500  0.00  0.00    +0.000 OA
ATOM     20  H   UNL     1      47.060   5.870  15.304  0.00  0.00    +0.000 HD
BRANCH  18  21
ATOM     21  C   UNL     1      48.789   5.598  17.146  0.00  0.00    +0.000 A 
ATOM     22  C   UNL     1      48.982   4.234  17.281  0.00  0.00    +0.000 A 
ATOM     23  S   UNL     1      48.684   3.659  18.860  0.00  0.00    +0.000 S 
ATOM     24  C   UNL     1      48.239   5.211  19.400  0.00  0.00    +0.000 A 
ATOM     25  N   UNL     1      47.813   5.416  20.678  0.00  0.00    +0.000 NA
ATOM     26  C   UNL     1      47.474   6.637  20.937  0.00  0.00    +0.000 A 
ATOM     27  N   UNL     1      47.537   7.673  20.040  0.00  0.00    +0.000 N 
ATOM     28  C   UNL     1      48.015   7.523  18.762  0.00  0.00    +0.000 A 
ATOM     29  O   UNL     1      48.161   8.482  18.015  0.00  0.00    +0.000 OA
ATOM     30  C   UNL     1      48.363   6.160  18.404  0.00  0.00    +0.000 A 
ATOM     31  H   UNL     1      47.286   8.610  20.320  0.00  0.00    +0.000 HD
ENDBRANCH  18  21
ENDBRANCH   1  17
BRANCH   1  32
ATOM     32  C   UNL     1      47.619   8.491  13.658  0.00  0.00    +0.000 C 
BRANCH  32  33
ATOM     33  N   UNL     1      47.350   9.115  14.962  0.00  0.00    +0.000 NA
ATOM     34  H   UNL     1      48.061   9.826  15.136  0.00  0.00    +0.000 HD
ATOM     35  H   UNL     1      47.447   8.425  15.706  0.00  0.00    +0.000 HD
ENDBRANCH  32  33
ENDBRANCH   1  32
TORSDOF 7
ENDMDL
MODEL 3
REMARK VINA RESULT:    -7.851      2.386      4.423
REMARK INTER + INTRA:         -11.840
REMARK INTER:                 -10.600
REMARK INTRA:                  -1.240
REMARK UNBOUND:                -1.006
REMARK  Name = 
REMARK  7 active torsions:
REMARK  status: ('A' for Active; 'I' for Inactive)
REMARK    1  A    between atoms: N_1  and  C_2
REMARK    2  A    between atoms: C_2  and  C_3
REMARK    3  A    between atoms: C_3  and  N_4
REMARK    4  A    between atoms: C_3  and  C_17
REMARK    5  A    between atoms: C_5  and  C_7
REMARK    6  A    between atoms: C_20  and  C_21
REMARK    7  A    between atoms: C_21  and  N_22
REMARK                            x       y       z     vdW  Elec       q    Type
REMARK                         _______ _______ _______ _____ _____    ______ ____
ROOT
ATOM      1  C   UNL     1      47.136   5.124  15.030  0.00  0.00    +0.000 C 
ENDROOT
BRANCH   1   2
ATOM      2  C   UNL     1      46.251   4.794  13.838  0.00  0.00    +0.000 A 
ATOM      3  C   UNL     1      46.189   3.511  13.279  0.00  0.00    +0.000 A 
ATOM      4  C   UNL     1      45.363   3.260  12.184  0.00  0.00    +0.000 A 
ATOM      5  C   UNL     1      44.596   4.301  11.668  0.00  0.00    +0.000 A 
ATOM      6  N   UNL     1      44.646   5.555  12.187  0.00  0.00    +0.000 NA
ATOM      7  C   UNL     1      45.470   5.774  13.240  0.00  0.00    +0.000 A 
BRANCH   5   8
ATOM      8  C   UNL     1      43.632   4.053  10.520  0.00  0.00    +0.000 C 
BRANCH   8   9
ATOM      9  N   UNL     1      44.185   4.458   9.239  0.00  0.00    +0.000 N 
ATOM     10  C   UNL     1      45.156   3.691   8.622  0.00  0.00    +0.000 A 
ATOM     11  C   UNL     1      45.228   2.305   8.743  0.00  0.00    +0.000 A 
ATOM     12  C   UNL     1      46.206   1.597   8.045  0.00  0.00    +0.000 A 
ATOM     13  C   UNL     1      47.076   2.287   7.217  0.00  0.00    +0.000 A 
ATOM     14  C   UNL     1      46.933   3.659   7.137  0.00  0.00    +0.000 A 
ATOM     15  N   UNL     1      46.008   4.367   7.827  0.00  0.00    +0.000 NA
ATOM     16  H   UNL     1      44.411   5.440   9.125  0.00  0.00    +0.000 HD
ENDBRANCH   8   9
ENDBRANCH   5   8
ENDBRANCH   1   2
BRANCH   1  17
ATOM     17  N   UNL     1      48.296   5.864  14.545  0.00  0.00    +0.000 N 
ATOM     18  C   UNL     1      48.889   6.879  15.255  0.00  0.00    +0.000 C 
ATOM     19  O   UNL     1      48.584   7.150  16.409  0.00  0.00    +0.000 OA
ATOM     20  H   UNL     1      48.409   5.878  13.535  0.00  0.00    +0.000 HD
BRANCH  18  21
ATOM     21  C   UNL     1      49.967   7.600  14.566  0.00  0.00    +0.000 A 
ATOM     22  C   UNL     1      51.244   7.613  15.099  0.00  0.00    +0.000 A 
ATOM     23  S   UNL     1      52.360   8.507  14.168  0.00  0.00    +0.000 S 
ATOM     24  C   UNL     1      51.157   8.946  13.046  0.00  0.00    +0.000 A 
ATOM     25  N   UNL     1      51.437   9.770  11.998  0.00  0.00    +0.000 NA
ATOM     26  C   UNL     1      50.419  10.045  11.251  0.00  0.00    +0.000 A 
ATOM     27  N   UNL     1      49.151   9.560  11.446  0.00  0.00    +0.000 N 
ATOM     28  C   UNL     1      48.837   8.682  12.453  0.00  0.00    +0.000 A 
ATOM     29  O   UNL     1      47.723   8.181  12.543  0.00  0.00    +0.000 OA
ATOM     30  C   UNL     1      49.934   8.379  13.353  0.00  0.00    +0.000 A 
ATOM     31  H   UNL     1      48.408   9.792  10.802  0.00  0.00    +0.000 HD
ENDBRANCH  18  21
ENDBRANCH   1  17
BRANCH   1  32
ATOM     32  C   UNL     1      47.535   3.839  15.820  0.00  0.00    +0.000 C 
BRANCH  32  33
ATOM     33  N   UNL     1      46.745   3.602  17.037  0.00  0.00    +0.000 NA
ATOM     34  H   UNL     1      47.116   2.779  17.512  0.00  0.00    +0.000 HD
ATOM     35  H   UNL     1      45.781   3.378  16.790  0.00  0.00    +0.000 HD
ENDBRANCH  32  33
ENDBRANCH   1  32
TORSDOF 7
ENDMDL
MODEL 4
REMARK VINA RESULT:    -7.430      1.602      2.462
REMARK INTER + INTRA:         -11.260
REMARK INTER:                 -10.646
REMARK INTRA:                  -0.614
REMARK UNBOUND:                -1.006
REMARK  Name = 
REMARK  7 active torsions:
REMARK  status: ('A' for Active; 'I' for Inactive)
REMARK    1  A    between atoms: N_1  and  C_2
REMARK    2  A    between atoms: C_2  and  C_3
REMARK    3  A    between atoms: C_3  and  N_4
REMARK    4  A    between atoms: C_3  and  C_17
REMARK    5  A    between atoms: C_5  and  C_7
REMARK    6  A    between atoms: C_20  and  C_21
REMARK    7  A    between atoms: C_21  and  N_22
REMARK                            x       y       z     vdW  Elec       q    Type
REMARK                         _______ _______ _______ _____ _____    ______ ____
ROOT
ATOM      1  C   UNL     1      46.421   7.785  12.760  0.00  0.00    +0.000 C 
ENDROOT
BRANCH   1   2
ATOM      2  C   UNL     1      45.825   6.570  12.066  0.00  0.00    +0.000 A 
ATOM      3  C   UNL     1      45.004   5.651  12.732  0.00  0.00    +0.000 A 
ATOM      4  C   UNL     1      44.485   4.550  12.052  0.00  0.00    +0.000 A 
ATOM      5  C   UNL     1      44.787   4.390  10.702  0.00  0.00    +0.000 A 
ATOM      6  N   UNL     1      45.589   5.263  10.038  0.00  0.00    +0.000 NA
ATOM      7  C   UNL     1      46.093   6.313  10.727  0.00  0.00    +0.000 A 
BRANCH   5   8
ATOM      8  C   UNL     1      44.186   3.242   9.908  0.00  0.00    +0.000 C 
BRANCH   8   9
ATOM      9  N   UNL     1      45.130   2.156   9.709  0.00  0.00    +0.000 N 
ATOM     10  C   UNL     1      45.845   2.058   8.530  0.00  0.00    +0.000 A 
ATOM     11  C   UNL     1      46.243   3.165   7.782  0.00  0.00    +0.000 A 
ATOM     12  C   UNL     1      47.010   2.985   6.632  0.00  0.00    +0.000 A 
ATOM     13  C   UNL     1      47.387   1.703   6.265  0.00  0.00    +0.000 A 
ATOM     14  C   UNL     1      46.967   0.658   7.065  0.00  0.00    +0.000 A 
ATOM     15  N   UNL     1      46.201   0.809   8.171  0.00  0.00    +0.000 NA
ATOM     16  H   UNL     1      44.835   1.230  10.000  0.00  0.00    +0.000 HD
ENDBRANCH   8   9
ENDBRANCH   5   8
ENDBRANCH   1   2
BRANCH   1  17
ATOM     17  N   UNL     1      46.967   7.356  14.043  0.00  0.00    +0.000 N 
ATOM     18  C   UNL     1      48.125   6.628  14.159  0.00  0.00    +0.000 C 
ATOM     19  O   UNL     1      48.867   6.401  13.212  0.00  0.00    +0.000 OA
ATOM     20  H   UNL     1      46.289   7.271  14.794  0.00  0.00    +0.000 HD
BRANCH  18  21
ATOM     21  C   UNL     1      48.464   6.173  15.513  0.00  0.00    +0.000 A 
ATOM     22  C   UNL     1      47.927   4.997  16.007  0.00  0.00    +0.000 A 
ATOM     23  S   UNL     1      48.427   4.636  17.598  0.00  0.00    +0.000 S 
ATOM     24  C   UNL     1      49.339   6.070  17.695  0.00  0.00    +0.000 A 
ATOM     25  N   UNL     1      49.998   6.411  18.838  0.00  0.00    +0.000 NA
ATOM     26  C   UNL     1      50.618   7.543  18.779  0.00  0.00    +0.000 A 
ATOM     27  N   UNL     1      50.654   8.358  17.676  0.00  0.00    +0.000 N 
ATOM     28  C   UNL     1      50.055   8.027  16.486  0.00  0.00    +0.000 A 
ATOM     29  O   UNL     1      50.190   8.720  15.486  0.00  0.00    +0.000 OA
ATOM     30  C   UNL     1      49.301   6.788  16.514  0.00  0.00    +0.000 A 
ATOM     31  H   UNL     1      51.187   9.216  17.689  0.00  0.00    +0.000 HD
ENDBRANCH  18  21
ENDBRANCH   1  17
BRANCH   1  32
ATOM     32  C   UNL     1      45.371   8.931  12.910  0.00  0.00    +0.000 C 
BRANCH  32  33
ATOM     33  N   UNL     1      45.329   9.871  11.781  0.00  0.00    +0.000 NA
ATOM     34  H   UNL     1      45.645  10.785  12.106  0.00  0.00    +0.000 HD
ATOM     35  H   UNL     1      44.368   9.996  11.466  0.00  0.00    +0.000 HD
ENDBRANCH  32  33
ENDBRANCH   1  32
TORSDOF 7
ENDMDL
MODEL 5
REMARK VINA RESULT:    -7.418      2.999      4.475
REMARK INTER + INTRA:         -11.243
REMARK INTER:                 -10.197
REMARK INTRA:                  -1.046
REMARK UNBOUND:                -1.006
REMARK  Name = 
REMARK  7 active torsions:
REMARK  status: ('A' for Active; 'I' for Inactive)
REMARK    1  A    between atoms: N_1  and  C_2
REMARK    2  A    between atoms: C_2  and  C_3
REMARK    3  A    between atoms: C_3  and  N_4
REMARK    4  A    between atoms: C_3  and  C_17
REMARK    5  A    between atoms: C_5  and  C_7
REMARK    6  A    between atoms: C_20  and  C_21
REMARK    7  A    between atoms: C_21  and  N_22
REMARK                            x       y       z     vdW  Elec       q    Type
REMARK                         _______ _______ _______ _____ _____    ______ ____
ROOT
ATOM      1  C   UNL     1      47.199   5.987  14.237  0.00  0.00    +0.000 C 
ENDROOT
BRANCH   1   2
ATOM      2  C   UNL     1      46.313   5.566  13.075  0.00  0.00    +0.000 A 
ATOM      3  C   UNL     1      46.407   6.154  11.807  0.00  0.00    +0.000 A 
ATOM      4  C   UNL     1      45.569   5.734  10.774  0.00  0.00    +0.000 A 
ATOM      5  C   UNL     1      44.651   4.718  11.024  0.00  0.00    +0.000 A 
ATOM      6  N   UNL     1      44.535   4.140  12.248  0.00  0.00    +0.000 NA
ATOM      7  C   UNL     1      45.350   4.579  13.237  0.00  0.00    +0.000 A 
BRANCH   5   8
ATOM      8  C   UNL     1      43.767   4.185   9.908  0.00  0.00    +0.000 C 
BRANCH   8   9
ATOM      9  N   UNL     1      44.372   4.355   8.598  0.00  0.00    +0.000 N 
ATOM     10  C   UNL     1      45.360   3.490   8.167  0.00  0.00    +0.000 A 
ATOM     11  C   UNL     1      45.417   2.147   8.536  0.00  0.00    +0.000 A 
ATOM     12  C   UNL     1      46.415   1.325   8.014  0.00  0.00    +0.000 A 
ATOM     13  C   UNL     1      47.322   1.856   7.112  0.00  0.00    +0.000 A 
ATOM     14  C   UNL     1      47.193   3.192   6.782  0.00  0.00    +0.000 A 
ATOM     15  N   UNL     1      46.247   4.012   7.297  0.00  0.00    +0.000 NA
ATOM     16  H   UNL     1      44.609   5.301   8.320  0.00  0.00    +0.000 HD
ENDBRANCH   8   9
ENDBRANCH   5   8
ENDBRANCH   1   2
BRANCH   1  17
ATOM     17  N   UNL     1      48.357   6.692  13.697  0.00  0.00    +0.000 N 
ATOM     18  C   UNL     1      48.442   8.061  13.641  0.00  0.00    +0.000 C 
ATOM     19  O   UNL     1      47.622   8.801  14.168  0.00  0.00    +0.000 OA
ATOM     20  H   UNL     1      48.908   6.165  13.025  0.00  0.00    +0.000 HD
BRANCH  18  21
ATOM     21  C   UNL     1      49.621   8.603  12.953  0.00  0.00    +0.000 A 
ATOM     22  C   UNL     1      49.470   9.341  11.792  0.00  0.00    +0.000 A 
ATOM     23  S   UNL     1      50.949   9.878  11.131  0.00  0.00    +0.000 S 
ATOM     24  C   UNL     1      51.842   9.098  12.352  0.00  0.00    +0.000 A 
ATOM     25  N   UNL     1      53.204   9.117  12.350  0.00  0.00    +0.000 NA
ATOM     26  C   UNL     1      53.747   8.452  13.317  0.00  0.00    +0.000 A 
ATOM     27  N   UNL     1      53.053   7.784  14.294  0.00  0.00    +0.000 N 
ATOM     28  C   UNL     1      51.683   7.787  14.367  0.00  0.00    +0.000 A 
ATOM     29  O   UNL     1      51.090   7.272  15.306  0.00  0.00    +0.000 OA
ATOM     30  C   UNL     1      51.021   8.478  13.276  0.00  0.00    +0.000 A 
ATOM     31  H   UNL     1      53.543   7.311  15.039  0.00  0.00    +0.000 HD
ENDBRANCH  18  21
ENDBRANCH   1  17
BRANCH   1  32
ATOM     32  C   UNL     1      47.602   4.767  15.122  0.00  0.00    +0.000 C 
BRANCH  32  33
ATOM     33  N   UNL     1      48.482   5.096  16.252  0.00  0.00    +0.000 NA
ATOM     34  H   UNL     1      48.309   6.063  16.530  0.00  0.00    +0.000 HD
ATOM     35  H   UNL     1      49.457   5.054  15.960  0.00  0.00    +0.000 HD
ENDBRANCH  32  33
ENDBRANCH   1  32
TORSDOF 7
ENDMDL
MODEL 6
REMARK VINA RESULT:    -7.356      3.190      7.763
REMARK INTER + INTRA:         -11.157
REMARK INTER:                 -10.023
REMARK INTRA:                  -1.134
REMARK UNBOUND:                -1.006
REMARK  Name = 
REMARK  7 active torsions:
REMARK  status: ('A' for Active; 'I' for Inactive)
REMARK    1  A    between atoms: N_1  and  C_2
REMARK    2  A    between atoms: C_2  and  C_3
REMARK    3  A    between atoms: C_3  and  N_4
REMARK    4  A    between atoms: C_3  and  C_17
REMARK    5  A    between atoms: C_5  and  C_7
REMARK    6  A    between atoms: C_20  and  C_21
REMARK    7  A    between atoms: C_21  and  N_22
REMARK                            x       y       z     vdW  Elec       q    Type
REMARK                         _______ _______ _______ _____ _____    ______ ____
ROOT
ATOM      1  C   UNL     1      48.168   7.913  12.491  0.00  0.00    +0.000 C 
ENDROOT
BRANCH   1   2
ATOM      2  C   UNL     1      48.466   7.392  13.888  0.00  0.00    +0.000 A 
ATOM      3  C   UNL     1      49.142   8.157  14.847  0.00  0.00    +0.000 A 
ATOM      4  C   UNL     1      49.395   7.632  16.114  0.00  0.00    +0.000 A 
ATOM      5  C   UNL     1      48.953   6.345  16.410  0.00  0.00    +0.000 A 
ATOM      6  N   UNL     1      48.304   5.581  15.493  0.00  0.00    +0.000 NA
ATOM      7  C   UNL     1      48.087   6.110  14.265  0.00  0.00    +0.000 A 
BRANCH   5   8
ATOM      8  C   UNL     1      49.147   5.763  17.800  0.00  0.00    +0.000 C 
BRANCH   8   9
ATOM      9  N   UNL     1      49.100   4.311  17.800  0.00  0.00    +0.000 N 
ATOM     10  C   UNL     1      50.270   3.573  17.780  0.00  0.00    +0.000 A 
ATOM     11  C   UNL     1      51.455   4.001  18.374  0.00  0.00    +0.000 A 
ATOM     12  C   UNL     1      52.578   3.174  18.358  0.00  0.00    +0.000 A 
ATOM     13  C   UNL     1      52.485   1.923  17.771  0.00  0.00    +0.000 A 
ATOM     14  C   UNL     1      51.272   1.563  17.216  0.00  0.00    +0.000 A 
ATOM     15  N   UNL     1      50.179   2.361  17.199  0.00  0.00    +0.000 NA
ATOM     16  H   UNL     1      48.417   3.872  17.193  0.00  0.00    +0.000 HD
ENDBRANCH   8   9
ENDBRANCH   5   8
ENDBRANCH   1   2
BRANCH   1  17
ATOM     17  N   UNL     1      47.488   6.859  11.746  0.00  0.00    +0.000 N 
ATOM     18  C   UNL     1      46.154   6.906  11.427  0.00  0.00    +0.000 C 
ATOM     19  O   UNL     1      45.459   7.897  11.614  0.00  0.00    +0.000 OA
ATOM     20  H   UNL     1      47.916   5.940  11.810  0.00  0.00    +0.000 HD
BRANCH  18  21
ATOM     21  C   UNL     1      45.604   5.706  10.784  0.00  0.00    +0.000 A 
ATOM     22  C   UNL     1      45.766   5.510   9.423  0.00  0.00    +0.000 A 
ATOM     23  S   UNL     1      45.053   4.069   8.854  0.00  0.00    +0.000 S 
ATOM     24  C   UNL     1      44.462   3.684  10.403  0.00  0.00    +0.000 A 
ATOM     25  N   UNL     1      43.700   2.574  10.611  0.00  0.00    +0.000 NA
ATOM     26  C   UNL     1      43.291   2.429  11.829  0.00  0.00    +0.000 A 
ATOM     27  N   UNL     1      43.587   3.284  12.861  0.00  0.00    +0.000 N 
ATOM     28  C   UNL     1      44.398   4.381  12.709  0.00  0.00    +0.000 A 
ATOM     29  O   UNL     1      44.733   5.068  13.665  0.00  0.00    +0.000 OA
ATOM     30  C   UNL     1      44.844   4.618  11.348  0.00  0.00    +0.000 A 
ATOM     31  H   UNL     1      43.260   3.092  13.796  0.00  0.00    +0.000 HD
ENDBRANCH  18  21
ENDBRANCH   1  17
BRANCH   1  32
ATOM     32  C   UNL     1      49.463   8.410  11.776  0.00  0.00    +0.000 C 
BRANCH  32  33
ATOM     33  N   UNL     1      50.497   7.380  11.603  0.00  0.00    +0.000 NA
ATOM     34  H   UNL     1      50.855   7.434  10.649  0.00  0.00    +0.000 HD
ATOM     35  H   UNL     1      50.087   6.453  11.702  0.00  0.00    +0.000 HD
ENDBRANCH  32  33
ENDBRANCH   1  32
TORSDOF 7
ENDMDL
MODEL 7
REMARK VINA RESULT:    -6.975      1.857      2.552
REMARK INTER + INTRA:         -10.632
REMARK INTER:                  -9.501
REMARK INTRA:                  -1.130
REMARK UNBOUND:                -1.006
REMARK  Name = 
REMARK  7 active torsions:
REMARK  status: ('A' for Active; 'I' for Inactive)
REMARK    1  A    between atoms: N_1  and  C_2
REMARK    2  A    between atoms: C_2  and  C_3
REMARK    3  A    between atoms: C_3  and  N_4
REMARK    4  A    between atoms: C_3  and  C_17
REMARK    5  A    between atoms: C_5  and  C_7
REMARK    6  A    between atoms: C_20  and  C_21
REMARK    7  A    between atoms: C_21  and  N_22
REMARK                            x       y       z     vdW  Elec       q    Type
REMARK                         _______ _______ _______ _____ _____    ______ ____
ROOT
ATOM      1  C   UNL     1      49.416   7.425  13.777  0.00  0.00    +0.000 C 
ENDROOT
BRANCH   1   2
ATOM      2  C   UNL     1      48.171   6.841  13.127  0.00  0.00    +0.000 A 
ATOM      3  C   UNL     1      47.742   7.221  11.849  0.00  0.00    +0.000 A 
ATOM      4  C   UNL     1      46.591   6.658  11.298  0.00  0.00    +0.000 A 
ATOM      5  C   UNL     1      45.889   5.708  12.033  0.00  0.00    +0.000 A 
ATOM      6  N   UNL     1      46.281   5.331  13.278  0.00  0.00    +0.000 NA
ATOM      7  C   UNL     1      47.392   5.906  13.795  0.00  0.00    +0.000 A 
BRANCH   5   8
ATOM      8  C   UNL     1      44.670   5.021  11.441  0.00  0.00    +0.000 C 
BRANCH   8   9
ATOM      9  N   UNL     1      44.626   5.128   9.993  0.00  0.00    +0.000 N 
ATOM     10  C   UNL     1      45.158   4.126   9.201  0.00  0.00    +0.000 A 
ATOM     11  C   UNL     1      45.164   2.782   9.569  0.00  0.00    +0.000 A 
ATOM     12  C   UNL     1      45.669   1.825   8.690  0.00  0.00    +0.000 A 
ATOM     13  C   UNL     1      46.134   2.227   7.449  0.00  0.00    +0.000 A 
ATOM     14  C   UNL     1      46.081   3.575   7.150  0.00  0.00    +0.000 A 
ATOM     15  N   UNL     1      45.618   4.522   7.998  0.00  0.00    +0.000 NA
ATOM     16  H   UNL     1      44.856   6.030   9.591  0.00  0.00    +0.000 HD
ENDBRANCH   8   9
ENDBRANCH   5   8
ENDBRANCH   1   2
BRANCH   1  17
ATOM     17  N   UNL     1      49.274   7.306  15.224  0.00  0.00    +0.000 N 
ATOM     18  C   UNL     1      50.328   7.042  16.062  0.00  0.00    +0.000 C 
ATOM     19  O   UNL     1      51.492   7.027  15.684  0.00  0.00    +0.000 OA
ATOM     20  H   UNL     1      48.348   7.039  15.547  0.00  0.00    +0.000 HD
BRANCH  18  21
ATOM     21  C   UNL     1      49.988   6.832  17.476  0.00  0.00    +0.000 A 
ATOM     22  C   UNL     1      50.234   7.827  18.405  0.00  0.00    +0.000 A 
ATOM     23  S   UNL     1      49.784   7.400  19.995  0.00  0.00    +0.000 S 
ATOM     24  C   UNL     1      49.290   5.848  19.496  0.00  0.00    +0.000 A 
ATOM     25  N   UNL     1      48.836   4.931  20.395  0.00  0.00    +0.000 NA
ATOM     26  C   UNL     1      48.532   3.785  19.879  0.00  0.00    +0.000 A 
ATOM     27  N   UNL     1      48.625   3.479  18.545  0.00  0.00    +0.000 N 
ATOM     28  C   UNL     1      49.021   4.390  17.598  0.00  0.00    +0.000 A 
ATOM     29  O   UNL     1      48.995   4.125  16.403  0.00  0.00    +0.000 OA
ATOM     30  C   UNL     1      49.423   5.678  18.131  0.00  0.00    +0.000 A 
ATOM     31  H   UNL     1      48.339   2.572  18.206  0.00  0.00    +0.000 HD
ENDBRANCH  18  21
ENDBRANCH   1  17
BRANCH   1  32
ATOM     32  C   UNL     1      49.664   8.896  13.320  0.00  0.00    +0.000 C 
BRANCH  32  33
ATOM     33  N   UNL     1      49.247   9.916  14.292  0.00  0.00    +0.000 NA
ATOM     34  H   UNL     1      49.709  10.796  14.061  0.00  0.00    +0.000 HD
ATOM     35  H   UNL     1      49.568   9.662  15.226  0.00  0.00    +0.000 HD
ENDBRANCH  32  33
ENDBRANCH   1  32
TORSDOF 7
ENDMDL
MODEL 8
REMARK VINA RESULT:    -6.915      3.027      8.096
REMARK INTER + INTRA:         -10.550
REMARK INTER:                  -9.455
REMARK INTRA:                  -1.095
REMARK UNBOUND:                -1.006
REMARK  Name = 
REMARK  7 active torsions:
REMARK  status: ('A' for Active; 'I' for Inactive)
REMARK    1  A    between atoms: N_1  and  C_2
REMARK    2  A    between atoms: C_2  and  C_3
REMARK    3  A    between atoms: C_3  and  N_4
REMARK    4  A    between atoms: C_3  and  C_17
REMARK    5  A    between atoms: C_5  and  C_7
REMARK    6  A    between atoms: C_20  and  C_21
REMARK    7  A    between atoms: C_21  and  N_22
REMARK                            x       y       z     vdW  Elec       q    Type
REMARK                         _______ _______ _______ _____ _____    ______ ____
ROOT
ATOM      1  C   UNL     1      47.081   7.722  12.685  0.00  0.00    +0.000 C 
ENDROOT
BRANCH   1   2
ATOM      2  C   UNL     1      47.830   7.344  13.953  0.00  0.00    +0.000 A 
ATOM      3  C   UNL     1      48.404   8.300  14.801  0.00  0.00    +0.000 A 
ATOM      4  C   UNL     1      49.084   7.901  15.951  0.00  0.00    +0.000 A 
ATOM      5  C   UNL     1      49.171   6.543  16.245  0.00  0.00    +0.000 A 
ATOM      6  N   UNL     1      48.630   5.597  15.433  0.00  0.00    +0.000 NA
ATOM      7  C   UNL     1      47.990   6.012  14.314  0.00  0.00    +0.000 A 
BRANCH   5   8
ATOM      8  C   UNL     1      49.843   6.072  17.524  0.00  0.00    +0.000 C 
BRANCH   8   9
ATOM      9  N   UNL     1      49.580   4.670  17.800  0.00  0.00    +0.000 N 
ATOM     10  C   UNL     1      50.599   3.739  17.719  0.00  0.00    +0.000 A 
ATOM     11  C   UNL     1      51.929   4.030  18.015  0.00  0.00    +0.000 A 
ATOM     12  C   UNL     1      52.889   3.021  17.963  0.00  0.00    +0.000 A 
ATOM     13  C   UNL     1      52.497   1.732  17.641  0.00  0.00    +0.000 A 
ATOM     14  C   UNL     1      51.158   1.517  17.374  0.00  0.00    +0.000 A 
ATOM     15  N   UNL     1      50.215   2.488  17.395  0.00  0.00    +0.000 NA
ATOM     16  H   UNL     1      48.733   4.275  17.408  0.00  0.00    +0.000 HD
ENDBRANCH   8   9
ENDBRANCH   5   8
ENDBRANCH   1   2
BRANCH   1  17
ATOM     17  N   UNL     1      46.462   6.518  12.144  0.00  0.00    +0.000 N 
ATOM     18  C   UNL     1      45.123   6.428  11.853  0.00  0.00    +0.000 C 
ATOM     19  O   UNL     1      44.368   7.391  11.888  0.00  0.00    +0.000 OA
ATOM     20  H   UNL     1      46.950   5.651  12.351  0.00  0.00    +0.000 HD
BRANCH  18  21
ATOM     21  C   UNL     1      44.644   5.105  11.434  0.00  0.00    +0.000 A 
ATOM     22  C   UNL     1      43.818   4.369  12.265  0.00  0.00    +0.000 A 
ATOM     23  S   UNL     1      43.372   2.856  11.616  0.00  0.00    +0.000 S 
ATOM     24  C   UNL     1      44.312   3.117  10.220  0.00  0.00    +0.000 A 
ATOM     25  N   UNL     1      44.415   2.163   9.252  0.00  0.00    +0.000 NA
ATOM     26  C   UNL     1      45.191   2.485   8.269  0.00  0.00    +0.000 A 
ATOM     27  N   UNL     1      45.859   3.678   8.158  0.00  0.00    +0.000 N 
ATOM     28  C   UNL     1      45.737   4.688   9.079  0.00  0.00    +0.000 A 
ATOM     29  O   UNL     1      46.259   5.781   8.904  0.00  0.00    +0.000 OA
ATOM     30  C   UNL     1      44.917   4.359  10.230  0.00  0.00    +0.000 A 
ATOM     31  H   UNL     1      46.424   3.875   7.345  0.00  0.00    +0.000 HD
ENDBRANCH  18  21
ENDBRANCH   1  17
BRANCH   1  32
ATOM     32  C   UNL     1      48.018   8.428  11.655  0.00  0.00    +0.000 C 
BRANCH  32  33
ATOM     33  N   UNL     1      49.247   7.686  11.341  0.00  0.00    +0.000 NA
ATOM     34  H   UNL     1      49.923   7.842  12.089  0.00  0.00    +0.000 HD
ATOM     35  H   UNL     1      49.671   8.056  10.491  0.00  0.00    +0.000 HD
ENDBRANCH  32  33
ENDBRANCH   1  32
TORSDOF 7
ENDMDL
MODEL 9
REMARK VINA RESULT:    -6.628      4.332      8.936
REMARK INTER + INTRA:         -10.152
REMARK INTER:                  -9.079
REMARK INTRA:                  -1.074
REMARK UNBOUND:                -1.006
REMARK  Name = 
REMARK  7 active torsions:
REMARK  status: ('A' for Active; 'I' for Inactive)
REMARK    1  A    between atoms: N_1  and  C_2
REMARK    2  A    between atoms: C_2  and  C_3
REMARK    3  A    between atoms: C_3  and  N_4
REMARK    4  A    between atoms: C_3  and  C_17
REMARK    5  A    between atoms: C_5  and  C_7
REMARK    6  A    between atoms: C_20  and  C_21
REMARK    7  A    between atoms: C_21  and  N_22
REMARK                            x       y       z     vdW  Elec       q    Type
REMARK                         _______ _______ _______ _____ _____    ______ ____
ROOT
ATOM      1  C   UNL     1      47.577   4.403  17.470  0.00  0.00    +0.000 C 
ENDROOT
BRANCH   1   2
ATOM      2  C   UNL     1      49.027   3.955  17.569  0.00  0.00    +0.000 A 
ATOM      3  C   UNL     1      49.435   2.651  17.259  0.00  0.00    +0.000 A 
ATOM      4  C   UNL     1      50.777   2.290  17.369  0.00  0.00    +0.000 A 
ATOM      5  C   UNL     1      51.700   3.247  17.780  0.00  0.00    +0.000 A 
ATOM      6  N   UNL     1      51.327   4.515  18.095  0.00  0.00    +0.000 NA
ATOM      7  C   UNL     1      50.015   4.834  17.995  0.00  0.00    +0.000 A 
BRANCH   5   8
ATOM      8  C   UNL     1      53.181   2.913  17.846  0.00  0.00    +0.000 C 
BRANCH   8   9
ATOM      9  N   UNL     1      53.449   1.768  18.700  0.00  0.00    +0.000 N 
ATOM     10  C   UNL     1      53.990   0.612  18.169  0.00  0.00    +0.000 A 
ATOM     11  C   UNL     1      54.870   0.604  17.089  0.00  0.00    +0.000 A 
ATOM     12  C   UNL     1      55.415  -0.601  16.647  0.00  0.00    +0.000 A 
ATOM     13  C   UNL     1      55.091  -1.773  17.311  0.00  0.00    +0.000 A 
ATOM     14  C   UNL     1      54.224  -1.683  18.383  0.00  0.00    +0.000 A 
ATOM     15  N   UNL     1      53.664  -0.527  18.811  0.00  0.00    +0.000 NA
ATOM     16  H   UNL     1      52.737   1.524  19.380  0.00  0.00    +0.000 HD
ENDBRANCH   8   9
ENDBRANCH   5   8
ENDBRANCH   1   2
BRANCH   1  17
ATOM     17  N   UNL     1      47.412   5.145  16.225  0.00  0.00    +0.000 N 
ATOM     18  C   UNL     1      47.295   4.538  15.000  0.00  0.00    +0.000 C 
ATOM     19  O   UNL     1      47.175   3.327  14.866  0.00  0.00    +0.000 OA
ATOM     20  H   UNL     1      47.770   6.095  16.239  0.00  0.00    +0.000 HD
BRANCH  18  21
ATOM     21  C   UNL     1      47.262   5.436  13.838  0.00  0.00    +0.000 A 
ATOM     22  C   UNL     1      46.259   5.312  12.893  0.00  0.00    +0.000 A 
ATOM     23  S   UNL     1      46.389   6.433  11.613  0.00  0.00    +0.000 S 
ATOM     24  C   UNL     1      47.821   7.088  12.259  0.00  0.00    +0.000 A 
ATOM     25  N   UNL     1      48.499   8.077  11.611  0.00  0.00    +0.000 NA
ATOM     26  C   UNL     1      49.587   8.451  12.200  0.00  0.00    +0.000 A 
ATOM     27  N   UNL     1      50.051   7.938  13.385  0.00  0.00    +0.000 N 
ATOM     28  C   UNL     1      49.371   6.983  14.100  0.00  0.00    +0.000 A 
ATOM     29  O   UNL     1      49.752   6.618  15.205  0.00  0.00    +0.000 OA
ATOM     30  C   UNL     1      48.167   6.492  13.457  0.00  0.00    +0.000 A 
ATOM     31  H   UNL     1      50.895   8.300  13.806  0.00  0.00    +0.000 HD
ENDBRANCH  18  21
ENDBRANCH   1  17
BRANCH   1  32
ATOM     32  C   UNL     1      47.146   5.230  18.721  0.00  0.00    +0.000 C 
BRANCH  32  33
ATOM     33  N   UNL     1      47.070   6.680  18.497  0.00  0.00    +0.000 NA
ATOM     34  H   UNL     1      46.398   7.078  19.153  0.00  0.00    +0.000 HD
ATOM     35  H   UNL     1      46.707   6.871  17.564  0.00  0.00    +0.000 HD
ENDBRANCH  32  33
ENDBRANCH   1  32
TORSDOF 7
ENDMDL
