MODEL 1
REMARK VINA RESULT:    -7.374      0.000      0.000
REMARK INTER + INTRA:         -12.206
REMARK INTER:                 -10.822
REMARK INTRA:                  -1.384
REMARK UNBOUND:                -1.384
REMARK  Name = 
REMARK  10 active torsions:
REMARK  status: ('A' for Active; 'I' for Inactive)
REMARK    1  A    between atoms: C_1  and  C_2
REMARK    2  A    between atoms: C_2  and  N_3
REMARK    3  A    between atoms: N_3  and  C_4
REMARK    4  A    between atoms: C_4  and  C_5
REMARK    5  A    between atoms: C_8  and  C_9
REMARK    6  A    between atoms: C_9  and  N_10
REMARK    7  A    between atoms: N_10  and  C_11
REMARK    8  A    between atoms: C_11  and  C_12
REMARK    9  A    between atoms: C_11  and  C_13
REMARK   10  A    between atoms: C_20  and  C_22
REMARK                            x       y       z     vdW  Elec       q    Type
REMARK                         _______ _______ _______ _____ _____    ______ ____
ROOT
ATOM      1  C   UNL     1      47.102   6.147  12.439  0.00  0.00    +0.000 C 
ENDROOT
BRANCH   1   2
ATOM      2  C   UNL     1      47.347   5.722  13.852  0.00  0.00    +0.000 A 
ATOM      3  C   UNL     1      46.763   4.557  14.361  0.00  0.00    +0.000 A 
ATOM      4  C   UNL     1      47.207   4.044  15.573  0.00  0.00    +0.000 A 
ATOM      5  C   UNL     1      48.224   4.712  16.249  0.00  0.00    +0.000 A 
ATOM      6  N   UNL     1      48.760   5.877  15.802  0.00  0.00    +0.000 NA
ATOM      7  C   UNL     1      48.303   6.360  14.628  0.00  0.00    +0.000 A 
BRANCH   5   8
ATOM      8  C   UNL     1      48.829   4.108  17.501  0.00  0.00    +0.000 C 
BRANCH   8   9
ATOM      9  N   UNL     1      50.018   3.301  17.190  0.00  0.00    +0.000 NA
ATOM     10  H   UNL     1      50.240   3.411  16.202  0.00  0.00    +0.000 HD
BRANCH   9  11
ATOM     11  C   UNL     1      51.201   3.649  18.005  0.00  0.00    +0.000 C 
ATOM     12  C   UNL     1      51.737   5.040  17.675  0.00  0.00    +0.000 C 
BRANCH  11  13
ATOM     13  C   UNL     1      52.278   2.559  17.912  0.00  0.00    +0.000 C 
ATOM     14  N   UNL     1      53.529   2.838  17.649  0.00  0.00    +0.000 NA
ATOM     15  C   UNL     1      54.205   1.520  17.540  0.00  0.00    +0.000 C 
ATOM     16  C   UNL     1      53.164   0.445  17.864  0.00  0.00    +0.000 C 
ATOM     17  N   UNL     1      51.974   1.230  18.097  0.00  0.00    +0.000 N 
ATOM     18  H   UNL     1      51.102   0.890  17.708  0.00  0.00    +0.000 HD
ENDBRANCH  11  13
ENDBRANCH   9  11
ENDBRANCH   8   9
ENDBRANCH   5   8
ENDBRANCH   1   2
BRANCH   1  19
ATOM     19  N   UNL     1      46.066   7.118  12.116  0.00  0.00    +0.000 N 
ATOM     20  C   UNL     1      44.791   6.729  11.657  0.00  0.00    +0.000 C 
ATOM     21  O   UNL     1      43.930   7.562  11.389  0.00  0.00    +0.000 OA
BRANCH  20  22
ATOM     22  C   UNL     1      44.465   5.295  11.537  0.00  0.00    +0.000 A 
ATOM     23  C   UNL     1      43.726   4.558  12.448  0.00  0.00    +0.000 A 
ATOM     24  S   UNL     1      43.458   2.938  11.979  0.00  0.00    +0.000 S 
ATOM     25  C   UNL     1      44.181   3.214  10.466  0.00  0.00    +0.000 A 
ATOM     26  N   UNL     1      44.169   2.254   9.501  0.00  0.00    +0.000 NA
ATOM     27  C   UNL     1      44.696   2.630   8.387  0.00  0.00    +0.000 A 
ATOM     28  N   UNL     1      45.279   3.848   8.161  0.00  0.00    +0.000 N 
ATOM     29  C   UNL     1      45.437   4.793   9.151  0.00  0.00    +0.000 A 
ATOM     30  O   UNL     1      46.181   5.760   8.996  0.00  0.00    +0.000 OA
ATOM     31  C   UNL     1      44.732   4.477  10.377  0.00  0.00    +0.000 A 
ATOM     32  H   UNL     1      45.748   4.045   7.288  0.00  0.00    +0.000 HD
ENDBRANCH  20  22
BRANCH  19  34
ATOM     33  C   UNL     1      47.716   8.976  12.083  0.00  0.00    +0.000 C 
ATOM     34  C   UNL     1      46.282   8.548  12.362  0.00  0.00    +0.000 C 
ENDBRANCH  19  34
ENDBRANCH   1  19
TORSDOF 8
ENDMDL
MODEL 2
REMARK VINA RESULT:    -7.319      2.389      3.628
REMARK INTER + INTRA:         -12.126
REMARK INTER:                 -10.430
REMARK INTRA:                  -1.697
REMARK UNBOUND:                -1.384
REMARK  Name = 
REMARK  10 active torsions:
REMARK  status: ('A' for Active; 'I' for Inactive)
REMARK    1  A    between atoms: C_1  and  C_2
REMARK    2  A    between atoms: C_2  and  N_3
REMARK    3  A    between atoms: N_3  and  C_4
REMARK    4  A    between atoms: C_4  and  C_5
REMARK    5  A    between atoms: C_8  and  C_9
REMARK    6  A    between atoms: C_9  and  N_10
REMARK    7  A    between atoms: N_10  and  C_11
REMARK    8  A    between atoms: C_11  and  C_12
REMARK    9  A    between atoms: C_11  and  C_13
REMARK   10  A    between atoms: C_20  and  C_22
REMARK                            x       y       z     vdW  Elec       q    Type
REMARK                         _______ _______ _______ _____ _____    ______ ____
ROOT
ATOM      1  C   UNL     1      47.146   6.145  12.485  0.00  0.00    +0.000 C 
ENDROOT
BRANCH   1   2
ATOM      2  C   UNL     1      47.328   5.712  13.905  0.00  0.00    +0.000 A 
ATOM      3  C   UNL     1      46.736   4.536  14.378  0.00  0.00    +0.000 A 
ATOM      4  C   UNL     1      47.127   4.019  15.606  0.00  0.00    +0.000 A 
ATOM      5  C   UNL     1      48.102   4.695  16.334  0.00  0.00    +0.000 A 
ATOM      6  N   UNL     1      48.644   5.870  15.922  0.00  0.00    +0.000 NA
ATOM      7  C   UNL     1      48.237   6.356  14.731  0.00  0.00    +0.000 A 
BRANCH   5   8
ATOM      8  C   UNL     1      48.653   4.090  17.610  0.00  0.00    +0.000 C 
BRANCH   8   9
ATOM      9  N   UNL     1      47.880   4.519  18.786  0.00  0.00    +0.000 NA
ATOM     10  H   UNL     1      47.522   3.693  19.262  0.00  0.00    +0.000 HD
BRANCH   9  11
ATOM     11  C   UNL     1      48.656   5.342  19.738  0.00  0.00    +0.000 C 
ATOM     12  C   UNL     1      48.675   4.736  21.139  0.00  0.00    +0.000 C 
BRANCH  11  13
ATOM     13  C   UNL     1      48.177   6.801  19.726  0.00  0.00    +0.000 C 
ATOM     14  N   UNL     1      48.213   7.552  20.797  0.00  0.00    +0.000 NA
ATOM     15  C   UNL     1      47.570   8.829  20.394  0.00  0.00    +0.000 C 
ATOM     16  C   UNL     1      47.234   8.722  18.904  0.00  0.00    +0.000 C 
ATOM     17  N   UNL     1      47.680   7.385  18.585  0.00  0.00    +0.000 N 
ATOM     18  H   UNL     1      47.085   6.821  17.990  0.00  0.00    +0.000 HD
ENDBRANCH  11  13
ENDBRANCH   9  11
ENDBRANCH   8   9
ENDBRANCH   5   8
ENDBRANCH   1   2
BRANCH   1  19
ATOM     19  N   UNL     1      46.141   7.135  12.124  0.00  0.00    +0.000 N 
ATOM     20  C   UNL     1      44.868   6.770  11.644  0.00  0.00    +0.000 C 
ATOM     21  O   UNL     1      44.033   7.619  11.344  0.00  0.00    +0.000 OA
BRANCH  20  22
ATOM     22  C   UNL     1      44.509   5.342  11.539  0.00  0.00    +0.000 A 
ATOM     23  C   UNL     1      43.746   4.634  12.452  0.00  0.00    +0.000 A 
ATOM     24  S   UNL     1      43.444   3.015  12.000  0.00  0.00    +0.000 S 
ATOM     25  C   UNL     1      44.186   3.255  10.490  0.00  0.00    +0.000 A 
ATOM     26  N   UNL     1      44.159   2.284   9.537  0.00  0.00    +0.000 NA
ATOM     27  C   UNL     1      44.704   2.634   8.423  0.00  0.00    +0.000 A 
ATOM     28  N   UNL     1      45.317   3.836   8.188  0.00  0.00    +0.000 N 
ATOM     29  C   UNL     1      45.489   4.789   9.168  0.00  0.00    +0.000 A 
ATOM     30  O   UNL     1      46.257   5.736   9.007  0.00  0.00    +0.000 OA
ATOM     31  C   UNL     1      44.766   4.504  10.391  0.00  0.00    +0.000 A 
ATOM     32  H   UNL     1      45.798   4.010   7.316  0.00  0.00    +0.000 HD
ENDBRANCH  20  22
BRANCH  19  34
ATOM     33  C   UNL     1      47.845   8.945  12.137  0.00  0.00    +0.000 C 
ATOM     34  C   UNL     1      46.387   8.563  12.354  0.00  0.00    +0.000 C 
ENDBRANCH  19  34
ENDBRANCH   1  19
TORSDOF 8
ENDMDL
MODEL 3
REMARK VINA RESULT:    -6.911      3.157      8.563
REMARK INTER + INTRA:         -11.527
REMARK INTER:                 -10.305
REMARK INTRA:                  -1.222
REMARK UNBOUND:                -1.384
REMARK  Name = 
REMARK  10 active torsions:
REMARK  status: ('A' for Active; 'I' for Inactive)
REMARK    1  A    between atoms: C_1  and  C_2
REMARK    2  A    between atoms: C_2  and  N_3
REMARK    3  A    between atoms: N_3  and  C_4
REMARK    4  A    between atoms: C_4  and  C_5
REMARK    5  A    between atoms: C_8  and  C_9
REMARK    6  A    between atoms: C_9  and  N_10
REMARK    7  A    between atoms: N_10  and  C_11
REMARK    8  A    between atoms: C_11  and  C_12
REMARK    9  A    between atoms: C_11  and  C_13
REMARK   10  A    between atoms: C_20  and  C_22
REMARK                            x       y       z     vdW  Elec       q    Type
REMARK                         _______ _______ _______ _____ _____    ______ ____
ROOT
ATOM      1  C   UNL     1      49.295   6.797  15.356  0.00  0.00    +0.000 C 
ENDROOT
BRANCH   1   2
ATOM      2  C   UNL     1      48.228   6.732  14.309  0.00  0.00    +0.000 A 
ATOM      3  C   UNL     1      48.085   7.755  13.366  0.00  0.00    +0.000 A 
ATOM      4  C   UNL     1      47.273   7.554  12.257  0.00  0.00    +0.000 A 
ATOM      5  C   UNL     1      46.620   6.332  12.120  0.00  0.00    +0.000 A 
ATOM      6  N   UNL     1      46.696   5.350  13.055  0.00  0.00    +0.000 NA
ATOM      7  C   UNL     1      47.482   5.575  14.129  0.00  0.00    +0.000 A 
BRANCH   5   8
ATOM      8  C   UNL     1      45.838   6.025  10.858  0.00  0.00    +0.000 C 
BRANCH   8   9
ATOM      9  N   UNL     1      44.408   6.325  11.025  0.00  0.00    +0.000 NA
ATOM     10  H   UNL     1      44.126   6.988  10.306  0.00  0.00    +0.000 HD
BRANCH   9  11
ATOM     11  C   UNL     1      43.541   5.129  10.965  0.00  0.00    +0.000 C 
ATOM     12  C   UNL     1      43.279   4.540  12.350  0.00  0.00    +0.000 C 
BRANCH  11  13
ATOM     13  C   UNL     1      44.089   4.096   9.971  0.00  0.00    +0.000 C 
ATOM     14  N   UNL     1      44.482   2.908  10.352  0.00  0.00    +0.000 NA
ATOM     15  C   UNL     1      45.036   2.274   9.127  0.00  0.00    +0.000 C 
ATOM     16  C   UNL     1      44.822   3.253   7.970  0.00  0.00    +0.000 C 
ATOM     17  N   UNL     1      44.198   4.377   8.629  0.00  0.00    +0.000 N 
ATOM     18  H   UNL     1      44.506   5.306   8.369  0.00  0.00    +0.000 HD
ENDBRANCH  11  13
ENDBRANCH   9  11
ENDBRANCH   8   9
ENDBRANCH   5   8
ENDBRANCH   1   2
BRANCH   1  19
ATOM     19  N   UNL     1      49.059   7.463  16.628  0.00  0.00    +0.000 N 
ATOM     20  C   UNL     1      48.675   6.754  17.785  0.00  0.00    +0.000 C 
ATOM     21  O   UNL     1      48.480   7.333  18.850  0.00  0.00    +0.000 OA
BRANCH  20  22
ATOM     22  C   UNL     1      48.546   5.285  17.732  0.00  0.00    +0.000 A 
ATOM     23  C   UNL     1      47.369   4.587  17.517  0.00  0.00    +0.000 A 
ATOM     24  S   UNL     1      47.569   2.894  17.433  0.00  0.00    +0.000 S 
ATOM     25  C   UNL     1      49.259   3.048  17.518  0.00  0.00    +0.000 A 
ATOM     26  N   UNL     1      50.068   1.964  17.366  0.00  0.00    +0.000 NA
ATOM     27  C   UNL     1      51.326   2.246  17.388  0.00  0.00    +0.000 A 
ATOM     28  N   UNL     1      51.851   3.493  17.601  0.00  0.00    +0.000 N 
ATOM     29  C   UNL     1      51.071   4.589  17.899  0.00  0.00    +0.000 A 
ATOM     30  O   UNL     1      51.569   5.626  18.333  0.00  0.00    +0.000 OA
ATOM     31  C   UNL     1      49.650   4.354  17.739  0.00  0.00    +0.000 A 
ATOM     32  H   UNL     1      52.848   3.627  17.689  0.00  0.00    +0.000 HD
ENDBRANCH  20  22
BRANCH  19  34
ATOM     33  C   UNL     1      48.085   9.746  16.509  0.00  0.00    +0.000 C 
ATOM     34  C   UNL     1      49.321   8.898  16.778  0.00  0.00    +0.000 C 
ENDBRANCH  19  34
ENDBRANCH   1  19
TORSDOF 8
ENDMDL
MODEL 4
REMARK VINA RESULT:    -6.834      4.073      8.589
REMARK INTER + INTRA:         -11.413
REMARK INTER:                 -10.167
REMARK INTRA:                  -1.246
REMARK UNBOUND:                -1.384
REMARK  Name = 
REMARK  10 active torsions:
REMARK  status: ('A' for Active; 'I' for Inactive)
REMARK    1  A    between atoms: C_1  and  C_2
REMARK    2  A    between atoms: C_2  and  N_3
REMARK    3  A    between atoms: N_3  and  C_4
REMARK    4  A    between atoms: C_4  and  C_5
REMARK    5  A    between atoms: C_8  and  C_9
REMARK    6  A    between atoms: C_9  and  N_10
REMARK    7  A    between atoms: N_10  and  C_11
REMARK    8  A    between atoms: C_11  and  C_12
REMARK    9  A    between atoms: C_11  and  C_13
REMARK   10  A    between atoms: C_20  and  C_22
REMARK                            x       y       z     vdW  Elec       q    Type
REMARK                         _______ _______ _______ _____ _____    ______ ____
ROOT
ATOM      1  C   UNL     1      47.355   7.885  13.995  0.00  0.00    +0.000 C 
ENDROOT
BRANCH   1   2
ATOM      2  C   UNL     1      46.274   7.188  13.231  0.00  0.00    +0.000 A 
ATOM      3  C   UNL     1      45.496   7.879  12.297  0.00  0.00    +0.000 A 
ATOM      4  C   UNL     1      44.688   7.168  11.420  0.00  0.00    +0.000 A 
ATOM      5  C   UNL     1      44.676   5.778  11.500  0.00  0.00    +0.000 A 
ATOM      6  N   UNL     1      45.376   5.091  12.440  0.00  0.00    +0.000 NA
ATOM      7  C   UNL     1      46.144   5.807  13.288  0.00  0.00    +0.000 A 
BRANCH   5   8
ATOM      8  C   UNL     1      43.916   4.964  10.472  0.00  0.00    +0.000 C 
BRANCH   8   9
ATOM      9  N   UNL     1      44.735   4.705   9.278  0.00  0.00    +0.000 NA
ATOM     10  H   UNL     1      45.707   4.916   9.495  0.00  0.00    +0.000 HD
BRANCH   9  11
ATOM     11  C   UNL     1      44.628   3.320   8.774  0.00  0.00    +0.000 C 
ATOM     12  C   UNL     1      44.321   2.325   9.891  0.00  0.00    +0.000 C 
BRANCH  11  13
ATOM     13  C   UNL     1      45.867   2.931   7.954  0.00  0.00    +0.000 C 
ATOM     14  N   UNL     1      46.458   3.773   7.147  0.00  0.00    +0.000 NA
ATOM     15  C   UNL     1      47.523   2.984   6.477  0.00  0.00    +0.000 C 
ATOM     16  C   UNL     1      47.502   1.580   7.087  0.00  0.00    +0.000 C 
ATOM     17  N   UNL     1      46.410   1.669   8.028  0.00  0.00    +0.000 N 
ATOM     18  H   UNL     1      45.770   0.886   8.082  0.00  0.00    +0.000 HD
ENDBRANCH  11  13
ENDBRANCH   9  11
ENDBRANCH   8   9
ENDBRANCH   5   8
ENDBRANCH   1   2
BRANCH   1  19
ATOM     19  N   UNL     1      48.760   7.609  13.729  0.00  0.00    +0.000 N 
ATOM     20  C   UNL     1      49.737   7.659  14.743  0.00  0.00    +0.000 C 
ATOM     21  O   UNL     1      50.919   7.424  14.501  0.00  0.00    +0.000 OA
BRANCH  20  22
ATOM     22  C   UNL     1      49.335   7.955  16.132  0.00  0.00    +0.000 A 
ATOM     23  C   UNL     1      49.406   9.195  16.744  0.00  0.00    +0.000 A 
ATOM     24  S   UNL     1      48.787   9.223  18.335  0.00  0.00    +0.000 S 
ATOM     25  C   UNL     1      48.255   7.614  18.200  0.00  0.00    +0.000 A 
ATOM     26  N   UNL     1      47.511   7.040  19.184  0.00  0.00    +0.000 NA
ATOM     27  C   UNL     1      47.125   5.841  18.912  0.00  0.00    +0.000 A 
ATOM     28  N   UNL     1      47.454   5.144  17.780  0.00  0.00    +0.000 N 
ATOM     29  C   UNL     1      48.319   5.636  16.827  0.00  0.00    +0.000 A 
ATOM     30  O   UNL     1      48.796   4.905  15.962  0.00  0.00    +0.000 OA
ATOM     31  C   UNL     1      48.660   7.033  17.015  0.00  0.00    +0.000 A 
ATOM     32  H   UNL     1      47.186   4.176  17.671  0.00  0.00    +0.000 HD
ENDBRANCH  20  22
BRANCH  19  34
ATOM     33  C   UNL     1      49.555   8.320  11.485  0.00  0.00    +0.000 C 
ATOM     34  C   UNL     1      49.193   7.160  12.402  0.00  0.00    +0.000 C 
ENDBRANCH  19  34
ENDBRANCH   1  19
TORSDOF 8
ENDMDL
MODEL 5
REMARK VINA RESULT:    -6.633      2.308      3.011
REMARK INTER + INTRA:         -11.119
REMARK INTER:                  -9.739
REMARK INTRA:                  -1.380
REMARK UNBOUND:                -1.384
REMARK  Name = 
REMARK  10 active torsions:
REMARK  status: ('A' for Active; 'I' for Inactive)
REMARK    1  A    between atoms: C_1  and  C_2
REMARK    2  A    between atoms: C_2  and  N_3
REMARK    3  A    between atoms: N_3  and  C_4
REMARK    4  A    between atoms: C_4  and  C_5
REMARK    5  A    between atoms: C_8  and  C_9
REMARK    6  A    between atoms: C_9  and  N_10
REMARK    7  A    between atoms: N_10  and  C_11
REMARK    8  A    between atoms: C_11  and  C_12
REMARK    9  A    between atoms: C_11  and  C_13
REMARK   10  A    between atoms: C_20  and  C_22
REMARK                            x       y       z     vdW  Elec       q    Type
REMARK                         _______ _______ _______ _____ _____    ______ ____
ROOT
ATOM      1  C   UNL     1      47.319   6.340  12.580  0.00  0.00    +0.000 C 
ENDROOT
BRANCH   1   2
ATOM      2  C   UNL     1      47.476   5.831  13.978  0.00  0.00    +0.000 A 
ATOM      3  C   UNL     1      46.829   4.662  14.393  0.00  0.00    +0.000 A 
ATOM      4  C   UNL     1      47.192   4.070  15.595  0.00  0.00    +0.000 A 
ATOM      5  C   UNL     1      48.195   4.663  16.356  0.00  0.00    +0.000 A 
ATOM      6  N   UNL     1      48.792   5.831  16.001  0.00  0.00    +0.000 NA
ATOM      7  C   UNL     1      48.412   6.392  14.835  0.00  0.00    +0.000 A 
BRANCH   5   8
ATOM      8  C   UNL     1      48.713   3.972  17.602  0.00  0.00    +0.000 C 
BRANCH   8   9
ATOM      9  N   UNL     1      47.791   4.146  18.736  0.00  0.00    +0.000 NA
ATOM     10  H   UNL     1      47.732   3.267  19.247  0.00  0.00    +0.000 HD
BRANCH   9  11
ATOM     11  C   UNL     1      48.185   5.231  19.659  0.00  0.00    +0.000 C 
ATOM     12  C   UNL     1      47.480   6.546  19.333  0.00  0.00    +0.000 C 
BRANCH  11  13
ATOM     13  C   UNL     1      49.712   5.375  19.727  0.00  0.00    +0.000 C 
ATOM     14  N   UNL     1      50.338   6.391  19.191  0.00  0.00    +0.000 NA
ATOM     15  C   UNL     1      51.782   6.097  19.378  0.00  0.00    +0.000 C 
ATOM     16  C   UNL     1      51.883   4.795  20.177  0.00  0.00    +0.000 C 
ATOM     17  N   UNL     1      50.495   4.433  20.352  0.00  0.00    +0.000 N 
ATOM     18  H   UNL     1      50.244   3.459  20.230  0.00  0.00    +0.000 HD
ENDBRANCH  11  13
ENDBRANCH   9  11
ENDBRANCH   8   9
ENDBRANCH   5   8
ENDBRANCH   1   2
BRANCH   1  19
ATOM     19  N   UNL     1      46.404   7.431  12.277  0.00  0.00    +0.000 N 
ATOM     20  C   UNL     1      45.329   7.279  11.378  0.00  0.00    +0.000 C 
ATOM     21  O   UNL     1      44.567   8.211  11.133  0.00  0.00    +0.000 OA
BRANCH  20  22
ATOM     22  C   UNL     1      45.083   5.967  10.749  0.00  0.00    +0.000 A 
ATOM     23  C   UNL     1      45.605   5.544   9.537  0.00  0.00    +0.000 A 
ATOM     24  S   UNL     1      45.193   3.939   9.125  0.00  0.00    +0.000 S 
ATOM     25  C   UNL     1      44.440   3.701  10.630  0.00  0.00    +0.000 A 
ATOM     26  N   UNL     1      43.975   2.475  10.992  0.00  0.00    +0.000 NA
ATOM     27  C   UNL     1      43.490   2.434  12.185  0.00  0.00    +0.000 A 
ATOM     28  N   UNL     1      43.376   3.508  13.028  0.00  0.00    +0.000 N 
ATOM     29  C   UNL     1      43.704   4.791  12.648  0.00  0.00    +0.000 A 
ATOM     30  O   UNL     1      43.358   5.762  13.318  0.00  0.00    +0.000 OA
ATOM     31  C   UNL     1      44.390   4.865  11.373  0.00  0.00    +0.000 A 
ATOM     32  H   UNL     1      42.908   3.420  13.918  0.00  0.00    +0.000 HD
ENDBRANCH  20  22
BRANCH  19  34
ATOM     33  C   UNL     1      47.629   9.587  12.447  0.00  0.00    +0.000 C 
ATOM     34  C   UNL     1      46.507   8.710  12.987  0.00  0.00    +0.000 C 
ENDBRANCH  19  34
ENDBRANCH   1  19
TORSDOF 8
ENDMDL
MODEL 6
REMARK VINA RESULT:    -6.244      3.798      8.661
REMARK INTER + INTRA:         -10.547
REMARK INTER:                  -9.087
REMARK INTRA:                  -1.460
REMARK UNBOUND:                -1.384
REMARK  Name = 
REMARK  10 active torsions:
REMARK  status: ('A' for Active; 'I' for Inactive)
REMARK    1  A    between atoms: C_1  and  C_2
REMARK    2  A    between atoms: C_2  and  N_3
REMARK    3  A    between atoms: N_3  and  C_4
REMARK    4  A    between atoms: C_4  and  C_5
REMARK    5  A    between atoms: C_8  and  C_9
REMARK    6  A    between atoms: C_9  and  N_10
REMARK    7  A    between atoms: N_10  and  C_11
REMARK    8  A    between atoms: C_11  and  C_12
REMARK    9  A    between atoms: C_11  and  C_13
REMARK   10  A    between atoms: C_20  and  C_22
REMARK                            x       y       z     vdW  Elec       q    Type
REMARK                         _______ _______ _______ _____ _____    ______ ____
ROOT
ATOM      1  C   UNL     1      49.851   7.956  17.918  0.00  0.00    +0.000 C 
ENDROOT
BRANCH   1   2
ATOM      2  C   UNL     1      49.118   7.856  16.618  0.00  0.00    +0.000 A 
ATOM      3  C   UNL     1      48.342   8.921  16.148  0.00  0.00    +0.000 A 
ATOM      4  C   UNL     1      47.891   8.911  14.835  0.00  0.00    +0.000 A 
ATOM      5  C   UNL     1      48.225   7.831  14.022  0.00  0.00    +0.000 A 
ATOM      6  N   UNL     1      48.923   6.758  14.477  0.00  0.00    +0.000 NA
ATOM      7  C   UNL     1      49.340   6.788  15.760  0.00  0.00    +0.000 A 
BRANCH   5   8
ATOM      8  C   UNL     1      47.869   7.849  12.548  0.00  0.00    +0.000 C 
BRANCH   8   9
ATOM      9  N   UNL     1      46.856   6.833  12.227  0.00  0.00    +0.000 NA
ATOM     10  H   UNL     1      46.643   6.304  13.071  0.00  0.00    +0.000 HD
BRANCH   9  11
ATOM     11  C   UNL     1      45.608   7.395  11.667  0.00  0.00    +0.000 C 
ATOM     12  C   UNL     1      45.413   8.859  12.056  0.00  0.00    +0.000 C 
BRANCH  11  13
ATOM     13  C   UNL     1      44.398   6.519  12.020  0.00  0.00    +0.000 C 
ATOM     14  N   UNL     1      44.430   5.650  12.997  0.00  0.00    +0.000 NA
ATOM     15  C   UNL     1      43.123   4.947  12.933  0.00  0.00    +0.000 C 
ATOM     16  C   UNL     1      42.306   5.605  11.818  0.00  0.00    +0.000 C 
ATOM     17  N   UNL     1      43.220   6.604  11.315  0.00  0.00    +0.000 N 
ATOM     18  H   UNL     1      43.282   6.722  10.311  0.00  0.00    +0.000 HD
ENDBRANCH  11  13
ENDBRANCH   9  11
ENDBRANCH   8   9
ENDBRANCH   5   8
ENDBRANCH   1   2
BRANCH   1  19
ATOM     19  N   UNL     1      49.219   7.560  19.169  0.00  0.00    +0.000 N 
ATOM     20  C   UNL     1      49.219   6.224  19.618  0.00  0.00    +0.000 C 
ATOM     21  O   UNL     1      48.680   5.909  20.676  0.00  0.00    +0.000 OA
BRANCH  20  22
ATOM     22  C   UNL     1      49.914   5.189  18.829  0.00  0.00    +0.000 A 
ATOM     23  C   UNL     1      51.262   4.881  18.914  0.00  0.00    +0.000 A 
ATOM     24  S   UNL     1      51.741   3.576  17.923  0.00  0.00    +0.000 S 
ATOM     25  C   UNL     1      50.131   3.274  17.470  0.00  0.00    +0.000 A 
ATOM     26  N   UNL     1      49.809   2.187  16.718  0.00  0.00    +0.000 NA
ATOM     27  C   UNL     1      48.545   2.054  16.510  0.00  0.00    +0.000 A 
ATOM     28  N   UNL     1      47.579   2.927  16.934  0.00  0.00    +0.000 N 
ATOM     29  C   UNL     1      47.875   4.110  17.576  0.00  0.00    +0.000 A 
ATOM     30  O   UNL     1      47.026   4.988  17.717  0.00  0.00    +0.000 OA
ATOM     31  C   UNL     1      49.267   4.233  17.962  0.00  0.00    +0.000 A 
ATOM     32  H   UNL     1      46.614   2.805  16.663  0.00  0.00    +0.000 HD
ENDBRANCH  20  22
BRANCH  19  34
ATOM     33  C   UNL     1      47.238   8.976  19.664  0.00  0.00    +0.000 C 
ATOM     34  C   UNL     1      48.648   8.569  20.067  0.00  0.00    +0.000 C 
ENDBRANCH  19  34
ENDBRANCH   1  19
TORSDOF 8
ENDMDL
MODEL 7
REMARK VINA RESULT:    -6.152      3.699      9.321
REMARK INTER + INTRA:         -10.413
REMARK INTER:                  -9.343
REMARK INTRA:                  -1.070
REMARK UNBOUND:                -1.384
REMARK  Name = 
REMARK  10 active torsions:
REMARK  status: ('A' for Active; 'I' for Inactive)
REMARK    1  A    between atoms: C_1  and  C_2
REMARK    2  A    between atoms: C_2  and  N_3
REMARK    3  A    between atoms: N_3  and  C_4
REMARK    4  A    between atoms: C_4  and  C_5
REMARK    5  A    between atoms: C_8  and  C_9
REMARK    6  A    between atoms: C_9  and  N_10
REMARK    7  A    between atoms: N_10  and  C_11
REMARK    8  A    between atoms: C_11  and  C_12
REMARK    9  A    between atoms: C_11  and  C_13
REMARK   10  A    between atoms: C_20  and  C_22
REMARK                            x       y       z     vdW  Elec       q    Type
REMARK                         _______ _______ _______ _____ _____    ______ ____
ROOT
ATOM      1  C   UNL     1      49.740   6.344  16.449  0.00  0.00    +0.000 C 
ENDROOT
BRANCH   1   2
ATOM      2  C   UNL     1      48.557   6.071  15.574  0.00  0.00    +0.000 A 
ATOM      3  C   UNL     1      48.319   6.839  14.429  0.00  0.00    +0.000 A 
ATOM      4  C   UNL     1      47.381   6.408  13.500  0.00  0.00    +0.000 A 
ATOM      5  C   UNL     1      46.701   5.217  13.740  0.00  0.00    +0.000 A 
ATOM      6  N   UNL     1      46.873   4.490  14.874  0.00  0.00    +0.000 NA
ATOM      7  C   UNL     1      47.781   4.937  15.766  0.00  0.00    +0.000 A 
BRANCH   5   8
ATOM      8  C   UNL     1      45.774   4.645  12.686  0.00  0.00    +0.000 C 
BRANCH   8   9
ATOM      9  N   UNL     1      45.201   5.705  11.842  0.00  0.00    +0.000 NA
ATOM     10  H   UNL     1      45.905   6.007  11.171  0.00  0.00    +0.000 HD
BRANCH   9  11
ATOM     11  C   UNL     1      43.976   5.294  11.123  0.00  0.00    +0.000 C 
ATOM     12  C   UNL     1      42.855   4.897  12.081  0.00  0.00    +0.000 C 
BRANCH  11  13
ATOM     13  C   UNL     1      44.283   4.209  10.081  0.00  0.00    +0.000 C 
ATOM     14  N   UNL     1      43.956   2.956  10.267  0.00  0.00    +0.000 NA
ATOM     15  C   UNL     1      44.519   2.232   9.098  0.00  0.00    +0.000 C 
ATOM     16  C   UNL     1      45.147   3.278   8.174  0.00  0.00    +0.000 C 
ATOM     17  N   UNL     1      44.924   4.506   8.901  0.00  0.00    +0.000 N 
ATOM     18  H   UNL     1      45.682   5.177   8.936  0.00  0.00    +0.000 HD
ENDBRANCH  11  13
ENDBRANCH   9  11
ENDBRANCH   8   9
ENDBRANCH   5   8
ENDBRANCH   1   2
BRANCH   1  19
ATOM     19  N   UNL     1      49.586   6.519  17.886  0.00  0.00    +0.000 N 
ATOM     20  C   UNL     1      50.484   5.948  18.809  0.00  0.00    +0.000 C 
ATOM     21  O   UNL     1      50.339   6.105  20.019  0.00  0.00    +0.000 OA
BRANCH  20  22
ATOM     22  C   UNL     1      51.647   5.182  18.320  0.00  0.00    +0.000 A 
ATOM     23  C   UNL     1      52.944   5.661  18.224  0.00  0.00    +0.000 A 
ATOM     24  S   UNL     1      54.077   4.499  17.693  0.00  0.00    +0.000 S 
ATOM     25  C   UNL     1      52.899   3.274  17.729  0.00  0.00    +0.000 A 
ATOM     26  N   UNL     1      53.236   1.974  17.506  0.00  0.00    +0.000 NA
ATOM     27  C   UNL     1      52.251   1.153  17.631  0.00  0.00    +0.000 A 
ATOM     28  N   UNL     1      50.958   1.507  17.905  0.00  0.00    +0.000 N 
ATOM     29  C   UNL     1      50.549   2.820  17.999  0.00  0.00    +0.000 A 
ATOM     30  O   UNL     1      49.357   3.118  17.990  0.00  0.00    +0.000 OA
ATOM     31  C   UNL     1      51.642   3.772  18.013  0.00  0.00    +0.000 A 
ATOM     32  H   UNL     1      50.220   0.817  17.906  0.00  0.00    +0.000 HD
ENDBRANCH  20  22
BRANCH  19  34
ATOM     33  C   UNL     1      47.398   6.616  19.059  0.00  0.00    +0.000 C 
ATOM     34  C   UNL     1      48.540   7.396  18.423  0.00  0.00    +0.000 C 
ENDBRANCH  19  34
ENDBRANCH   1  19
TORSDOF 8
ENDMDL
MODEL 8
REMARK VINA RESULT:    -5.990      3.855      9.010
REMARK INTER + INTRA:         -10.175
REMARK INTER:                  -8.855
REMARK INTRA:                  -1.320
REMARK UNBOUND:                -1.384
REMARK  Name = 
REMARK  10 active torsions:
REMARK  status: ('A' for Active; 'I' for Inactive)
REMARK    1  A    between atoms: C_1  and  C_2
REMARK    2  A    between atoms: C_2  and  N_3
REMARK    3  A    between atoms: N_3  and  C_4
REMARK    4  A    between atoms: C_4  and  C_5
REMARK    5  A    between atoms: C_8  and  C_9
REMARK    6  A    between atoms: C_9  and  N_10
REMARK    7  A    between atoms: N_10  and  C_11
REMARK    8  A    between atoms: C_11  and  C_12
REMARK    9  A    between atoms: C_11  and  C_13
REMARK   10  A    between atoms: C_20  and  C_22
REMARK                            x       y       z     vdW  Elec       q    Type
REMARK                         _______ _______ _______ _____ _____    ______ ____
ROOT
ATOM      1  C   UNL     1      47.285   5.160  15.909  0.00  0.00    +0.000 C 
ENDROOT
BRANCH   1   2
ATOM      2  C   UNL     1      46.893   5.082  14.468  0.00  0.00    +0.000 A 
ATOM      3  C   UNL     1      46.308   3.923  13.945  0.00  0.00    +0.000 A 
ATOM      4  C   UNL     1      45.718   3.963  12.688  0.00  0.00    +0.000 A 
ATOM      5  C   UNL     1      45.730   5.163  11.982  0.00  0.00    +0.000 A 
ATOM      6  N   UNL     1      46.347   6.281  12.446  0.00  0.00    +0.000 NA
ATOM      7  C   UNL     1      46.923   6.212  13.664  0.00  0.00    +0.000 A 
BRANCH   5   8
ATOM      8  C   UNL     1      44.977   5.281  10.672  0.00  0.00    +0.000 C 
BRANCH   8   9
ATOM      9  N   UNL     1      45.799   4.832   9.537  0.00  0.00    +0.000 NA
ATOM     10  H   UNL     1      46.683   4.475   9.894  0.00  0.00    +0.000 HD
BRANCH   9  11
ATOM     11  C   UNL     1      45.147   3.799   8.705  0.00  0.00    +0.000 C 
ATOM     12  C   UNL     1      44.203   2.917   9.519  0.00  0.00    +0.000 C 
BRANCH  11  13
ATOM     13  C   UNL     1      46.184   2.990   7.912  0.00  0.00    +0.000 C 
ATOM     14  N   UNL     1      46.289   1.691   8.031  0.00  0.00    +0.000 NA
ATOM     15  C   UNL     1      47.461   1.321   7.197  0.00  0.00    +0.000 C 
ATOM     16  C   UNL     1      47.959   2.600   6.517  0.00  0.00    +0.000 C 
ATOM     17  N   UNL     1      47.057   3.598   7.042  0.00  0.00    +0.000 N 
ATOM     18  H   UNL     1      47.452   4.489   7.320  0.00  0.00    +0.000 HD
ENDBRANCH  11  13
ENDBRANCH   9  11
ENDBRANCH   8   9
ENDBRANCH   5   8
ENDBRANCH   1   2
BRANCH   1  19
ATOM     19  N   UNL     1      48.539   4.589  16.379  0.00  0.00    +0.000 N 
ATOM     20  C   UNL     1      49.705   5.366  16.529  0.00  0.00    +0.000 C 
ATOM     21  O   UNL     1      50.755   4.867  16.926  0.00  0.00    +0.000 OA
BRANCH  20  22
ATOM     22  C   UNL     1      49.660   6.813  16.246  0.00  0.00    +0.000 A 
ATOM     23  C   UNL     1      50.075   7.418  15.071  0.00  0.00    +0.000 A 
ATOM     24  S   UNL     1      49.817   9.106  15.028  0.00  0.00    +0.000 S 
ATOM     25  C   UNL     1      48.992   9.059  16.513  0.00  0.00    +0.000 A 
ATOM     26  N   UNL     1      48.379  10.169  17.006  0.00  0.00    +0.000 NA
ATOM     27  C   UNL     1      47.738   9.964  18.106  0.00  0.00    +0.000 A 
ATOM     28  N   UNL     1      47.696   8.776  18.785  0.00  0.00    +0.000 N 
ATOM     29  C   UNL     1      48.417   7.669  18.394  0.00  0.00    +0.000 A 
ATOM     30  O   UNL     1      48.566   6.708  19.146  0.00  0.00    +0.000 OA
ATOM     31  C   UNL     1      49.031   7.804  17.088  0.00  0.00    +0.000 A 
ATOM     32  H   UNL     1      47.243   8.710  19.686  0.00  0.00    +0.000 HD
ENDBRANCH  20  22
BRANCH  19  34
ATOM     33  C   UNL     1      48.116   3.011  18.252  0.00  0.00    +0.000 C 
ATOM     34  C   UNL     1      48.603   3.192  16.821  0.00  0.00    +0.000 C 
ENDBRANCH  19  34
ENDBRANCH   1  19
TORSDOF 8
ENDMDL
MODEL 9
REMARK VINA RESULT:    -5.876      3.935      8.758
REMARK INTER + INTRA:         -10.008
REMARK INTER:                  -8.263
REMARK INTRA:                  -1.745
REMARK UNBOUND:                -1.384
REMARK  Name = 
REMARK  10 active torsions:
REMARK  status: ('A' for Active; 'I' for Inactive)
REMARK    1  A    between atoms: C_1  and  C_2
REMARK    2  A    between atoms: C_2  and  N_3
REMARK    3  A    between atoms: N_3  and  C_4
REMARK    4  A    between atoms: C_4  and  C_5
REMARK    5  A    between atoms: C_8  and  C_9
REMARK    6  A    between atoms: C_9  and  N_10
REMARK    7  A    between atoms: N_10  and  C_11
REMARK    8  A    between atoms: C_11  and  C_12
REMARK    9  A    between atoms: C_11  and  C_13
REMARK   10  A    between atoms: C_20  and  C_22
REMARK                            x       y       z     vdW  Elec       q    Type
REMARK                         _______ _______ _______ _____ _____    ______ ____
ROOT
ATOM      1  C   UNL     1      50.375   4.839  19.974  0.00  0.00    +0.000 C 
ENDROOT
BRANCH   1   2
ATOM      2  C   UNL     1      49.432   4.393  18.902  0.00  0.00    +0.000 A 
ATOM      3  C   UNL     1      48.140   4.922  18.817  0.00  0.00    +0.000 A 
ATOM      4  C   UNL     1      47.382   4.696  17.676  0.00  0.00    +0.000 A 
ATOM      5  C   UNL     1      47.936   3.942  16.645  0.00  0.00    +0.000 A 
ATOM      6  N   UNL     1      49.163   3.367  16.734  0.00  0.00    +0.000 NA
ATOM      7  C   UNL     1      49.874   3.593  17.858  0.00  0.00    +0.000 A 
BRANCH   5   8
ATOM      8  C   UNL     1      47.194   3.791  15.331  0.00  0.00    +0.000 C 
BRANCH   8   9
ATOM      9  N   UNL     1      46.822   5.099  14.771  0.00  0.00    +0.000 NA
ATOM     10  H   UNL     1      47.552   5.772  14.995  0.00  0.00    +0.000 HD
BRANCH   9  11
ATOM     11  C   UNL     1      46.600   5.076  13.309  0.00  0.00    +0.000 C 
ATOM     12  C   UNL     1      47.029   6.382  12.643  0.00  0.00    +0.000 C 
BRANCH  11  13
ATOM     13  C   UNL     1      45.154   4.683  12.974  0.00  0.00    +0.000 C 
ATOM     14  N   UNL     1      44.818   3.451  12.691  0.00  0.00    +0.000 NA
ATOM     15  C   UNL     1      43.380   3.518  12.324  0.00  0.00    +0.000 C 
ATOM     16  C   UNL     1      42.926   4.967  12.520  0.00  0.00    +0.000 C 
ATOM     17  N   UNL     1      44.143   5.615  12.949  0.00  0.00    +0.000 N 
ATOM     18  H   UNL     1      44.355   6.525  12.557  0.00  0.00    +0.000 HD
ENDBRANCH  11  13
ENDBRANCH   9  11
ENDBRANCH   8   9
ENDBRANCH   5   8
ENDBRANCH   1   2
BRANCH   1  19
ATOM     19  N   UNL     1      51.661   5.436  19.643  0.00  0.00    +0.000 N 
ATOM     20  C   UNL     1      51.765   6.722  19.075  0.00  0.00    +0.000 C 
ATOM     21  O   UNL     1      52.858   7.210  18.801  0.00  0.00    +0.000 OA
BRANCH  20  22
ATOM     22  C   UNL     1      50.545   7.519  18.844  0.00  0.00    +0.000 A 
ATOM     23  C   UNL     1      49.920   8.326  19.780  0.00  0.00    +0.000 A 
ATOM     24  S   UNL     1      48.571   9.179  19.174  0.00  0.00    +0.000 S 
ATOM     25  C   UNL     1      48.875   8.624  17.598  0.00  0.00    +0.000 A 
ATOM     26  N   UNL     1      48.153   9.088  16.542  0.00  0.00    +0.000 NA
ATOM     27  C   UNL     1      48.541   8.626  15.403  0.00  0.00    +0.000 A 
ATOM     28  N   UNL     1      49.542   7.709  15.223  0.00  0.00    +0.000 N 
ATOM     29  C   UNL     1      50.201   7.110  16.274  0.00  0.00    +0.000 A 
ATOM     30  O   UNL     1      50.905   6.117  16.101  0.00  0.00    +0.000 OA
ATOM     31  C   UNL     1      49.904   7.703  17.563  0.00  0.00    +0.000 A 
ATOM     32  H   UNL     1      49.737   7.328  14.308  0.00  0.00    +0.000 HD
ENDBRANCH  20  22
BRANCH  19  34
ATOM     33  C   UNL     1      53.187   3.552  19.101  0.00  0.00    +0.000 C 
ATOM     34  C   UNL     1      52.912   4.755  19.992  0.00  0.00    +0.000 C 
ENDBRANCH  19  34
ENDBRANCH   1  19
TORSDOF 8
ENDMDL
