MODEL 1
REMARK VINA RESULT:    -7.443      0.000      0.000
REMARK INTER + INTRA:          -9.913
REMARK INTER:                  -9.401
REMARK INTRA:                  -0.512
REMARK UNBOUND:                -0.512
REMARK  Name = 
REMARK  5 active torsions:
REMARK  status: ('A' for Active; 'I' for Inactive)
REMARK    1  A    between atoms: N_1  and  C_2
REMARK    2  A    between atoms: C_2  and  C_3
REMARK    3  A    between atoms: C_6  and  O_7
REMARK    4  A    between atoms: O_7  and  C_8
REMARK    5  A    between atoms: C_8  and  C_9
REMARK                            x       y       z     vdW  Elec       q    Type
REMARK                         _______ _______ _______ _____ _____    ______ ____
ROOT
ATOM      1  C   UNL     1      47.062   2.397   7.267  0.00  0.00    +0.000 A 
ATOM      2  C   UNL     1      46.399   1.414   8.017  0.00  0.00    +0.000 A 
ATOM      3  C   UNL     1      45.295   1.746   8.806  0.00  0.00    +0.000 A 
ATOM      4  C   UNL     1      44.845   3.064   8.865  0.00  0.00    +0.000 A 
ATOM      5  C   UNL     1      45.471   4.038   8.084  0.00  0.00    +0.000 A 
ATOM      6  C   UNL     1      46.579   3.708   7.301  0.00  0.00    +0.000 A 
ENDROOT
BRANCH   1   7
ATOM      7  C   UNL     1      48.277   2.053   6.446  0.00  0.00    +0.000 C 
BRANCH   7   8
ATOM      8  N   UNL     1      48.162   2.558   5.084  0.00  0.00    +0.000 NA
ATOM      9  H   UNL     1      47.974   3.558   5.114  0.00  0.00    +0.000 HD
ATOM     10  H   UNL     1      47.351   2.125   4.643  0.00  0.00    +0.000 HD
ENDBRANCH   7   8
ENDBRANCH   1   7
BRANCH   4  11
ATOM     11  O   UNL     1      43.793   3.296   9.714  0.00  0.00    +0.000 OA
BRANCH  11  12
ATOM     12  C   UNL     1      43.790   4.593  10.314  0.00  0.00    +0.000 C 
BRANCH  12  13
ATOM     13  C   UNL     1      44.793   4.697  11.431  0.00  0.00    +0.000 A 
ATOM     14  C   UNL     1      45.740   5.721  11.515  0.00  0.00    +0.000 A 
ATOM     15  C   UNL     1      46.567   5.803  12.633  0.00  0.00    +0.000 A 
ATOM     16  C   UNL     1      46.404   4.859  13.632  0.00  0.00    +0.000 A 
ATOM     17 CL   UNL     1      47.356   4.909  15.056  0.00  0.00    +0.000 Cl
ATOM     18  N   UNL     1      45.502   3.858  13.596  0.00  0.00    +0.000 NA
ATOM     19  C   UNL     1      44.717   3.804  12.498  0.00  0.00    +0.000 A 
ENDBRANCH  12  13
ENDBRANCH  11  12
ENDBRANCH   4  11
TORSDOF 5
ENDMDL
MODEL 2
REMARK VINA RESULT:    -7.315      1.119      1.794
REMARK INTER + INTRA:          -9.752
REMARK INTER:                  -9.135
REMARK INTRA:                  -0.617
REMARK UNBOUND:                -0.512
REMARK  Name = 
REMARK  5 active torsions:
REMARK  status: ('A' for Active; 'I' for Inactive)
REMARK    1  A    between atoms: N_1  and  C_2
REMARK    2  A    between atoms: C_2  and  C_3
REMARK    3  A    between atoms: C_6  and  O_7
REMARK    4  A    between atoms: O_7  and  C_8
REMARK    5  A    between atoms: C_8  and  C_9
REMARK                            x       y       z     vdW  Elec       q    Type
REMARK                         _______ _______ _______ _____ _____    ______ ____
ROOT
ATOM      1  C   UNL     1      46.547   2.318   7.619  0.00  0.00    +0.000 A 
ATOM      2  C   UNL     1      46.374   3.710   7.603  0.00  0.00    +0.000 A 
ATOM      3  C   UNL     1      45.400   4.314   8.403  0.00  0.00    +0.000 A 
ATOM      4  C   UNL     1      44.581   3.538   9.220  0.00  0.00    +0.000 A 
ATOM      5  C   UNL     1      44.780   2.156   9.276  0.00  0.00    +0.000 A 
ATOM      6  C   UNL     1      45.747   1.550   8.472  0.00  0.00    +0.000 A 
ENDROOT
BRANCH   1   7
ATOM      7  C   UNL     1      47.566   1.656   6.729  0.00  0.00    +0.000 C 
BRANCH   7   8
ATOM      8  N   UNL     1      48.612   2.588   6.330  0.00  0.00    +0.000 NA
ATOM      9  H   UNL     1      48.889   3.144   7.137  0.00  0.00    +0.000 HD
ATOM     10  H   UNL     1      48.226   3.240   5.649  0.00  0.00    +0.000 HD
ENDBRANCH   7   8
ENDBRANCH   1   7
BRANCH   4  11
ATOM     11  O   UNL     1      43.619   4.220   9.920  0.00  0.00    +0.000 OA
BRANCH  11  12
ATOM     12  C   UNL     1      43.490   3.828  11.289  0.00  0.00    +0.000 C 
BRANCH  12  13
ATOM     13  C   UNL     1      44.600   4.386  12.139  0.00  0.00    +0.000 A 
ATOM     14  C   UNL     1      45.582   3.589  12.732  0.00  0.00    +0.000 A 
ATOM     15  C   UNL     1      46.633   4.190  13.420  0.00  0.00    +0.000 A 
ATOM     16  C   UNL     1      46.665   5.573  13.477  0.00  0.00    +0.000 A 
ATOM     17 CL   UNL     1      47.942   6.393  14.273  0.00  0.00    +0.000 Cl
ATOM     18  N   UNL     1      45.743   6.381  12.916  0.00  0.00    +0.000 NA
ATOM     19  C   UNL     1      44.736   5.768  12.259  0.00  0.00    +0.000 A 
ENDBRANCH  12  13
ENDBRANCH  11  12
ENDBRANCH   4  11
TORSDOF 5
ENDMDL
MODEL 3
REMARK VINA RESULT:    -6.823      2.878      5.977
REMARK INTER + INTRA:          -9.130
REMARK INTER:                  -8.652
REMARK INTRA:                  -0.478
REMARK UNBOUND:                -0.512
REMARK  Name = 
REMARK  5 active torsions:
REMARK  status: ('A' for Active; 'I' for Inactive)
REMARK    1  A    between atoms: N_1  and  C_2
REMARK    2  A    between atoms: C_2  and  C_3
REMARK    3  A    between atoms: C_6  and  O_7
REMARK    4  A    between atoms: O_7  and  C_8
REMARK    5  A    between atoms: C_8  and  C_9
REMARK                            x       y       z     vdW  Elec       q    Type
REMARK                         _______ _______ _______ _____ _____    ______ ____
ROOT
ATOM      1  C   UNL     1      46.971   6.106  13.032  0.00  0.00    +0.000 A 
ATOM      2  C   UNL     1      46.684   6.709  11.799  0.00  0.00    +0.000 A 
ATOM      3  C   UNL     1      45.660   6.214  10.986  0.00  0.00    +0.000 A 
ATOM      4  C   UNL     1      44.917   5.106  11.390  0.00  0.00    +0.000 A 
ATOM      5  C   UNL     1      45.166   4.531  12.638  0.00  0.00    +0.000 A 
ATOM      6  C   UNL     1      46.194   5.020  13.447  0.00  0.00    +0.000 A 
ENDROOT
BRANCH   1   7
ATOM      7  C   UNL     1      48.099   6.608  13.894  0.00  0.00    +0.000 C 
BRANCH   7   8
ATOM      8  N   UNL     1      49.357   6.641  13.161  0.00  0.00    +0.000 NA
ATOM      9  H   UNL     1      49.424   7.521  12.653  0.00  0.00    +0.000 HD
ATOM     10  H   UNL     1      49.345   5.903  12.459  0.00  0.00    +0.000 HD
ENDBRANCH   7   8
ENDBRANCH   1   7
BRANCH   4  11
ATOM     11  O   UNL     1      43.976   4.663  10.496  0.00  0.00    +0.000 OA
BRANCH  11  12
ATOM     12  C   UNL     1      44.063   3.271  10.184  0.00  0.00    +0.000 C 
BRANCH  12  13
ATOM     13  C   UNL     1      44.972   3.015   9.011  0.00  0.00    +0.000 A 
ATOM     14  C   UNL     1      45.369   4.015   8.120  0.00  0.00    +0.000 A 
ATOM     15  C   UNL     1      46.293   3.718   7.121  0.00  0.00    +0.000 A 
ATOM     16  C   UNL     1      46.792   2.429   7.060  0.00  0.00    +0.000 A 
ATOM     17 CL   UNL     1      47.957   1.990   5.883  0.00  0.00    +0.000 Cl
ATOM     18  N   UNL     1      46.442   1.434   7.900  0.00  0.00    +0.000 NA
ATOM     19  C   UNL     1      45.543   1.753   8.856  0.00  0.00    +0.000 A 
ENDBRANCH  12  13
ENDBRANCH  11  12
ENDBRANCH   4  11
TORSDOF 5
ENDMDL
MODEL 4
REMARK VINA RESULT:    -5.751      3.476      6.376
REMARK INTER + INTRA:          -7.776
REMARK INTER:                  -7.331
REMARK INTRA:                  -0.445
REMARK UNBOUND:                -0.512
REMARK  Name = 
REMARK  5 active torsions:
REMARK  status: ('A' for Active; 'I' for Inactive)
REMARK    1  A    between atoms: N_1  and  C_2
REMARK    2  A    between atoms: C_2  and  C_3
REMARK    3  A    between atoms: C_6  and  O_7
REMARK    4  A    between atoms: O_7  and  C_8
REMARK    5  A    between atoms: C_8  and  C_9
REMARK                            x       y       z     vdW  Elec       q    Type
REMARK                         _______ _______ _______ _____ _____    ______ ____
ROOT
ATOM      1  C   UNL     1      46.672   8.540  12.133  0.00  0.00    +0.000 A 
ATOM      2  C   UNL     1      47.383   7.332  12.184  0.00  0.00    +0.000 A 
ATOM      3  C   UNL     1      46.723   6.111  12.022  0.00  0.00    +0.000 A 
ATOM      4  C   UNL     1      45.345   6.079  11.818  0.00  0.00    +0.000 A 
ATOM      5  C   UNL     1      44.639   7.280  11.719  0.00  0.00    +0.000 A 
ATOM      6  C   UNL     1      45.296   8.500  11.887  0.00  0.00    +0.000 A 
ENDROOT
BRANCH   1   7
ATOM      7  C   UNL     1      47.371   9.857  12.346  0.00  0.00    +0.000 C 
BRANCH   7   8
ATOM      8  N   UNL     1      46.704  10.937  11.632  0.00  0.00    +0.000 NA
ATOM      9  H   UNL     1      46.430  11.657  12.297  0.00  0.00    +0.000 HD
ATOM     10  H   UNL     1      45.841  10.576  11.225  0.00  0.00    +0.000 HD
ENDBRANCH   7   8
ENDBRANCH   1   7
BRANCH   4  11
ATOM     11  O   UNL     1      44.784   4.830  11.730  0.00  0.00    +0.000 OA
BRANCH  11  12
ATOM     12  C   UNL     1      44.087   4.576  10.509  0.00  0.00    +0.000 C 
BRANCH  12  13
ATOM     13  C   UNL     1      44.959   3.877   9.501  0.00  0.00    +0.000 A 
ATOM     14  C   UNL     1      45.062   2.486   9.414  0.00  0.00    +0.000 A 
ATOM     15  C   UNL     1      45.811   1.915   8.388  0.00  0.00    +0.000 A 
ATOM     16  C   UNL     1      46.420   2.763   7.480  0.00  0.00    +0.000 A 
ATOM     17 CL   UNL     1      47.331   2.140   6.168  0.00  0.00    +0.000 Cl
ATOM     18  N   UNL     1      46.344   4.108   7.521  0.00  0.00    +0.000 NA
ATOM     19  C   UNL     1      45.613   4.631   8.528  0.00  0.00    +0.000 A 
ENDBRANCH  12  13
ENDBRANCH  11  12
ENDBRANCH   4  11
TORSDOF 5
ENDMDL
MODEL 5
REMARK VINA RESULT:    -5.490      2.527      3.461
REMARK INTER + INTRA:          -7.447
REMARK INTER:                  -7.234
REMARK INTRA:                  -0.213
REMARK UNBOUND:                -0.512
REMARK  Name = 
REMARK  5 active torsions:
REMARK  status: ('A' for Active; 'I' for Inactive)
REMARK    1  A    between atoms: N_1  and  C_2
REMARK    2  A    between atoms: C_2  and  C_3
REMARK    3  A    between atoms: C_6  and  O_7
REMARK    4  A    between atoms: O_7  and  C_8
REMARK    5  A    between atoms: C_8  and  C_9
REMARK                            x       y       z     vdW  Elec       q    Type
REMARK                         _______ _______ _______ _____ _____    ______ ____
ROOT
ATOM      1  C   UNL     1      45.505   3.551   8.481  0.00  0.00    +0.000 A 
ATOM      2  C   UNL     1      45.696   4.888   8.860  0.00  0.00    +0.000 A 
ATOM      3  C   UNL     1      45.328   5.326  10.135  0.00  0.00    +0.000 A 
ATOM      4  C   UNL     1      44.757   4.438  11.044  0.00  0.00    +0.000 A 
ATOM      5  C   UNL     1      44.607   3.095  10.690  0.00  0.00    +0.000 A 
ATOM      6  C   UNL     1      44.967   2.658   9.413  0.00  0.00    +0.000 A 
ENDROOT
BRANCH   1   7
ATOM      7  C   UNL     1      45.861   3.082   7.095  0.00  0.00    +0.000 C 
BRANCH   7   8
ATOM      8  N   UNL     1      46.812   3.981   6.455  0.00  0.00    +0.000 NA
ATOM      9  H   UNL     1      47.652   3.460   6.213  0.00  0.00    +0.000 HD
ATOM     10  H   UNL     1      47.097   4.690   7.130  0.00  0.00    +0.000 HD
ENDBRANCH   7   8
ENDBRANCH   1   7
BRANCH   4  11
ATOM     11  O   UNL     1      44.377   4.978  12.246  0.00  0.00    +0.000 OA
BRANCH  11  12
ATOM     12  C   UNL     1      45.429   5.090  13.207  0.00  0.00    +0.000 C 
BRANCH  12  13
ATOM     13  C   UNL     1      46.275   6.312  12.972  0.00  0.00    +0.000 A 
ATOM     14  C   UNL     1      47.646   6.254  12.710  0.00  0.00    +0.000 A 
ATOM     15  C   UNL     1      48.338   7.424  12.404  0.00  0.00    +0.000 A 
ATOM     16  C   UNL     1      47.624   8.608  12.361  0.00  0.00    +0.000 A 
ATOM     17 CL   UNL     1      48.392  10.086  11.957  0.00  0.00    +0.000 Cl
ATOM     18  N   UNL     1      46.302   8.711  12.601  0.00  0.00    +0.000 NA
ATOM     19  C   UNL     1      45.660   7.561  12.897  0.00  0.00    +0.000 A 
ENDBRANCH  12  13
ENDBRANCH  11  12
ENDBRANCH   4  11
TORSDOF 5
ENDMDL
MODEL 6
REMARK VINA RESULT:    -5.397      4.359      8.342
REMARK INTER + INTRA:          -7.329
REMARK INTER:                  -7.006
REMARK INTRA:                  -0.323
REMARK UNBOUND:                -0.512
REMARK  Name = 
REMARK  5 active torsions:
REMARK  status: ('A' for Active; 'I' for Inactive)
REMARK    1  A    between atoms: N_1  and  C_2
REMARK    2  A    between atoms: C_2  and  C_3
REMARK    3  A    between atoms: C_6  and  O_7
REMARK    4  A    between atoms: O_7  and  C_8
REMARK    5  A    between atoms: C_8  and  C_9
REMARK                            x       y       z     vdW  Elec       q    Type
REMARK                         _______ _______ _______ _____ _____    ______ ____
ROOT
ATOM      1  C   UNL     1      48.631   4.358  18.637  0.00  0.00    +0.000 A 
ATOM      2  C   UNL     1      48.526   5.409  17.714  0.00  0.00    +0.000 A 
ATOM      3  C   UNL     1      47.967   5.194  16.451  0.00  0.00    +0.000 A 
ATOM      4  C   UNL     1      47.515   3.926  16.091  0.00  0.00    +0.000 A 
ATOM      5  C   UNL     1      47.573   2.887  17.023  0.00  0.00    +0.000 A 
ATOM      6  C   UNL     1      48.138   3.099  18.281  0.00  0.00    +0.000 A 
ENDROOT
BRANCH   1   7
ATOM      7  C   UNL     1      49.269   4.574  19.984  0.00  0.00    +0.000 C 
BRANCH   7   8
ATOM      8  N   UNL     1      48.410   4.107  21.063  0.00  0.00    +0.000 NA
ATOM      9  H   UNL     1      47.448   4.371  20.861  0.00  0.00    +0.000 HD
ATOM     10  H   UNL     1      48.669   4.592  21.921  0.00  0.00    +0.000 HD
ENDBRANCH   7   8
ENDBRANCH   1   7
BRANCH   4  11
ATOM     11  O   UNL     1      47.038   3.805  14.810  0.00  0.00    +0.000 OA
BRANCH  11  12
ATOM     12  C   UNL     1      46.897   5.043  14.110  0.00  0.00    +0.000 C 
BRANCH  12  13
ATOM     13  C   UNL     1      46.158   4.871  12.810  0.00  0.00    +0.000 A 
ATOM     14  C   UNL     1      46.102   5.861  11.826  0.00  0.00    +0.000 A 
ATOM     15  C   UNL     1      45.482   5.586  10.609  0.00  0.00    +0.000 A 
ATOM     16  C   UNL     1      44.952   4.322  10.421  0.00  0.00    +0.000 A 
ATOM     17 CL   UNL     1      44.204   3.891   8.940  0.00  0.00    +0.000 Cl
ATOM     18  N   UNL     1      44.987   3.335  11.339  0.00  0.00    +0.000 NA
ATOM     19  C   UNL     1      45.592   3.633  12.509  0.00  0.00    +0.000 A 
ENDBRANCH  12  13
ENDBRANCH  11  12
ENDBRANCH   4  11
TORSDOF 5
ENDMDL
MODEL 7
REMARK VINA RESULT:    -5.293      2.489      3.944
REMARK INTER + INTRA:          -7.198
REMARK INTER:                  -6.857
REMARK INTRA:                  -0.341
REMARK UNBOUND:                -0.512
REMARK  Name = 
REMARK  5 active torsions:
REMARK  status: ('A' for Active; 'I' for Inactive)
REMARK    1  A    between atoms: N_1  and  C_2
REMARK    2  A    between atoms: C_2  and  C_3
REMARK    3  A    between atoms: C_6  and  O_7
REMARK    4  A    between atoms: O_7  and  C_8
REMARK    5  A    between atoms: C_8  and  C_9
REMARK                            x       y       z     vdW  Elec       q    Type
REMARK                         _______ _______ _______ _____ _____    ______ ____
ROOT
ATOM      1  C   UNL     1      45.104   4.046   9.258  0.00  0.00    +0.000 A 
ATOM      2  C   UNL     1      45.661   5.324   9.405  0.00  0.00    +0.000 A 
ATOM      3  C   UNL     1      45.834   5.882  10.675  0.00  0.00    +0.000 A 
ATOM      4  C   UNL     1      45.446   5.175  11.812  0.00  0.00    +0.000 A 
ATOM      5  C   UNL     1      44.934   3.882  11.674  0.00  0.00    +0.000 A 
ATOM      6  C   UNL     1      44.754   3.328  10.405  0.00  0.00    +0.000 A 
ENDROOT
BRANCH   1   7
ATOM      7  C   UNL     1      44.877   3.456   7.890  0.00  0.00    +0.000 C 
BRANCH   7   8
ATOM      8  N   UNL     1      46.027   3.664   7.021  0.00  0.00    +0.000 NA
ATOM      9  H   UNL     1      46.846   3.860   7.593  0.00  0.00    +0.000 HD
ATOM     10  H   UNL     1      45.864   4.497   6.457  0.00  0.00    +0.000 HD
ENDBRANCH   7   8
ENDBRANCH   1   7
BRANCH   4  11
ATOM     11  O   UNL     1      45.602   5.833  13.005  0.00  0.00    +0.000 OA
BRANCH  11  12
ATOM     12  C   UNL     1      46.950   6.201  13.307  0.00  0.00    +0.000 C 
BRANCH  12  13
ATOM     13  C   UNL     1      47.452   5.519  14.551  0.00  0.00    +0.000 A 
ATOM     14  C   UNL     1      48.346   6.116  15.443  0.00  0.00    +0.000 A 
ATOM     15  C   UNL     1      48.684   5.458  16.623  0.00  0.00    +0.000 A 
ATOM     16  C   UNL     1      48.101   4.228  16.870  0.00  0.00    +0.000 A 
ATOM     17 CL   UNL     1      48.435   3.368  18.314  0.00  0.00    +0.000 Cl
ATOM     18  N   UNL     1      47.230   3.616  16.042  0.00  0.00    +0.000 NA
ATOM     19  C   UNL     1      46.925   4.278  14.906  0.00  0.00    +0.000 A 
ENDBRANCH  12  13
ENDBRANCH  11  12
ENDBRANCH   4  11
TORSDOF 5
ENDMDL
MODEL 8
REMARK VINA RESULT:    -5.118      4.160      6.196
REMARK INTER + INTRA:          -6.977
REMARK INTER:                  -6.600
REMARK INTRA:                  -0.377
REMARK UNBOUND:                -0.512
REMARK  Name = 
REMARK  5 active torsions:
REMARK  status: ('A' for Active; 'I' for Inactive)
REMARK    1  A    between atoms: N_1  and  C_2
REMARK    2  A    between atoms: C_2  and  C_3
REMARK    3  A    between atoms: C_6  and  O_7
REMARK    4  A    between atoms: O_7  and  C_8
REMARK    5  A    between atoms: C_8  and  C_9
REMARK                            x       y       z     vdW  Elec       q    Type
REMARK                         _______ _______ _______ _____ _____    ______ ____
ROOT
ATOM      1  C   UNL     1      44.797   4.784  11.723  0.00  0.00    +0.000 A 
ATOM      2  C   UNL     1      45.299   6.038  12.103  0.00  0.00    +0.000 A 
ATOM      3  C   UNL     1      46.229   6.146  13.141  0.00  0.00    +0.000 A 
ATOM      4  C   UNL     1      46.661   5.007  13.818  0.00  0.00    +0.000 A 
ATOM      5  C   UNL     1      46.200   3.752  13.413  0.00  0.00    +0.000 A 
ATOM      6  C   UNL     1      45.266   3.644  12.381  0.00  0.00    +0.000 A 
ENDROOT
BRANCH   1   7
ATOM      7  C   UNL     1      43.764   4.664  10.632  0.00  0.00    +0.000 C 
BRANCH   7   8
ATOM      8  N   UNL     1      43.894   3.406   9.911  0.00  0.00    +0.000 NA
ATOM      9  H   UNL     1      44.479   3.550   9.090  0.00  0.00    +0.000 HD
ATOM     10  H   UNL     1      42.975   3.130   9.566  0.00  0.00    +0.000 HD
ENDBRANCH   7   8
ENDBRANCH   1   7
BRANCH   4  11
ATOM     11  O   UNL     1      47.527   5.226  14.858  0.00  0.00    +0.000 OA
BRANCH  11  12
ATOM     12  C   UNL     1      47.286   4.418  16.013  0.00  0.00    +0.000 C 
BRANCH  12  13
ATOM     13  C   UNL     1      48.518   3.666  16.438  0.00  0.00    +0.000 A 
ATOM     14  C   UNL     1      49.468   4.190  17.318  0.00  0.00    +0.000 A 
ATOM     15  C   UNL     1      50.528   3.392  17.741  0.00  0.00    +0.000 A 
ATOM     16  C   UNL     1      50.588   2.091  17.274  0.00  0.00    +0.000 A 
ATOM     17 CL   UNL     1      51.840   1.032  17.773  0.00  0.00    +0.000 Cl
ATOM     18  N   UNL     1      49.693   1.541  16.429  0.00  0.00    +0.000 NA
ATOM     19  C   UNL     1      48.679   2.341  16.035  0.00  0.00    +0.000 A 
ENDBRANCH  12  13
ENDBRANCH  11  12
ENDBRANCH   4  11
TORSDOF 5
ENDMDL
MODEL 9
REMARK VINA RESULT:    -4.919      5.226      7.998
REMARK INTER + INTRA:          -6.725
REMARK INTER:                  -6.318
REMARK INTRA:                  -0.407
REMARK UNBOUND:                -0.512
REMARK  Name = 
REMARK  5 active torsions:
REMARK  status: ('A' for Active; 'I' for Inactive)
REMARK    1  A    between atoms: N_1  and  C_2
REMARK    2  A    between atoms: C_2  and  C_3
REMARK    3  A    between atoms: C_6  and  O_7
REMARK    4  A    between atoms: O_7  and  C_8
REMARK    5  A    between atoms: C_8  and  C_9
REMARK                            x       y       z     vdW  Elec       q    Type
REMARK                         _______ _______ _______ _____ _____    ______ ____
ROOT
ATOM      1  C   UNL     1      50.294   3.875  17.762  0.00  0.00    +0.000 A 
ATOM      2  C   UNL     1      49.583   5.039  17.433  0.00  0.00    +0.000 A 
ATOM      3  C   UNL     1      48.390   4.963  16.709  0.00  0.00    +0.000 A 
ATOM      4  C   UNL     1      47.897   3.727  16.296  0.00  0.00    +0.000 A 
ATOM      5  C   UNL     1      48.575   2.561  16.662  0.00  0.00    +0.000 A 
ATOM      6  C   UNL     1      49.771   2.636  17.378  0.00  0.00    +0.000 A 
ENDROOT
BRANCH   1   7
ATOM      7  C   UNL     1      51.601   3.952  18.507  0.00  0.00    +0.000 C 
BRANCH   7   8
ATOM      8  N   UNL     1      52.290   2.669  18.509  0.00  0.00    +0.000 NA
ATOM      9  H   UNL     1      52.892   2.613  17.689  0.00  0.00    +0.000 HD
ATOM     10  H   UNL     1      51.600   1.926  18.411  0.00  0.00    +0.000 HD
ENDBRANCH   7   8
ENDBRANCH   1   7
BRANCH   4  11
ATOM     11  O   UNL     1      46.752   3.764  15.541  0.00  0.00    +0.000 OA
BRANCH  11  12
ATOM     12  C   UNL     1      46.972   3.781  14.129  0.00  0.00    +0.000 C 
BRANCH  12  13
ATOM     13  C   UNL     1      46.424   5.029  13.491  0.00  0.00    +0.000 A 
ATOM     14  C   UNL     1      45.072   5.197  13.181  0.00  0.00    +0.000 A 
ATOM     15  C   UNL     1      44.627   6.420  12.685  0.00  0.00    +0.000 A 
ATOM     16  C   UNL     1      45.556   7.434  12.531  0.00  0.00    +0.000 A 
ATOM     17 CL   UNL     1      45.086   8.981  11.960  0.00  0.00    +0.000 Cl
ATOM     18  N   UNL     1      46.867   7.320  12.822  0.00  0.00    +0.000 NA
ATOM     19  C   UNL     1      47.267   6.121  13.297  0.00  0.00    +0.000 A 
ENDBRANCH  12  13
ENDBRANCH  11  12
ENDBRANCH   4  11
TORSDOF 5
ENDMDL
