MODEL 1
REMARK VINA RESULT:    -7.803      0.000      0.000
REMARK INTER + INTRA:         -10.229
REMARK INTER:                  -9.628
REMARK INTRA:                  -0.601
REMARK UNBOUND:                -0.601
REMARK  Name = 
REMARK  4 active torsions:
REMARK  status: ('A' for Active; 'I' for Inactive)
REMARK    1  A    between atoms: C_2  and  C_4
REMARK    2  A    between atoms: C_7  and  O_8
REMARK    3  A    between atoms: O_8  and  C_9
REMARK    4  A    between atoms: C_9  and  C_10
REMARK                            x       y       z     vdW  Elec       q    Type
REMARK                         _______ _______ _______ _____ _____    ______ ____
ROOT
ATOM      1  C   UNL     1      46.323   2.291   7.815  0.00  0.00    +0.000 A 
ATOM      2  C   UNL     1      45.429   1.749   8.743  0.00  0.00    +0.000 A 
ATOM      3  C   UNL     1      44.516   2.591   9.383  0.00  0.00    +0.000 A 
ATOM      4  C   UNL     1      44.517   3.938   9.048  0.00  0.00    +0.000 A 
ATOM      5  N   UNL     1      45.375   4.490   8.165  0.00  0.00    +0.000 NA
ATOM      6  C   UNL     1      46.271   3.657   7.581  0.00  0.00    +0.000 A 
ENDROOT
BRANCH   1   8
ATOM      7  N   UNL     1      48.433   2.146   6.619  0.00  0.00    +0.000 N 
ATOM      8  C   UNL     1      47.337   1.488   7.104  0.00  0.00    +0.000 C 
ATOM      9  O   UNL     1      47.223   0.275   6.986  0.00  0.00    +0.000 OA
ATOM     10  H   UNL     1      49.165   1.566   6.226  0.00  0.00    +0.000 HD
ATOM     11  H   UNL     1      48.686   3.077   6.917  0.00  0.00    +0.000 HD
ENDBRANCH   1   8
BRANCH   4  12
ATOM     12  O   UNL     1      43.605   4.740   9.701  0.00  0.00    +0.000 OA
BRANCH  12  13
ATOM     13  C   UNL     1      43.621   4.523  11.117  0.00  0.00    +0.000 C 
BRANCH  13  14
ATOM     14  C   UNL     1      44.624   5.447  11.769  0.00  0.00    +0.000 A 
ATOM     15  N   UNL     1      44.436   6.784  11.560  0.00  0.00    +0.000 NA
ATOM     16  C   UNL     1      45.324   7.639  12.113  0.00  0.00    +0.000 A 
ATOM     17  C   UNL     1      46.402   7.234  12.881  0.00  0.00    +0.000 A 
ATOM     18  C   UNL     1      46.590   5.871  13.084  0.00  0.00    +0.000 A 
ATOM     19  C   UNL     1      45.697   4.959  12.520  0.00  0.00    +0.000 A 
ATOM     20 CL   UNL     1      45.988   3.277  12.764  0.00  0.00    +0.000 Cl
ENDBRANCH  13  14
ENDBRANCH  12  13
ENDBRANCH   4  12
TORSDOF 4
ENDMDL
MODEL 2
REMARK VINA RESULT:    -7.718      1.690      2.191
REMARK INTER + INTRA:         -10.124
REMARK INTER:                  -9.807
REMARK INTRA:                  -0.317
REMARK UNBOUND:                -0.601
REMARK  Name = 
REMARK  4 active torsions:
REMARK  status: ('A' for Active; 'I' for Inactive)
REMARK    1  A    between atoms: C_2  and  C_4
REMARK    2  A    between atoms: C_7  and  O_8
REMARK    3  A    between atoms: O_8  and  C_9
REMARK    4  A    between atoms: C_9  and  C_10
REMARK                            x       y       z     vdW  Elec       q    Type
REMARK                         _______ _______ _______ _____ _____    ______ ____
ROOT
ATOM      1  C   UNL     1      46.406   2.442   7.734  0.00  0.00    +0.000 A 
ATOM      2  C   UNL     1      46.193   3.823   7.735  0.00  0.00    +0.000 A 
ATOM      3  C   UNL     1      45.234   4.365   8.593  0.00  0.00    +0.000 A 
ATOM      4  C   UNL     1      44.544   3.505   9.437  0.00  0.00    +0.000 A 
ATOM      5  N   UNL     1      44.721   2.167   9.449  0.00  0.00    +0.000 NA
ATOM      6  C   UNL     1      45.635   1.663   8.585  0.00  0.00    +0.000 A 
ENDROOT
BRANCH   1   8
ATOM      7  N   UNL     1      48.470   2.498   6.454  0.00  0.00    +0.000 N 
ATOM      8  C   UNL     1      47.381   1.773   6.850  0.00  0.00    +0.000 C 
ATOM      9  O   UNL     1      47.243   0.605   6.516  0.00  0.00    +0.000 OA
ATOM     10  H   UNL     1      49.178   1.994   5.934  0.00  0.00    +0.000 HD
ATOM     11  H   UNL     1      48.749   3.356   6.908  0.00  0.00    +0.000 HD
ENDBRANCH   1   8
BRANCH   4  12
ATOM     12  O   UNL     1      43.603   4.073  10.268  0.00  0.00    +0.000 OA
BRANCH  12  13
ATOM     13  C   UNL     1      43.680   3.550  11.599  0.00  0.00    +0.000 C 
BRANCH  13  14
ATOM     14  C   UNL     1      44.866   4.149  12.321  0.00  0.00    +0.000 A 
ATOM     15  N   UNL     1      45.714   3.265  12.925  0.00  0.00    +0.000 NA
ATOM     16  C   UNL     1      46.775   3.766  13.594  0.00  0.00    +0.000 A 
ATOM     17  C   UNL     1      47.050   5.118  13.694  0.00  0.00    +0.000 A 
ATOM     18  C   UNL     1      46.178   6.013  13.082  0.00  0.00    +0.000 A 
ATOM     19  C   UNL     1      45.067   5.531  12.389  0.00  0.00    +0.000 A 
ATOM     20 CL   UNL     1      43.991   6.675  11.677  0.00  0.00    +0.000 Cl
ENDBRANCH  13  14
ENDBRANCH  12  13
ENDBRANCH   4  12
TORSDOF 4
ENDMDL
MODEL 3
REMARK VINA RESULT:    -6.736      1.222      1.524
REMARK INTER + INTRA:          -8.912
REMARK INTER:                  -8.686
REMARK INTRA:                  -0.225
REMARK UNBOUND:                -0.601
REMARK  Name = 
REMARK  4 active torsions:
REMARK  status: ('A' for Active; 'I' for Inactive)
REMARK    1  A    between atoms: C_2  and  C_4
REMARK    2  A    between atoms: C_7  and  O_8
REMARK    3  A    between atoms: O_8  and  C_9
REMARK    4  A    between atoms: C_9  and  C_10
REMARK                            x       y       z     vdW  Elec       q    Type
REMARK                         _______ _______ _______ _____ _____    ______ ____
ROOT
ATOM      1  C   UNL     1      46.661   2.552   7.332  0.00  0.00    +0.000 A 
ATOM      2  C   UNL     1      46.207   3.857   7.546  0.00  0.00    +0.000 A 
ATOM      3  C   UNL     1      45.214   4.086   8.501  0.00  0.00    +0.000 A 
ATOM      4  C   UNL     1      44.733   3.003   9.223  0.00  0.00    +0.000 A 
ATOM      5  N   UNL     1      45.145   1.732   9.031  0.00  0.00    +0.000 NA
ATOM      6  C   UNL     1      46.087   1.533   8.077  0.00  0.00    +0.000 A 
ENDROOT
BRANCH   1   8
ATOM      7  N   UNL     1      48.986   2.534   6.625  0.00  0.00    +0.000 N 
ATOM      8  C   UNL     1      47.691   2.207   6.333  0.00  0.00    +0.000 C 
ATOM      9  O   UNL     1      47.405   1.616   5.300  0.00  0.00    +0.000 OA
ATOM     10  H   UNL     1      49.688   2.199   5.977  0.00  0.00    +0.000 HD
ATOM     11  H   UNL     1      49.289   2.778   7.557  0.00  0.00    +0.000 HD
ENDBRANCH   1   8
BRANCH   4  12
ATOM     12  O   UNL     1      43.752   3.265  10.155  0.00  0.00    +0.000 OA
BRANCH  12  13
ATOM     13  C   UNL     1      44.274   3.289  11.489  0.00  0.00    +0.000 C 
BRANCH  13  14
ATOM     14  C   UNL     1      44.711   4.692  11.846  0.00  0.00    +0.000 A 
ATOM     15  N   UNL     1      44.014   5.709  11.257  0.00  0.00    +0.000 NA
ATOM     16  C   UNL     1      44.389   6.975  11.539  0.00  0.00    +0.000 A 
ATOM     17  C   UNL     1      45.429   7.295  12.394  0.00  0.00    +0.000 A 
ATOM     18  C   UNL     1      46.138   6.254  12.985  0.00  0.00    +0.000 A 
ATOM     19  C   UNL     1      45.784   4.933  12.709  0.00  0.00    +0.000 A 
ATOM     20 CL   UNL     1      46.711   3.672  13.433  0.00  0.00    +0.000 Cl
ENDBRANCH  13  14
ENDBRANCH  12  13
ENDBRANCH   4  12
TORSDOF 4
ENDMDL
MODEL 4
REMARK VINA RESULT:    -6.446      2.611      5.811
REMARK INTER + INTRA:          -8.554
REMARK INTER:                  -8.224
REMARK INTRA:                  -0.331
REMARK UNBOUND:                -0.601
REMARK  Name = 
REMARK  4 active torsions:
REMARK  status: ('A' for Active; 'I' for Inactive)
REMARK    1  A    between atoms: C_2  and  C_4
REMARK    2  A    between atoms: C_7  and  O_8
REMARK    3  A    between atoms: O_8  and  C_9
REMARK    4  A    between atoms: C_9  and  C_10
REMARK                            x       y       z     vdW  Elec       q    Type
REMARK                         _______ _______ _______ _____ _____    ______ ____
ROOT
ATOM      1  C   UNL     1      46.568   4.576  13.398  0.00  0.00    +0.000 A 
ATOM      2  C   UNL     1      46.859   5.796  12.781  0.00  0.00    +0.000 A 
ATOM      3  C   UNL     1      46.284   6.088  11.542  0.00  0.00    +0.000 A 
ATOM      4  C   UNL     1      45.419   5.158  10.982  0.00  0.00    +0.000 A 
ATOM      5  N   UNL     1      45.129   3.968  11.550  0.00  0.00    +0.000 NA
ATOM      6  C   UNL     1      45.724   3.697  12.737  0.00  0.00    +0.000 A 
ENDROOT
BRANCH   1   8
ATOM      7  N   UNL     1      47.153   5.098  15.698  0.00  0.00    +0.000 N 
ATOM      8  C   UNL     1      47.142   4.168  14.696  0.00  0.00    +0.000 C 
ATOM      9  O   UNL     1      47.554   3.032  14.882  0.00  0.00    +0.000 OA
ATOM     10  H   UNL     1      47.455   4.771  16.608  0.00  0.00    +0.000 HD
ATOM     11  H   UNL     1      46.597   5.941  15.667  0.00  0.00    +0.000 HD
ENDBRANCH   1   8
BRANCH   4  12
ATOM     12  O   UNL     1      44.873   5.477   9.758  0.00  0.00    +0.000 OA
BRANCH  12  13
ATOM     13  C   UNL     1      44.384   4.318   9.072  0.00  0.00    +0.000 C 
BRANCH  13  14
ATOM     14  C   UNL     1      45.511   3.657   8.310  0.00  0.00    +0.000 A 
ATOM     15  N   UNL     1      46.346   4.492   7.623  0.00  0.00    +0.000 NA
ATOM     16  C   UNL     1      47.353   3.935   6.916  0.00  0.00    +0.000 A 
ATOM     17  C   UNL     1      47.585   2.572   6.857  0.00  0.00    +0.000 A 
ATOM     18  C   UNL     1      46.727   1.728   7.553  0.00  0.00    +0.000 A 
ATOM     19  C   UNL     1      45.670   2.269   8.287  0.00  0.00    +0.000 A 
ATOM     20 CL   UNL     1      44.607   1.185   9.105  0.00  0.00    +0.000 Cl
ENDBRANCH  13  14
ENDBRANCH  12  13
ENDBRANCH   4  12
TORSDOF 4
ENDMDL
MODEL 5
REMARK VINA RESULT:    -6.429      2.791      6.193
REMARK INTER + INTRA:          -8.534
REMARK INTER:                  -8.069
REMARK INTRA:                  -0.464
REMARK UNBOUND:                -0.601
REMARK  Name = 
REMARK  4 active torsions:
REMARK  status: ('A' for Active; 'I' for Inactive)
REMARK    1  A    between atoms: C_2  and  C_4
REMARK    2  A    between atoms: C_7  and  O_8
REMARK    3  A    between atoms: O_8  and  C_9
REMARK    4  A    between atoms: C_9  and  C_10
REMARK                            x       y       z     vdW  Elec       q    Type
REMARK                         _______ _______ _______ _____ _____    ______ ____
ROOT
ATOM      1  C   UNL     1      46.720   5.386  13.253  0.00  0.00    +0.000 A 
ATOM      2  C   UNL     1      45.946   5.844  12.183  0.00  0.00    +0.000 A 
ATOM      3  C   UNL     1      45.196   4.927  11.443  0.00  0.00    +0.000 A 
ATOM      4  C   UNL     1      45.231   3.591  11.820  0.00  0.00    +0.000 A 
ATOM      5  N   UNL     1      45.978   3.120  12.840  0.00  0.00    +0.000 NA
ATOM      6  C   UNL     1      46.720   4.026  13.523  0.00  0.00    +0.000 A 
ENDROOT
BRANCH   1   8
ATOM      7  N   UNL     1      47.279   7.610  14.056  0.00  0.00    +0.000 N 
ATOM      8  C   UNL     1      47.562   6.273  14.081  0.00  0.00    +0.000 C 
ATOM      9  O   UNL     1      48.451   5.827  14.793  0.00  0.00    +0.000 OA
ATOM     10  H   UNL     1      47.798   8.189  14.706  0.00  0.00    +0.000 HD
ATOM     11  H   UNL     1      46.410   7.978  13.697  0.00  0.00    +0.000 HD
ENDBRANCH   1   8
BRANCH   4  12
ATOM     12  O   UNL     1      44.481   2.715  11.065  0.00  0.00    +0.000 OA
BRANCH  12  13
ATOM     13  C   UNL     1      44.285   3.193   9.729  0.00  0.00    +0.000 C 
BRANCH  13  14
ATOM     14  C   UNL     1      45.328   2.599   8.809  0.00  0.00    +0.000 A 
ATOM     15  N   UNL     1      45.377   1.235   8.756  0.00  0.00    +0.000 NA
ATOM     16  C   UNL     1      46.309   0.669   7.958  0.00  0.00    +0.000 A 
ATOM     17  C   UNL     1      47.206   1.394   7.193  0.00  0.00    +0.000 A 
ATOM     18  C   UNL     1      47.153   2.782   7.258  0.00  0.00    +0.000 A 
ATOM     19  C   UNL     1      46.209   3.401   8.078  0.00  0.00    +0.000 A 
ATOM     20 CL   UNL     1      46.202   5.123   8.159  0.00  0.00    +0.000 Cl
ENDBRANCH  13  14
ENDBRANCH  12  13
ENDBRANCH   4  12
TORSDOF 4
ENDMDL
MODEL 6
REMARK VINA RESULT:    -6.003      4.632      6.310
REMARK INTER + INTRA:          -8.007
REMARK INTER:                  -7.634
REMARK INTRA:                  -0.373
REMARK UNBOUND:                -0.601
REMARK  Name = 
REMARK  4 active torsions:
REMARK  status: ('A' for Active; 'I' for Inactive)
REMARK    1  A    between atoms: C_2  and  C_4
REMARK    2  A    between atoms: C_7  and  O_8
REMARK    3  A    between atoms: O_8  and  C_9
REMARK    4  A    between atoms: C_9  and  C_10
REMARK                            x       y       z     vdW  Elec       q    Type
REMARK                         _______ _______ _______ _____ _____    ______ ____
ROOT
ATOM      1  C   UNL     1      45.013   4.289  11.750  0.00  0.00    +0.000 A 
ATOM      2  C   UNL     1      45.367   5.592  12.116  0.00  0.00    +0.000 A 
ATOM      3  C   UNL     1      46.241   5.785  13.188  0.00  0.00    +0.000 A 
ATOM      4  C   UNL     1      46.748   4.666  13.835  0.00  0.00    +0.000 A 
ATOM      5  N   UNL     1      46.414   3.399  13.511  0.00  0.00    +0.000 NA
ATOM      6  C   UNL     1      45.540   3.239  12.487  0.00  0.00    +0.000 A 
ENDROOT
BRANCH   1   8
ATOM      7  N   UNL     1      44.069   4.838   9.580  0.00  0.00    +0.000 N 
ATOM      8  C   UNL     1      44.081   3.984  10.647  0.00  0.00    +0.000 C 
ATOM      9  O   UNL     1      43.375   2.984  10.666  0.00  0.00    +0.000 OA
ATOM     10  H   UNL     1      43.500   4.557   8.790  0.00  0.00    +0.000 HD
ATOM     11  H   UNL     1      44.804   5.509   9.410  0.00  0.00    +0.000 HD
ENDBRANCH   1   8
BRANCH   4  12
ATOM     12  O   UNL     1      47.605   4.894  14.889  0.00  0.00    +0.000 OA
BRANCH  12  13
ATOM     13  C   UNL     1      47.349   4.009  15.987  0.00  0.00    +0.000 C 
BRANCH  13  14
ATOM     14  C   UNL     1      48.656   3.525  16.574  0.00  0.00    +0.000 A 
ATOM     15  N   UNL     1      49.062   2.276  16.196  0.00  0.00    +0.000 NA
ATOM     16  C   UNL     1      50.215   1.805  16.716  0.00  0.00    +0.000 A 
ATOM     17  C   UNL     1      51.007   2.518  17.599  0.00  0.00    +0.000 A 
ATOM     18  C   UNL     1      50.584   3.785  17.984  0.00  0.00    +0.000 A 
ATOM     19  C   UNL     1      49.392   4.301  17.474  0.00  0.00    +0.000 A 
ATOM     20 CL   UNL     1      48.885   5.861  18.006  0.00  0.00    +0.000 Cl
ENDBRANCH  13  14
ENDBRANCH  12  13
ENDBRANCH   4  12
TORSDOF 4
ENDMDL
MODEL 7
REMARK VINA RESULT:    -5.971      3.006      6.196
REMARK INTER + INTRA:          -7.968
REMARK INTER:                  -7.668
REMARK INTRA:                  -0.300
REMARK UNBOUND:                -0.601
REMARK  Name = 
REMARK  4 active torsions:
REMARK  status: ('A' for Active; 'I' for Inactive)
REMARK    1  A    between atoms: C_2  and  C_4
REMARK    2  A    between atoms: C_7  and  O_8
REMARK    3  A    between atoms: O_8  and  C_9
REMARK    4  A    between atoms: C_9  and  C_10
REMARK                            x       y       z     vdW  Elec       q    Type
REMARK                         _______ _______ _______ _____ _____    ______ ____
ROOT
ATOM      1  C   UNL     1      47.344   5.192  14.677  0.00  0.00    +0.000 A 
ATOM      2  C   UNL     1      46.290   4.490  14.084  0.00  0.00    +0.000 A 
ATOM      3  C   UNL     1      45.822   4.894  12.832  0.00  0.00    +0.000 A 
ATOM      4  C   UNL     1      46.445   5.967  12.210  0.00  0.00    +0.000 A 
ATOM      5  N   UNL     1      47.456   6.669  12.763  0.00  0.00    +0.000 NA
ATOM      6  C   UNL     1      47.872   6.277  13.992  0.00  0.00    +0.000 A 
ENDROOT
BRANCH   1   8
ATOM      7  N   UNL     1      47.928   5.852  16.941  0.00  0.00    +0.000 N 
ATOM      8  C   UNL     1      47.894   4.856  16.005  0.00  0.00    +0.000 C 
ATOM      9  O   UNL     1      48.268   3.722  16.273  0.00  0.00    +0.000 OA
ATOM     10  H   UNL     1      48.211   5.578  17.875  0.00  0.00    +0.000 HD
ATOM     11  H   UNL     1      47.399   6.707  16.847  0.00  0.00    +0.000 HD
ENDBRANCH   1   8
BRANCH   4  12
ATOM     12  O   UNL     1      45.955   6.339  10.977  0.00  0.00    +0.000 OA
BRANCH  12  13
ATOM     13  C   UNL     1      44.807   5.569  10.603  0.00  0.00    +0.000 C 
BRANCH  13  14
ATOM     14  C   UNL     1      45.201   4.506   9.602  0.00  0.00    +0.000 A 
ATOM     15  N   UNL     1      45.975   4.922   8.556  0.00  0.00    +0.000 NA
ATOM     16  C   UNL     1      46.331   4.003   7.633  0.00  0.00    +0.000 A 
ATOM     17  C   UNL     1      45.962   2.671   7.693  0.00  0.00    +0.000 A 
ATOM     18  C   UNL     1      45.168   2.257   8.758  0.00  0.00    +0.000 A 
ATOM     19  C   UNL     1      44.774   3.182   9.726  0.00  0.00    +0.000 A 
ATOM     20 CL   UNL     1      43.759   2.635  11.009  0.00  0.00    +0.000 Cl
ENDBRANCH  13  14
ENDBRANCH  12  13
ENDBRANCH   4  12
TORSDOF 4
ENDMDL
MODEL 8
REMARK VINA RESULT:    -5.762      2.469      6.101
REMARK INTER + INTRA:          -7.710
REMARK INTER:                  -7.636
REMARK INTRA:                  -0.073
REMARK UNBOUND:                -0.601
REMARK  Name = 
REMARK  4 active torsions:
REMARK  status: ('A' for Active; 'I' for Inactive)
REMARK    1  A    between atoms: C_2  and  C_4
REMARK    2  A    between atoms: C_7  and  O_8
REMARK    3  A    between atoms: O_8  and  C_9
REMARK    4  A    between atoms: C_9  and  C_10
REMARK                            x       y       z     vdW  Elec       q    Type
REMARK                         _______ _______ _______ _____ _____    ______ ____
ROOT
ATOM      1  C   UNL     1      46.008   5.769  12.305  0.00  0.00    +0.000 A 
ATOM      2  C   UNL     1      45.347   4.582  12.634  0.00  0.00    +0.000 A 
ATOM      3  C   UNL     1      44.809   3.795  11.613  0.00  0.00    +0.000 A 
ATOM      4  C   UNL     1      44.976   4.215  10.301  0.00  0.00    +0.000 A 
ATOM      5  N   UNL     1      45.599   5.361   9.955  0.00  0.00    +0.000 NA
ATOM      6  C   UNL     1      46.085   6.122  10.966  0.00  0.00    +0.000 A 
ENDROOT
BRANCH   1   8
ATOM      7  N   UNL     1      47.401   6.123  14.264  0.00  0.00    +0.000 N 
ATOM      8  C   UNL     1      46.591   6.677  13.312  0.00  0.00    +0.000 C 
ATOM      9  O   UNL     1      46.392   7.884  13.275  0.00  0.00    +0.000 OA
ATOM     10  H   UNL     1      47.873   6.772  14.882  0.00  0.00    +0.000 HD
ATOM     11  H   UNL     1      47.792   5.196  14.175  0.00  0.00    +0.000 HD
ENDBRANCH   1   8
BRANCH   4  12
ATOM     12  O   UNL     1      44.429   3.416   9.319  0.00  0.00    +0.000 OA
BRANCH  12  13
ATOM     13  C   UNL     1      45.213   2.239   9.091  0.00  0.00    +0.000 C 
BRANCH  13  14
ATOM     14  C   UNL     1      46.044   2.407   7.839  0.00  0.00    +0.000 A 
ATOM     15  N   UNL     1      46.069   3.660   7.296  0.00  0.00    +0.000 NA
ATOM     16  C   UNL     1      46.787   3.843   6.167  0.00  0.00    +0.000 A 
ATOM     17  C   UNL     1      47.499   2.836   5.540  0.00  0.00    +0.000 A 
ATOM     18  C   UNL     1      47.464   1.562   6.095  0.00  0.00    +0.000 A 
ATOM     19  C   UNL     1      46.724   1.334   7.257  0.00  0.00    +0.000 A 
ATOM     20 CL   UNL     1      46.676  -0.268   7.891  0.00  0.00    +0.000 Cl
ENDBRANCH  13  14
ENDBRANCH  12  13
ENDBRANCH   4  12
TORSDOF 4
ENDMDL
MODEL 9
REMARK VINA RESULT:    -5.578      5.415      8.175
REMARK INTER + INTRA:          -7.483
REMARK INTER:                  -7.175
REMARK INTRA:                  -0.308
REMARK UNBOUND:                -0.601
REMARK  Name = 
REMARK  4 active torsions:
REMARK  status: ('A' for Active; 'I' for Inactive)
REMARK    1  A    between atoms: C_2  and  C_4
REMARK    2  A    between atoms: C_7  and  O_8
REMARK    3  A    between atoms: O_8  and  C_9
REMARK    4  A    between atoms: C_9  and  C_10
REMARK                            x       y       z     vdW  Elec       q    Type
REMARK                         _______ _______ _______ _____ _____    ______ ____
ROOT
ATOM      1  C   UNL     1      48.998   4.823  18.055  0.00  0.00    +0.000 A 
ATOM      2  C   UNL     1      48.255   3.642  18.133  0.00  0.00    +0.000 A 
ATOM      3  C   UNL     1      47.487   3.246  17.035  0.00  0.00    +0.000 A 
ATOM      4  C   UNL     1      47.515   4.036  15.893  0.00  0.00    +0.000 A 
ATOM      5  N   UNL     1      48.213   5.186  15.795  0.00  0.00    +0.000 NA
ATOM      6  C   UNL     1      48.926   5.563  16.885  0.00  0.00    +0.000 A 
ENDROOT
BRANCH   1   8
ATOM      7  N   UNL     1      50.471   4.415  19.944  0.00  0.00    +0.000 N 
ATOM      8  C   UNL     1      49.823   5.335  19.168  0.00  0.00    +0.000 C 
ATOM      9  O   UNL     1      49.954   6.535  19.365  0.00  0.00    +0.000 OA
ATOM     10  H   UNL     1      51.112   4.786  20.636  0.00  0.00    +0.000 HD
ATOM     11  H   UNL     1      50.597   3.454  19.660  0.00  0.00    +0.000 HD
ENDBRANCH   1   8
BRANCH   4  12
ATOM     12  O   UNL     1      46.743   3.617  14.831  0.00  0.00    +0.000 OA
BRANCH  12  13
ATOM     13  C   UNL     1      46.740   4.573  13.764  0.00  0.00    +0.000 C 
BRANCH  13  14
ATOM     14  C   UNL     1      45.430   4.501  13.010  0.00  0.00    +0.000 A 
ATOM     15  N   UNL     1      44.948   3.247  12.760  0.00  0.00    +0.000 NA
ATOM     16  C   UNL     1      43.789   3.145  12.073  0.00  0.00    +0.000 A 
ATOM     17  C   UNL     1      43.067   4.235  11.620  0.00  0.00    +0.000 A 
ATOM     18  C   UNL     1      43.568   5.507  11.873  0.00  0.00    +0.000 A 
ATOM     19  C   UNL     1      44.768   5.650  12.573  0.00  0.00    +0.000 A 
ATOM     20 CL   UNL     1      45.373   7.243  12.833  0.00  0.00    +0.000 Cl
ENDBRANCH  13  14
ENDBRANCH  12  13
ENDBRANCH   4  12
TORSDOF 4
ENDMDL
