MODEL 1
REMARK VINA RESULT:    -8.711      0.000      0.000
REMARK INTER + INTRA:         -12.420
REMARK INTER:                 -11.258
REMARK INTRA:                  -1.162
REMARK UNBOUND:                -1.162
REMARK  Name = 
REMARK  5 active torsions:
REMARK  status: ('A' for Active; 'I' for Inactive)
REMARK    1  A    between atoms: C_2  and  C_3
REMARK    2  A    between atoms: C_8  and  N_9
REMARK    3  A    between atoms: N_9  and  C_10
REMARK    4  A    between atoms: C_10  and  C_11
REMARK    5  A    between atoms: C_15  and  C_16
REMARK                            x       y       z     vdW  Elec       q    Type
REMARK                         _______ _______ _______ _____ _____    ______ ____
ROOT
ATOM      1  C   UNL     1      43.885   5.191  11.033  0.00  0.00    +0.000 A 
ATOM      2  C   UNL     1      43.115   4.264  11.720  0.00  0.00    +0.000 A 
ATOM      3  N   UNL     1      43.109   2.943  11.444  0.00  0.00    +0.000 NA
ATOM      4  C   UNL     1      43.909   2.525  10.430  0.00  0.00    +0.000 A 
ATOM      5  C   UNL     1      44.736   3.348   9.662  0.00  0.00    +0.000 A 
ATOM      6  C   UNL     1      44.707   4.710  10.004  0.00  0.00    +0.000 A 
ENDROOT
BRANCH   5   7
ATOM      7  C   UNL     1      45.571   2.837   8.551  0.00  0.00    +0.000 A 
ATOM      8  C   UNL     1      46.061   3.686   7.538  0.00  0.00    +0.000 A 
ATOM      9  C   UNL     1      46.867   3.202   6.499  0.00  0.00    +0.000 A 
ATOM     10  C   UNL     1      47.211   1.856   6.455  0.00  0.00    +0.000 A 
ATOM     11  C   UNL     1      46.741   1.007   7.444  0.00  0.00    +0.000 A 
ATOM     12  F   UNL     1      47.072  -0.291   7.413  0.00  0.00    +0.000 F 
ATOM     13  C   UNL     1      45.928   1.478   8.473  0.00  0.00    +0.000 A 
ENDBRANCH   5   7
BRANCH   1  14
ATOM     14  C   UNL     1      43.809   6.661  11.345  0.00  0.00    +0.000 C 
BRANCH  14  15
ATOM     15  N   UNL     1      44.547   6.979  12.557  0.00  0.00    +0.000 N 
ATOM     16  H   UNL     1      44.135   6.601  13.407  0.00  0.00    +0.000 HD
BRANCH  15  22
ATOM     17  C   UNL     1      46.901   6.140  12.901  0.00  0.00    +0.000 A 
ATOM     18  C   UNL     1      48.281   6.424  12.808  0.00  0.00    +0.000 A 
ATOM     19  C   UNL     1      48.730   7.681  12.420  0.00  0.00    +0.000 A 
ATOM     20  C   UNL     1      47.805   8.669  12.126  0.00  0.00    +0.000 A 
ATOM     21  C   UNL     1      46.433   8.394  12.216  0.00  0.00    +0.000 A 
ATOM     22  C   UNL     1      45.937   7.133  12.616  0.00  0.00    +0.000 A 
BRANCH  17  24
ATOM     23  N   UNL     1      46.304   3.725  13.639  0.00  0.00    +0.000 NA
ATOM     24  C   UNL     1      46.575   4.807  13.321  0.00  0.00    +0.000 C 
ENDBRANCH  17  24
ENDBRANCH  15  22
ENDBRANCH  14  15
ENDBRANCH   1  14
TORSDOF 5
ENDMDL
MODEL 2
REMARK VINA RESULT:    -8.541      1.015      1.419
REMARK INTER + INTRA:         -12.200
REMARK INTER:                 -11.087
REMARK INTRA:                  -1.112
REMARK UNBOUND:                -1.162
REMARK  Name = 
REMARK  5 active torsions:
REMARK  status: ('A' for Active; 'I' for Inactive)
REMARK    1  A    between atoms: C_2  and  C_3
REMARK    2  A    between atoms: C_8  and  N_9
REMARK    3  A    between atoms: N_9  and  C_10
REMARK    4  A    between atoms: C_10  and  C_11
REMARK    5  A    between atoms: C_15  and  C_16
REMARK                            x       y       z     vdW  Elec       q    Type
REMARK                         _______ _______ _______ _____ _____    ______ ____
ROOT
ATOM      1  C   UNL     1      43.932   5.013  11.006  0.00  0.00    +0.000 A 
ATOM      2  C   UNL     1      43.177   4.058  11.669  0.00  0.00    +0.000 A 
ATOM      3  N   UNL     1      43.186   2.745  11.354  0.00  0.00    +0.000 NA
ATOM      4  C   UNL     1      43.986   2.367  10.325  0.00  0.00    +0.000 A 
ATOM      5  C   UNL     1      44.799   3.222   9.578  0.00  0.00    +0.000 A 
ATOM      6  C   UNL     1      44.755   4.573   9.960  0.00  0.00    +0.000 A 
ENDROOT
BRANCH   5   7
ATOM      7  C   UNL     1      45.635   2.754   8.449  0.00  0.00    +0.000 A 
ATOM      8  C   UNL     1      46.174   1.452   8.414  0.00  0.00    +0.000 A 
ATOM      9  C   UNL     1      46.949   1.005   7.335  0.00  0.00    +0.000 A 
ATOM     10  C   UNL     1      47.193   1.850   6.258  0.00  0.00    +0.000 A 
ATOM     11  C   UNL     1      46.670   3.133   6.274  0.00  0.00    +0.000 A 
ATOM     12  F   UNL     1      46.895   3.952   5.238  0.00  0.00    +0.000 F 
ATOM     13  C   UNL     1      45.909   3.588   7.350  0.00  0.00    +0.000 A 
ENDBRANCH   5   7
BRANCH   1  14
ATOM     14  C   UNL     1      43.840   6.472  11.361  0.00  0.00    +0.000 C 
BRANCH  14  15
ATOM     15  N   UNL     1      44.575   6.763  12.583  0.00  0.00    +0.000 N 
ATOM     16  H   UNL     1      44.173   6.346  13.419  0.00  0.00    +0.000 HD
BRANCH  15  22
ATOM     17  C   UNL     1      46.941   5.983  12.982  0.00  0.00    +0.000 A 
ATOM     18  C   UNL     1      48.315   6.287  12.886  0.00  0.00    +0.000 A 
ATOM     19  C   UNL     1      48.746   7.532  12.442  0.00  0.00    +0.000 A 
ATOM     20  C   UNL     1      47.806   8.489  12.096  0.00  0.00    +0.000 A 
ATOM     21  C   UNL     1      46.439   8.193  12.189  0.00  0.00    +0.000 A 
ATOM     22  C   UNL     1      45.962   6.945  12.644  0.00  0.00    +0.000 A 
BRANCH  17  24
ATOM     23  N   UNL     1      46.387   3.593  13.828  0.00  0.00    +0.000 NA
ATOM     24  C   UNL     1      46.634   4.665  13.462  0.00  0.00    +0.000 C 
ENDBRANCH  17  24
ENDBRANCH  15  22
ENDBRANCH  14  15
ENDBRANCH   1  14
TORSDOF 5
ENDMDL
MODEL 3
REMARK VINA RESULT:    -8.223      1.025      2.234
REMARK INTER + INTRA:         -11.789
REMARK INTER:                 -10.915
REMARK INTRA:                  -0.874
REMARK UNBOUND:                -1.162
REMARK  Name = 
REMARK  5 active torsions:
REMARK  status: ('A' for Active; 'I' for Inactive)
REMARK    1  A    between atoms: C_2  and  C_3
REMARK    2  A    between atoms: C_8  and  N_9
REMARK    3  A    between atoms: N_9  and  C_10
REMARK    4  A    between atoms: C_10  and  C_11
REMARK    5  A    between atoms: C_15  and  C_16
REMARK                            x       y       z     vdW  Elec       q    Type
REMARK                         _______ _______ _______ _____ _____    ______ ____
ROOT
ATOM      1  C   UNL     1      43.719   5.053  11.057  0.00  0.00    +0.000 A 
ATOM      2  C   UNL     1      43.046   4.076  11.776  0.00  0.00    +0.000 A 
ATOM      3  N   UNL     1      43.141   2.755  11.516  0.00  0.00    +0.000 NA
ATOM      4  C   UNL     1      43.947   2.389  10.487  0.00  0.00    +0.000 A 
ATOM      5  C   UNL     1      44.683   3.266   9.687  0.00  0.00    +0.000 A 
ATOM      6  C   UNL     1      44.551   4.626  10.013  0.00  0.00    +0.000 A 
ENDROOT
BRANCH   5   7
ATOM      7  C   UNL     1      45.529   2.809   8.561  0.00  0.00    +0.000 A 
ATOM      8  C   UNL     1      45.990   3.698   7.569  0.00  0.00    +0.000 A 
ATOM      9  C   UNL     1      46.806   3.266   6.515  0.00  0.00    +0.000 A 
ATOM     10  C   UNL     1      47.190   1.933   6.434  0.00  0.00    +0.000 A 
ATOM     11  C   UNL     1      46.748   1.044   7.402  0.00  0.00    +0.000 A 
ATOM     12  F   UNL     1      47.117  -0.242   7.336  0.00  0.00    +0.000 F 
ATOM     13  C   UNL     1      45.925   1.464   8.445  0.00  0.00    +0.000 A 
ENDBRANCH   5   7
BRANCH   1  14
ATOM     14  C   UNL     1      43.530   6.515  11.353  0.00  0.00    +0.000 C 
BRANCH  14  15
ATOM     15  N   UNL     1      44.407   6.951  12.430  0.00  0.00    +0.000 N 
ATOM     16  H   UNL     1      44.346   6.382  13.271  0.00  0.00    +0.000 HD
BRANCH  15  22
ATOM     17  C   UNL     1      45.938   8.935  12.141  0.00  0.00    +0.000 A 
ATOM     18  C   UNL     1      47.270   9.395  12.061  0.00  0.00    +0.000 A 
ATOM     19  C   UNL     1      48.339   8.508  12.088  0.00  0.00    +0.000 A 
ATOM     20  C   UNL     1      48.089   7.150  12.189  0.00  0.00    +0.000 A 
ATOM     21  C   UNL     1      46.769   6.685  12.270  0.00  0.00    +0.000 A 
ATOM     22  C   UNL     1      45.655   7.553  12.235  0.00  0.00    +0.000 A 
BRANCH  17  24
ATOM     23  N   UNL     1      44.121  10.784  12.033  0.00  0.00    +0.000 NA
ATOM     24  C   UNL     1      44.931   9.955  12.093  0.00  0.00    +0.000 C 
ENDBRANCH  17  24
ENDBRANCH  15  22
ENDBRANCH  14  15
ENDBRANCH   1  14
TORSDOF 5
ENDMDL
MODEL 4
REMARK VINA RESULT:    -7.701      1.561      2.061
REMARK INTER + INTRA:         -11.115
REMARK INTER:                 -10.216
REMARK INTRA:                  -0.899
REMARK UNBOUND:                -1.162
REMARK  Name = 
REMARK  5 active torsions:
REMARK  status: ('A' for Active; 'I' for Inactive)
REMARK    1  A    between atoms: C_2  and  C_3
REMARK    2  A    between atoms: C_8  and  N_9
REMARK    3  A    between atoms: N_9  and  C_10
REMARK    4  A    between atoms: C_10  and  C_11
REMARK    5  A    between atoms: C_15  and  C_16
REMARK                            x       y       z     vdW  Elec       q    Type
REMARK                         _______ _______ _______ _____ _____    ______ ____
ROOT
ATOM      1  C   UNL     1      45.232   6.148  11.108  0.00  0.00    +0.000 A 
ATOM      2  C   UNL     1      43.865   6.009  11.293  0.00  0.00    +0.000 A 
ATOM      3  N   UNL     1      43.108   5.107  10.633  0.00  0.00    +0.000 NA
ATOM      4  C   UNL     1      43.746   4.305   9.743  0.00  0.00    +0.000 A 
ATOM      5  C   UNL     1      45.114   4.337   9.465  0.00  0.00    +0.000 A 
ATOM      6  C   UNL     1      45.850   5.288  10.190  0.00  0.00    +0.000 A 
ENDROOT
BRANCH   5   7
ATOM      7  C   UNL     1      45.751   3.450   8.464  0.00  0.00    +0.000 A 
ATOM      8  C   UNL     1      46.341   3.959   7.289  0.00  0.00    +0.000 A 
ATOM      9  C   UNL     1      46.960   3.120   6.353  0.00  0.00    +0.000 A 
ATOM     10  C   UNL     1      47.013   1.749   6.577  0.00  0.00    +0.000 A 
ATOM     11  C   UNL     1      46.441   1.230   7.728  0.00  0.00    +0.000 A 
ATOM     12  F   UNL     1      46.492  -0.089   7.955  0.00  0.00    +0.000 F 
ATOM     13  C   UNL     1      45.812   2.058   8.656  0.00  0.00    +0.000 A 
ENDBRANCH   5   7
BRANCH   1  14
ATOM     14  C   UNL     1      46.018   7.211  11.828  0.00  0.00    +0.000 C 
BRANCH  14  15
ATOM     15  N   UNL     1      47.297   6.695  12.292  0.00  0.00    +0.000 N 
ATOM     16  H   UNL     1      48.102   7.080  11.804  0.00  0.00    +0.000 HD
BRANCH  15  22
ATOM     17  C   UNL     1      47.255   5.068  14.220  0.00  0.00    +0.000 A 
ATOM     18  C   UNL     1      47.689   4.783  15.532  0.00  0.00    +0.000 A 
ATOM     19  C   UNL     1      48.438   5.702  16.257  0.00  0.00    +0.000 A 
ATOM     20  C   UNL     1      48.757   6.920  15.679  0.00  0.00    +0.000 A 
ATOM     21  C   UNL     1      48.329   7.210  14.375  0.00  0.00    +0.000 A 
ATOM     22  C   UNL     1      47.558   6.307  13.611  0.00  0.00    +0.000 A 
BRANCH  17  24
ATOM     23  N   UNL     1      45.855   3.215  13.062  0.00  0.00    +0.000 NA
ATOM     24  C   UNL     1      46.483   4.036  13.589  0.00  0.00    +0.000 C 
ENDBRANCH  17  24
ENDBRANCH  15  22
ENDBRANCH  14  15
ENDBRANCH   1  14
TORSDOF 5
ENDMDL
MODEL 5
REMARK VINA RESULT:    -7.590      1.485      2.131
REMARK INTER + INTRA:         -10.971
REMARK INTER:                 -10.291
REMARK INTRA:                  -0.680
REMARK UNBOUND:                -1.162
REMARK  Name = 
REMARK  5 active torsions:
REMARK  status: ('A' for Active; 'I' for Inactive)
REMARK    1  A    between atoms: C_2  and  C_3
REMARK    2  A    between atoms: C_8  and  N_9
REMARK    3  A    between atoms: N_9  and  C_10
REMARK    4  A    between atoms: C_10  and  C_11
REMARK    5  A    between atoms: C_15  and  C_16
REMARK                            x       y       z     vdW  Elec       q    Type
REMARK                         _______ _______ _______ _____ _____    ______ ____
ROOT
ATOM      1  C   UNL     1      43.948   5.087  11.053  0.00  0.00    +0.000 A 
ATOM      2  C   UNL     1      43.192   4.141  11.729  0.00  0.00    +0.000 A 
ATOM      3  N   UNL     1      43.185   2.827  11.419  0.00  0.00    +0.000 NA
ATOM      4  C   UNL     1      43.970   2.437  10.383  0.00  0.00    +0.000 A 
ATOM      5  C   UNL     1      44.782   3.282   9.623  0.00  0.00    +0.000 A 
ATOM      6  C   UNL     1      44.755   4.635   9.999  0.00  0.00    +0.000 A 
ENDROOT
BRANCH   5   7
ATOM      7  C   UNL     1      45.600   2.801   8.486  0.00  0.00    +0.000 A 
ATOM      8  C   UNL     1      46.126   1.493   8.450  0.00  0.00    +0.000 A 
ATOM      9  C   UNL     1      46.884   1.035   7.364  0.00  0.00    +0.000 A 
ATOM     10  C   UNL     1      47.125   1.873   6.282  0.00  0.00    +0.000 A 
ATOM     11  C   UNL     1      46.615   3.161   6.299  0.00  0.00    +0.000 A 
ATOM     12  F   UNL     1      46.837   3.975   5.257  0.00  0.00    +0.000 F 
ATOM     13  C   UNL     1      45.871   3.628   7.381  0.00  0.00    +0.000 A 
ENDBRANCH   5   7
BRANCH   1  14
ATOM     14  C   UNL     1      43.873   6.548  11.402  0.00  0.00    +0.000 C 
BRANCH  14  15
ATOM     15  N   UNL     1      44.908   6.914  12.357  0.00  0.00    +0.000 N 
ATOM     16  H   UNL     1      45.406   6.120  12.755  0.00  0.00    +0.000 HD
BRANCH  15  22
ATOM     17  C   UNL     1      47.069   8.215  12.416  0.00  0.00    +0.000 A 
ATOM     18  C   UNL     1      47.704   9.458  12.204  0.00  0.00    +0.000 A 
ATOM     19  C   UNL     1      46.973  10.586  11.849  0.00  0.00    +0.000 A 
ATOM     20  C   UNL     1      45.599  10.485  11.707  0.00  0.00    +0.000 A 
ATOM     21  C   UNL     1      44.962   9.254  11.916  0.00  0.00    +0.000 A 
ATOM     22  C   UNL     1      45.667   8.088  12.288  0.00  0.00    +0.000 A 
BRANCH  17  24
ATOM     23  N   UNL     1      48.625   6.254  13.099  0.00  0.00    +0.000 NA
ATOM     24  C   UNL     1      47.938   7.136  12.786  0.00  0.00    +0.000 C 
ENDBRANCH  17  24
ENDBRANCH  15  22
ENDBRANCH  14  15
ENDBRANCH   1  14
TORSDOF 5
ENDMDL
MODEL 6
REMARK VINA RESULT:    -7.179      3.223      6.959
REMARK INTER + INTRA:         -10.439
REMARK INTER:                  -9.917
REMARK INTRA:                  -0.523
REMARK UNBOUND:                -1.162
REMARK  Name = 
REMARK  5 active torsions:
REMARK  status: ('A' for Active; 'I' for Inactive)
REMARK    1  A    between atoms: C_2  and  C_3
REMARK    2  A    between atoms: C_8  and  N_9
REMARK    3  A    between atoms: N_9  and  C_10
REMARK    4  A    between atoms: C_10  and  C_11
REMARK    5  A    between atoms: C_15  and  C_16
REMARK                            x       y       z     vdW  Elec       q    Type
REMARK                         _______ _______ _______ _____ _____    ______ ____
ROOT
ATOM      1  C   UNL     1      45.836   5.973  12.274  0.00  0.00    +0.000 A 
ATOM      2  C   UNL     1      46.794   6.753  11.643  0.00  0.00    +0.000 A 
ATOM      3  N   UNL     1      48.007   7.023  12.171  0.00  0.00    +0.000 NA
ATOM      4  C   UNL     1      48.278   6.489  13.389  0.00  0.00    +0.000 A 
ATOM      5  C   UNL     1      47.409   5.685  14.129  0.00  0.00    +0.000 A 
ATOM      6  C   UNL     1      46.167   5.432  13.524  0.00  0.00    +0.000 A 
ENDROOT
BRANCH   5   7
ATOM      7  C   UNL     1      47.752   5.149  15.467  0.00  0.00    +0.000 A 
ATOM      8  C   UNL     1      48.679   5.795  16.310  0.00  0.00    +0.000 A 
ATOM      9  C   UNL     1      48.987   5.296  17.583  0.00  0.00    +0.000 A 
ATOM     10  C   UNL     1      48.365   4.143  18.047  0.00  0.00    +0.000 A 
ATOM     11  C   UNL     1      47.449   3.496  17.233  0.00  0.00    +0.000 A 
ATOM     12  F   UNL     1      46.840   2.387  17.674  0.00  0.00    +0.000 F 
ATOM     13  C   UNL     1      47.148   3.979  15.961  0.00  0.00    +0.000 A 
ENDBRANCH   5   7
BRANCH   1  14
ATOM     14  C   UNL     1      44.478   5.754  11.667  0.00  0.00    +0.000 C 
BRANCH  14  15
ATOM     15  N   UNL     1      44.564   5.626  10.219  0.00  0.00    +0.000 N 
ATOM     16  H   UNL     1      44.758   6.500   9.736  0.00  0.00    +0.000 HD
BRANCH  15  22
ATOM     17  C   UNL     1      44.656   3.145   9.775  0.00  0.00    +0.000 A 
ATOM     18  C   UNL     1      45.136   2.112   8.942  0.00  0.00    +0.000 A 
ATOM     19  C   UNL     1      45.982   2.387   7.874  0.00  0.00    +0.000 A 
ATOM     20  C   UNL     1      46.362   3.696   7.631  0.00  0.00    +0.000 A 
ATOM     21  C   UNL     1      45.888   4.727   8.455  0.00  0.00    +0.000 A 
ATOM     22  C   UNL     1      45.036   4.488   9.555  0.00  0.00    +0.000 A 
BRANCH  17  24
ATOM     23  N   UNL     1      43.105   2.401  11.719  0.00  0.00    +0.000 NA
ATOM     24  C   UNL     1      43.798   2.722  10.845  0.00  0.00    +0.000 C 
ENDBRANCH  17  24
ENDBRANCH  15  22
ENDBRANCH  14  15
ENDBRANCH   1  14
TORSDOF 5
ENDMDL
MODEL 7
REMARK VINA RESULT:    -7.088      2.657      6.366
REMARK INTER + INTRA:         -10.322
REMARK INTER:                  -9.519
REMARK INTRA:                  -0.804
REMARK UNBOUND:                -1.162
REMARK  Name = 
REMARK  5 active torsions:
REMARK  status: ('A' for Active; 'I' for Inactive)
REMARK    1  A    between atoms: C_2  and  C_3
REMARK    2  A    between atoms: C_8  and  N_9
REMARK    3  A    between atoms: N_9  and  C_10
REMARK    4  A    between atoms: C_10  and  C_11
REMARK    5  A    between atoms: C_15  and  C_16
REMARK                            x       y       z     vdW  Elec       q    Type
REMARK                         _______ _______ _______ _____ _____    ______ ____
ROOT
ATOM      1  C   UNL     1      45.626   5.857  12.202  0.00  0.00    +0.000 A 
ATOM      2  C   UNL     1      46.104   4.891  13.075  0.00  0.00    +0.000 A 
ATOM      3  N   UNL     1      47.361   4.882  13.568  0.00  0.00    +0.000 NA
ATOM      4  C   UNL     1      48.182   5.887  13.170  0.00  0.00    +0.000 A 
ATOM      5  C   UNL     1      47.829   6.922  12.302  0.00  0.00    +0.000 A 
ATOM      6  C   UNL     1      46.507   6.882  11.830  0.00  0.00    +0.000 A 
ENDROOT
BRANCH   5   7
ATOM      7  C   UNL     1      48.779   7.979  11.884  0.00  0.00    +0.000 A 
ATOM      8  C   UNL     1      48.394   9.333  11.803  0.00  0.00    +0.000 A 
ATOM      9  C   UNL     1      49.300  10.333  11.426  0.00  0.00    +0.000 A 
ATOM     10  C   UNL     1      50.618  10.003  11.130  0.00  0.00    +0.000 A 
ATOM     11  C   UNL     1      51.014   8.678  11.207  0.00  0.00    +0.000 A 
ATOM     12  F   UNL     1      52.284   8.350  10.930  0.00  0.00    +0.000 F 
ATOM     13  C   UNL     1      50.116   7.676  11.569  0.00  0.00    +0.000 A 
ENDBRANCH   5   7
BRANCH   1  14
ATOM     14  C   UNL     1      44.234   5.784  11.636  0.00  0.00    +0.000 C 
BRANCH  14  15
ATOM     15  N   UNL     1      44.263   5.562  10.198  0.00  0.00    +0.000 N 
ATOM     16  H   UNL     1      44.313   6.415   9.647  0.00  0.00    +0.000 HD
BRANCH  15  22
ATOM     17  C   UNL     1      44.585   3.084   9.847  0.00  0.00    +0.000 A 
ATOM     18  C   UNL     1      45.172   2.071   9.060  0.00  0.00    +0.000 A 
ATOM     19  C   UNL     1      46.011   2.383   7.997  0.00  0.00    +0.000 A 
ATOM     20  C   UNL     1      46.277   3.713   7.713  0.00  0.00    +0.000 A 
ATOM     21  C   UNL     1      45.697   4.725   8.490  0.00  0.00    +0.000 A 
ATOM     22  C   UNL     1      44.848   4.448   9.584  0.00  0.00    +0.000 A 
BRANCH  17  24
ATOM     23  N   UNL     1      43.088   2.248  11.795  0.00  0.00    +0.000 NA
ATOM     24  C   UNL     1      43.747   2.624  10.917  0.00  0.00    +0.000 C 
ENDBRANCH  17  24
ENDBRANCH  15  22
ENDBRANCH  14  15
ENDBRANCH   1  14
TORSDOF 5
ENDMDL
MODEL 8
REMARK VINA RESULT:    -6.604      3.021      4.647
REMARK INTER + INTRA:          -9.697
REMARK INTER:                  -9.086
REMARK INTRA:                  -0.610
REMARK UNBOUND:                -1.162
REMARK  Name = 
REMARK  5 active torsions:
REMARK  status: ('A' for Active; 'I' for Inactive)
REMARK    1  A    between atoms: C_2  and  C_3
REMARK    2  A    between atoms: C_8  and  N_9
REMARK    3  A    between atoms: N_9  and  C_10
REMARK    4  A    between atoms: C_10  and  C_11
REMARK    5  A    between atoms: C_15  and  C_16
REMARK                            x       y       z     vdW  Elec       q    Type
REMARK                         _______ _______ _______ _____ _____    ______ ____
ROOT
ATOM      1  C   UNL     1      46.954   7.323  13.162  0.00  0.00    +0.000 A 
ATOM      2  C   UNL     1      46.184   8.464  12.987  0.00  0.00    +0.000 A 
ATOM      3  N   UNL     1      45.152   8.545  12.122  0.00  0.00    +0.000 NA
ATOM      4  C   UNL     1      44.873   7.434  11.393  0.00  0.00    +0.000 A 
ATOM      5  C   UNL     1      45.562   6.223  11.473  0.00  0.00    +0.000 A 
ATOM      6  C   UNL     1      46.619   6.196  12.398  0.00  0.00    +0.000 A 
ENDROOT
BRANCH   5   7
ATOM      7  C   UNL     1      45.226   5.050  10.634  0.00  0.00    +0.000 A 
ATOM      8  C   UNL     1      44.481   3.964  11.138  0.00  0.00    +0.000 A 
ATOM      9  C   UNL     1      44.148   2.865  10.335  0.00  0.00    +0.000 A 
ATOM     10  C   UNL     1      44.545   2.831   9.004  0.00  0.00    +0.000 A 
ATOM     11  C   UNL     1      45.276   3.890   8.490  0.00  0.00    +0.000 A 
ATOM     12  F   UNL     1      45.658   3.869   7.206  0.00  0.00    +0.000 F 
ATOM     13  C   UNL     1      45.622   4.980   9.286  0.00  0.00    +0.000 A 
ENDBRANCH   5   7
BRANCH   1  14
ATOM     14  C   UNL     1      48.131   7.306  14.098  0.00  0.00    +0.000 C 
BRANCH  14  15
ATOM     15  N   UNL     1      47.874   6.454  15.250  0.00  0.00    +0.000 N 
ATOM     16  H   UNL     1      47.083   5.826  15.133  0.00  0.00    +0.000 HD
BRANCH  15  22
ATOM     17  C   UNL     1      48.814   4.814  16.920  0.00  0.00    +0.000 A 
ATOM     18  C   UNL     1      49.945   4.391  17.650  0.00  0.00    +0.000 A 
ATOM     19  C   UNL     1      51.145   5.088  17.582  0.00  0.00    +0.000 A 
ATOM     20  C   UNL     1      51.226   6.220  16.788  0.00  0.00    +0.000 A 
ATOM     21  C   UNL     1      50.106   6.646  16.060  0.00  0.00    +0.000 A 
ATOM     22  C   UNL     1      48.867   5.971  16.111  0.00  0.00    +0.000 A 
BRANCH  17  24
ATOM     23  N   UNL     1      46.676   3.371  17.208  0.00  0.00    +0.000 NA
ATOM     24  C   UNL     1      47.638   4.008  17.087  0.00  0.00    +0.000 C 
ENDBRANCH  17  24
ENDBRANCH  15  22
ENDBRANCH  14  15
ENDBRANCH   1  14
TORSDOF 5
ENDMDL
MODEL 9
REMARK VINA RESULT:    -6.371      3.223      4.962
REMARK INTER + INTRA:          -9.395
REMARK INTER:                  -8.660
REMARK INTRA:                  -0.736
REMARK UNBOUND:                -1.162
REMARK  Name = 
REMARK  5 active torsions:
REMARK  status: ('A' for Active; 'I' for Inactive)
REMARK    1  A    between atoms: C_2  and  C_3
REMARK    2  A    between atoms: C_8  and  N_9
REMARK    3  A    between atoms: N_9  and  C_10
REMARK    4  A    between atoms: C_10  and  C_11
REMARK    5  A    between atoms: C_15  and  C_16
REMARK                            x       y       z     vdW  Elec       q    Type
REMARK                         _______ _______ _______ _____ _____    ______ ____
ROOT
ATOM      1  C   UNL     1      47.130   6.928  13.190  0.00  0.00    +0.000 A 
ATOM      2  C   UNL     1      46.343   8.070  13.139  0.00  0.00    +0.000 A 
ATOM      3  N   UNL     1      45.265   8.201  12.337  0.00  0.00    +0.000 NA
ATOM      4  C   UNL     1      44.957   7.142  11.546  0.00  0.00    +0.000 A 
ATOM      5  C   UNL     1      45.659   5.936  11.502  0.00  0.00    +0.000 A 
ATOM      6  C   UNL     1      46.764   5.856  12.365  0.00  0.00    +0.000 A 
ENDROOT
BRANCH   5   7
ATOM      7  C   UNL     1      45.288   4.823  10.599  0.00  0.00    +0.000 A 
ATOM      8  C   UNL     1      44.559   3.706  11.055  0.00  0.00    +0.000 A 
ATOM      9  C   UNL     1      44.193   2.664  10.194  0.00  0.00    +0.000 A 
ATOM     10  C   UNL     1      44.540   2.719   8.849  0.00  0.00    +0.000 A 
ATOM     11  C   UNL     1      45.255   3.810   8.381  0.00  0.00    +0.000 A 
ATOM     12  F   UNL     1      45.589   3.875   7.085  0.00  0.00    +0.000 F 
ATOM     13  C   UNL     1      45.634   4.844   9.235  0.00  0.00    +0.000 A 
ENDBRANCH   5   7
BRANCH   1  14
ATOM     14  C   UNL     1      48.356   6.858  14.060  0.00  0.00    +0.000 C 
BRANCH  14  15
ATOM     15  N   UNL     1      47.999   6.621  15.451  0.00  0.00    +0.000 N 
ATOM     16  H   UNL     1      47.114   7.038  15.730  0.00  0.00    +0.000 HD
BRANCH  15  22
ATOM     17  C   UNL     1      49.398   5.307  17.089  0.00  0.00    +0.000 A 
ATOM     18  C   UNL     1      49.543   4.110  17.822  0.00  0.00    +0.000 A 
ATOM     19  C   UNL     1      48.643   3.062  17.671  0.00  0.00    +0.000 A 
ATOM     20  C   UNL     1      47.591   3.198  16.780  0.00  0.00    +0.000 A 
ATOM     21  C   UNL     1      47.440   4.384  16.049  0.00  0.00    +0.000 A 
ATOM     22  C   UNL     1      48.339   5.467  16.166  0.00  0.00    +0.000 A 
BRANCH  17  24
ATOM     23  N   UNL     1      51.198   7.126  17.524  0.00  0.00    +0.000 NA
ATOM     24  C   UNL     1      50.401   6.304  17.334  0.00  0.00    +0.000 C 
ENDBRANCH  17  24
ENDBRANCH  15  22
ENDBRANCH  14  15
ENDBRANCH   1  14
TORSDOF 5
ENDMDL
