MODEL 1
REMARK VINA RESULT:    -8.628      0.000      0.000
REMARK INTER + INTRA:         -10.658
REMARK INTER:                 -10.645
REMARK INTRA:                  -0.013
REMARK UNBOUND:                -0.013
REMARK  Name = 
REMARK  4 active torsions:
REMARK  status: ('A' for Active; 'I' for Inactive)
REMARK    1  A    between atoms: C_2  and  C_3
REMARK    2  A    between atoms: C_6  and  C_7
REMARK    3  A    between atoms: C_7  and  N_8
REMARK    4  A    between atoms: C_12  and  C_13
REMARK                            x       y       z     vdW  Elec       q    Type
REMARK                         _______ _______ _______ _____ _____    ______ ____
ROOT
ATOM      1  N   UNL     1      44.318   5.198   9.766  0.00  0.00    +0.000 N 
ATOM      2  C   UNL     1      45.028   4.204   9.108  0.00  0.00    +0.000 A 
ATOM      3  C   UNL     1      45.139   2.890   9.528  0.00  0.00    +0.000 A 
ATOM      4  C   UNL     1      45.878   1.978   8.776  0.00  0.00    +0.000 A 
ATOM      5  C   UNL     1      46.475   2.438   7.622  0.00  0.00    +0.000 A 
ATOM      6  N   UNL     1      46.350   3.717   7.206  0.00  0.00    +0.000 NA
ATOM      7  N   UNL     1      45.616   4.592   7.955  0.00  0.00    +0.000 NA
ATOM      8  H   UNL     1      44.462   6.073   9.270  0.00  0.00    +0.000 HD
ENDROOT
BRANCH   5   9
ATOM      9  C   UNL     1      47.308   1.552   6.776  0.00  0.00    +0.000 C 
ATOM     10  N   UNL     1      48.384   2.142   6.172  0.00  0.00    +0.000 N 
ATOM     11  O   UNL     1      47.056   0.358   6.627  0.00  0.00    +0.000 OA
ATOM     12  H   UNL     1      48.580   3.128   6.309  0.00  0.00    +0.000 HD
ATOM     13  H   UNL     1      48.996   1.582   5.595  0.00  0.00    +0.000 HD
ENDBRANCH   5   9
BRANCH   1  14
ATOM     14  C   UNL     1      43.908   5.249  11.167  0.00  0.00    +0.000 C 
ATOM     15  C   UNL     1      42.507   5.561  11.656  0.00  0.00    +0.000 C 
ATOM     16  C   UNL     1      42.909   4.135  11.513  0.00  0.00    +0.000 C 
BRANCH  14  20
ATOM     17  C   UNL     1      47.245   6.142  13.826  0.00  0.00    +0.000 A 
ATOM     18  C   UNL     1      46.775   4.832  13.713  0.00  0.00    +0.000 A 
ATOM     19  C   UNL     1      45.705   4.549  12.863  0.00  0.00    +0.000 A 
ATOM     20  C   UNL     1      45.038   5.558  12.143  0.00  0.00    +0.000 A 
ATOM     21  C   UNL     1      45.486   6.873  12.326  0.00  0.00    +0.000 A 
ATOM     22  C   UNL     1      46.596   7.162  13.123  0.00  0.00    +0.000 A 
ATOM     23 CL   UNL     1      47.153   8.795  13.155  0.00  0.00    +0.000 Cl
BRANCH  17  25
ATOM     24  N   UNL     1      49.356   6.549  15.265  0.00  0.00    +0.000 NA
ATOM     25  C   UNL     1      48.396   6.388  14.622  0.00  0.00    +0.000 C 
ENDBRANCH  17  25
ENDBRANCH  14  20
ENDBRANCH   1  14
TORSDOF 4
ENDMDL
MODEL 2
REMARK VINA RESULT:    -8.179      3.753      7.177
REMARK INTER + INTRA:         -10.104
REMARK INTER:                  -9.631
REMARK INTRA:                  -0.473
REMARK UNBOUND:                -0.013
REMARK  Name = 
REMARK  4 active torsions:
REMARK  status: ('A' for Active; 'I' for Inactive)
REMARK    1  A    between atoms: C_2  and  C_3
REMARK    2  A    between atoms: C_6  and  C_7
REMARK    3  A    between atoms: C_7  and  N_8
REMARK    4  A    between atoms: C_12  and  C_13
REMARK                            x       y       z     vdW  Elec       q    Type
REMARK                         _______ _______ _______ _____ _____    ______ ____
ROOT
ATOM      1  N   UNL     1      44.597   5.636  10.818  0.00  0.00    +0.000 N 
ATOM      2  C   UNL     1      45.458   6.410  11.582  0.00  0.00    +0.000 A 
ATOM      3  C   UNL     1      46.715   6.020  12.011  0.00  0.00    +0.000 A 
ATOM      4  C   UNL     1      47.494   6.892  12.770  0.00  0.00    +0.000 A 
ATOM      5  C   UNL     1      46.964   8.130  13.064  0.00  0.00    +0.000 A 
ATOM      6  N   UNL     1      45.744   8.514  12.629  0.00  0.00    +0.000 NA
ATOM      7  N   UNL     1      45.001   7.646  11.881  0.00  0.00    +0.000 NA
ATOM      8  H   UNL     1      43.725   6.146  10.706  0.00  0.00    +0.000 HD
ENDROOT
BRANCH   5   9
ATOM      9  C   UNL     1      47.703   9.110  13.894  0.00  0.00    +0.000 C 
ATOM     10  N   UNL     1      47.385   9.125  15.224  0.00  0.00    +0.000 N 
ATOM     11  O   UNL     1      48.553   9.862  13.423  0.00  0.00    +0.000 OA
ATOM     12  H   UNL     1      46.683   8.495  15.598  0.00  0.00    +0.000 HD
ATOM     13  H   UNL     1      47.869   9.764  15.841  0.00  0.00    +0.000 HD
ENDBRANCH   5   9
BRANCH   1  14
ATOM     14  C   UNL     1      44.582   4.186  10.651  0.00  0.00    +0.000 C 
ATOM     15  C   UNL     1      44.438   3.178  11.775  0.00  0.00    +0.000 C 
ATOM     16  C   UNL     1      43.220   3.580  11.020  0.00  0.00    +0.000 C 
BRANCH  14  20
ATOM     17  C   UNL     1      46.766   2.735   7.168  0.00  0.00    +0.000 A 
ATOM     18  C   UNL     1      46.576   4.106   7.350  0.00  0.00    +0.000 A 
ATOM     19  C   UNL     1      45.875   4.568   8.464  0.00  0.00    +0.000 A 
ATOM     20  C   UNL     1      45.298   3.688   9.400  0.00  0.00    +0.000 A 
ATOM     21  C   UNL     1      45.445   2.316   9.158  0.00  0.00    +0.000 A 
ATOM     22  C   UNL     1      46.199   1.841   8.082  0.00  0.00    +0.000 A 
ATOM     23 CL   UNL     1      46.442   0.136   7.968  0.00  0.00    +0.000 Cl
BRANCH  17  25
ATOM     24  N   UNL     1      48.247   1.909   5.214  0.00  0.00    +0.000 NA
ATOM     25  C   UNL     1      47.566   2.295   6.079  0.00  0.00    +0.000 C 
ENDBRANCH  17  25
ENDBRANCH  14  20
ENDBRANCH   1  14
TORSDOF 4
ENDMDL
MODEL 3
REMARK VINA RESULT:    -8.082      3.607      7.155
REMARK INTER + INTRA:          -9.984
REMARK INTER:                  -9.401
REMARK INTRA:                  -0.583
REMARK UNBOUND:                -0.013
REMARK  Name = 
REMARK  4 active torsions:
REMARK  status: ('A' for Active; 'I' for Inactive)
REMARK    1  A    between atoms: C_2  and  C_3
REMARK    2  A    between atoms: C_6  and  C_7
REMARK    3  A    between atoms: C_7  and  N_8
REMARK    4  A    between atoms: C_12  and  C_13
REMARK                            x       y       z     vdW  Elec       q    Type
REMARK                         _______ _______ _______ _____ _____    ______ ____
ROOT
ATOM      1  N   UNL     1      45.577   5.157  11.452  0.00  0.00    +0.000 N 
ATOM      2  C   UNL     1      46.171   4.890  12.677  0.00  0.00    +0.000 A 
ATOM      3  C   UNL     1      46.430   3.627  13.180  0.00  0.00    +0.000 A 
ATOM      4  C   UNL     1      47.041   3.484  14.426  0.00  0.00    +0.000 A 
ATOM      5  C   UNL     1      47.365   4.635  15.112  0.00  0.00    +0.000 A 
ATOM      6  N   UNL     1      47.126   5.866  14.611  0.00  0.00    +0.000 NA
ATOM      7  N   UNL     1      46.534   5.981  13.386  0.00  0.00    +0.000 NA
ATOM      8  H   UNL     1      45.452   6.162  11.372  0.00  0.00    +0.000 HD
ENDROOT
BRANCH   5   9
ATOM      9  C   UNL     1      47.984   4.584  16.458  0.00  0.00    +0.000 C 
ATOM     10  N   UNL     1      47.185   4.971  17.497  0.00  0.00    +0.000 N 
ATOM     11  O   UNL     1      49.142   4.211  16.635  0.00  0.00    +0.000 OA
ATOM     12  H   UNL     1      46.230   5.272  17.334  0.00  0.00    +0.000 HD
ATOM     13  H   UNL     1      47.550   4.943  18.439  0.00  0.00    +0.000 HD
ENDBRANCH   5   9
BRANCH   1  14
ATOM     14  C   UNL     1      44.738   4.283  10.637  0.00  0.00    +0.000 C 
ATOM     15  C   UNL     1      43.571   3.464  11.151  0.00  0.00    +0.000 C 
ATOM     16  C   UNL     1      43.293   4.795  10.549  0.00  0.00    +0.000 C 
BRANCH  14  20
ATOM     17  C   UNL     1      46.811   2.751   7.121  0.00  0.00    +0.000 A 
ATOM     18  C   UNL     1      46.656   4.128   7.294  0.00  0.00    +0.000 A 
ATOM     19  C   UNL     1      45.990   4.616   8.419  0.00  0.00    +0.000 A 
ATOM     20  C   UNL     1      45.414   3.758   9.375  0.00  0.00    +0.000 A 
ATOM     21  C   UNL     1      45.525   2.381   9.143  0.00  0.00    +0.000 A 
ATOM     22  C   UNL     1      46.245   1.879   8.056  0.00  0.00    +0.000 A 
ATOM     23 CL   UNL     1      46.446   0.168   7.953  0.00  0.00    +0.000 Cl
BRANCH  17  25
ATOM     24  N   UNL     1      48.211   1.861   5.137  0.00  0.00    +0.000 NA
ATOM     25  C   UNL     1      47.577   2.283   6.019  0.00  0.00    +0.000 C 
ENDBRANCH  17  25
ENDBRANCH  14  20
ENDBRANCH   1  14
TORSDOF 4
ENDMDL
MODEL 4
REMARK VINA RESULT:    -6.711      3.719      6.720
REMARK INTER + INTRA:          -8.294
REMARK INTER:                  -8.372
REMARK INTRA:                   0.078
REMARK UNBOUND:                -0.013
REMARK  Name = 
REMARK  4 active torsions:
REMARK  status: ('A' for Active; 'I' for Inactive)
REMARK    1  A    between atoms: C_2  and  C_3
REMARK    2  A    between atoms: C_6  and  C_7
REMARK    3  A    between atoms: C_7  and  N_8
REMARK    4  A    between atoms: C_12  and  C_13
REMARK                            x       y       z     vdW  Elec       q    Type
REMARK                         _______ _______ _______ _____ _____    ______ ____
ROOT
ATOM      1  N   UNL     1      45.860   4.999  13.114  0.00  0.00    +0.000 N 
ATOM      2  C   UNL     1      46.870   5.939  12.967  0.00  0.00    +0.000 A 
ATOM      3  C   UNL     1      46.764   7.120  12.253  0.00  0.00    +0.000 A 
ATOM      4  C   UNL     1      47.849   7.992  12.184  0.00  0.00    +0.000 A 
ATOM      5  C   UNL     1      49.003   7.629  12.845  0.00  0.00    +0.000 A 
ATOM      6  N   UNL     1      49.097   6.485  13.556  0.00  0.00    +0.000 NA
ATOM      7  N   UNL     1      48.019   5.649  13.616  0.00  0.00    +0.000 NA
ATOM      8  H   UNL     1      46.235   4.208  13.630  0.00  0.00    +0.000 HD
ENDROOT
BRANCH   5   9
ATOM      9  C   UNL     1      50.219   8.475  12.800  0.00  0.00    +0.000 C 
ATOM     10  N   UNL     1      50.786   8.639  11.567  0.00  0.00    +0.000 N 
ATOM     11  O   UNL     1      50.689   9.004  13.804  0.00  0.00    +0.000 OA
ATOM     12  H   UNL     1      50.383   8.198  10.747  0.00  0.00    +0.000 HD
ATOM     13  H   UNL     1      51.609   9.218  11.474  0.00  0.00    +0.000 HD
ENDBRANCH   5   9
BRANCH   1  14
ATOM     14  C   UNL     1      44.682   4.790  12.277  0.00  0.00    +0.000 C 
ATOM     15  C   UNL     1      43.310   4.392  12.784  0.00  0.00    +0.000 C 
ATOM     16  C   UNL     1      43.591   5.835  12.552  0.00  0.00    +0.000 C 
BRANCH  14  20
ATOM     17  C   UNL     1      45.716   3.627   8.205  0.00  0.00    +0.000 A 
ATOM     18  C   UNL     1      45.898   4.948   8.620  0.00  0.00    +0.000 A 
ATOM     19  C   UNL     1      45.564   5.318   9.923  0.00  0.00    +0.000 A 
ATOM     20  C   UNL     1      44.994   4.408  10.834  0.00  0.00    +0.000 A 
ATOM     21  C   UNL     1      44.758   3.107  10.371  0.00  0.00    +0.000 A 
ATOM     22  C   UNL     1      45.148   2.706   9.091  0.00  0.00    +0.000 A 
ATOM     23 CL   UNL     1      44.949   1.042   8.681  0.00  0.00    +0.000 Cl
BRANCH  17  25
ATOM     24  N   UNL     1      46.548   2.924   5.859  0.00  0.00    +0.000 NA
ATOM     25  C   UNL     1      46.155   3.253   6.906  0.00  0.00    +0.000 C 
ENDBRANCH  17  25
ENDBRANCH  14  20
ENDBRANCH   1  14
TORSDOF 4
ENDMDL
MODEL 5
REMARK VINA RESULT:    -6.589      4.584      6.877
REMARK INTER + INTRA:          -8.142
REMARK INTER:                  -7.719
REMARK INTRA:                  -0.423
REMARK UNBOUND:                -0.013
REMARK  Name = 
REMARK  4 active torsions:
REMARK  status: ('A' for Active; 'I' for Inactive)
REMARK    1  A    between atoms: C_2  and  C_3
REMARK    2  A    between atoms: C_6  and  C_7
REMARK    3  A    between atoms: C_7  and  N_8
REMARK    4  A    between atoms: C_12  and  C_13
REMARK                            x       y       z     vdW  Elec       q    Type
REMARK                         _______ _______ _______ _____ _____    ______ ____
ROOT
ATOM      1  N   UNL     1      47.172   4.034  15.855  0.00  0.00    +0.000 N 
ATOM      2  C   UNL     1      46.843   4.613  14.639  0.00  0.00    +0.000 A 
ATOM      3  C   UNL     1      47.546   5.636  14.026  0.00  0.00    +0.000 A 
ATOM      4  C   UNL     1      47.121   6.134  12.794  0.00  0.00    +0.000 A 
ATOM      5  C   UNL     1      45.996   5.571  12.233  0.00  0.00    +0.000 A 
ATOM      6  N   UNL     1      45.322   4.561  12.825  0.00  0.00    +0.000 NA
ATOM      7  N   UNL     1      45.761   4.084  14.028  0.00  0.00    +0.000 NA
ATOM      8  H   UNL     1      46.450   3.358  16.090  0.00  0.00    +0.000 HD
ENDROOT
BRANCH   5   9
ATOM      9  C   UNL     1      45.448   6.057  10.944  0.00  0.00    +0.000 C 
ATOM     10  N   UNL     1      44.667   7.177  11.013  0.00  0.00    +0.000 N 
ATOM     11  O   UNL     1      45.683   5.496   9.877  0.00  0.00    +0.000 OA
ATOM     12  H   UNL     1      44.486   7.630  11.902  0.00  0.00    +0.000 HD
ATOM     13  H   UNL     1      44.279   7.562  10.163  0.00  0.00    +0.000 HD
ENDBRANCH   5   9
BRANCH   1  14
ATOM     14  C   UNL     1      47.993   4.579  16.932  0.00  0.00    +0.000 C 
ATOM     15  C   UNL     1      48.000   6.029  17.377  0.00  0.00    +0.000 C 
ATOM     16  C   UNL     1      47.141   5.064  18.114  0.00  0.00    +0.000 C 
BRANCH  14  20
ATOM     17  C   UNL     1      51.698   2.377  17.589  0.00  0.00    +0.000 A 
ATOM     18  C   UNL     1      50.543   1.697  17.197  0.00  0.00    +0.000 A 
ATOM     19  C   UNL     1      49.358   2.404  16.990  0.00  0.00    +0.000 A 
ATOM     20  C   UNL     1      49.268   3.791  17.214  0.00  0.00    +0.000 A 
ATOM     21  C   UNL     1      50.423   4.438  17.672  0.00  0.00    +0.000 A 
ATOM     22  C   UNL     1      51.632   3.754  17.821  0.00  0.00    +0.000 A 
ATOM     23 CL   UNL     1      53.026   4.681  18.242  0.00  0.00    +0.000 Cl
BRANCH  17  25
ATOM     24  N   UNL     1      53.890   1.021  17.808  0.00  0.00    +0.000 NA
ATOM     25  C   UNL     1      52.914   1.650  17.698  0.00  0.00    +0.000 C 
ENDBRANCH  17  25
ENDBRANCH  14  20
ENDBRANCH   1  14
TORSDOF 4
ENDMDL
MODEL 6
REMARK VINA RESULT:    -6.225      3.616      7.216
REMARK INTER + INTRA:          -7.693
REMARK INTER:                  -7.631
REMARK INTRA:                  -0.062
REMARK UNBOUND:                -0.013
REMARK  Name = 
REMARK  4 active torsions:
REMARK  status: ('A' for Active; 'I' for Inactive)
REMARK    1  A    between atoms: C_2  and  C_3
REMARK    2  A    between atoms: C_6  and  C_7
REMARK    3  A    between atoms: C_7  and  N_8
REMARK    4  A    between atoms: C_12  and  C_13
REMARK                            x       y       z     vdW  Elec       q    Type
REMARK                         _______ _______ _______ _____ _____    ______ ____
ROOT
ATOM      1  N   UNL     1      47.547   6.908  13.264  0.00  0.00    +0.000 N 
ATOM      2  C   UNL     1      47.727   6.044  14.335  0.00  0.00    +0.000 A 
ATOM      3  C   UNL     1      46.873   5.011  14.681  0.00  0.00    +0.000 A 
ATOM      4  C   UNL     1      47.165   4.202  15.778  0.00  0.00    +0.000 A 
ATOM      5  C   UNL     1      48.317   4.475  16.482  0.00  0.00    +0.000 A 
ATOM      6  N   UNL     1      49.158   5.473  16.132  0.00  0.00    +0.000 NA
ATOM      7  N   UNL     1      48.856   6.248  15.049  0.00  0.00    +0.000 NA
ATOM      8  H   UNL     1      48.289   7.602  13.288  0.00  0.00    +0.000 HD
ENDROOT
BRANCH   5   9
ATOM      9  C   UNL     1      48.693   3.692  17.683  0.00  0.00    +0.000 C 
ATOM     10  N   UNL     1      48.013   3.996  18.830  0.00  0.00    +0.000 N 
ATOM     11  O   UNL     1      49.558   2.819  17.655  0.00  0.00    +0.000 OA
ATOM     12  H   UNL     1      47.300   4.717  18.835  0.00  0.00    +0.000 HD
ATOM     13  H   UNL     1      48.217   3.483  19.677  0.00  0.00    +0.000 HD
ENDBRANCH   5   9
BRANCH   1  14
ATOM     14  C   UNL     1      46.315   7.228  12.550  0.00  0.00    +0.000 C 
ATOM     15  C   UNL     1      45.319   8.295  12.961  0.00  0.00    +0.000 C 
ATOM     16  C   UNL     1      46.352   8.641  11.948  0.00  0.00    +0.000 C 
BRANCH  14  20
ATOM     17  C   UNL     1      44.832   3.852  10.224  0.00  0.00    +0.000 A 
ATOM     18  C   UNL     1      45.622   4.828   9.611  0.00  0.00    +0.000 A 
ATOM     19  C   UNL     1      46.093   5.908  10.358  0.00  0.00    +0.000 A 
ATOM     20  C   UNL     1      45.755   6.083  11.713  0.00  0.00    +0.000 A 
ATOM     21  C   UNL     1      44.907   5.126  12.286  0.00  0.00    +0.000 A 
ATOM     22  C   UNL     1      44.481   4.005  11.569  0.00  0.00    +0.000 A 
ATOM     23 CL   UNL     1      43.566   2.815  12.419  0.00  0.00    +0.000 Cl
BRANCH  17  25
ATOM     24  N   UNL     1      44.140   1.799   8.811  0.00  0.00    +0.000 NA
ATOM     25  C   UNL     1      44.447   2.712   9.469  0.00  0.00    +0.000 C 
ENDBRANCH  17  25
ENDBRANCH  14  20
ENDBRANCH   1  14
TORSDOF 4
ENDMDL
MODEL 7
REMARK VINA RESULT:    -6.154      3.529      5.408
REMARK INTER + INTRA:          -7.607
REMARK INTER:                  -6.899
REMARK INTRA:                  -0.707
REMARK UNBOUND:                -0.013
REMARK  Name = 
REMARK  4 active torsions:
REMARK  status: ('A' for Active; 'I' for Inactive)
REMARK    1  A    between atoms: C_2  and  C_3
REMARK    2  A    between atoms: C_6  and  C_7
REMARK    3  A    between atoms: C_7  and  N_8
REMARK    4  A    between atoms: C_12  and  C_13
REMARK                            x       y       z     vdW  Elec       q    Type
REMARK                         _______ _______ _______ _____ _____    ______ ____
ROOT
ATOM      1  N   UNL     1      47.273   7.806  12.152  0.00  0.00    +0.000 N 
ATOM      2  C   UNL     1      46.532   6.634  12.097  0.00  0.00    +0.000 A 
ATOM      3  C   UNL     1      46.765   5.505  12.863  0.00  0.00    +0.000 A 
ATOM      4  C   UNL     1      45.944   4.387  12.723  0.00  0.00    +0.000 A 
ATOM      5  C   UNL     1      44.916   4.460  11.808  0.00  0.00    +0.000 A 
ATOM      6  N   UNL     1      44.681   5.570  11.075  0.00  0.00    +0.000 NA
ATOM      7  N   UNL     1      45.493   6.656  11.233  0.00  0.00    +0.000 NA
ATOM      8  H   UNL     1      46.921   8.439  11.439  0.00  0.00    +0.000 HD
ENDROOT
BRANCH   5   9
ATOM      9  C   UNL     1      44.013   3.310  11.565  0.00  0.00    +0.000 C 
ATOM     10  N   UNL     1      43.825   2.466  12.624  0.00  0.00    +0.000 N 
ATOM     11  O   UNL     1      43.461   3.125  10.484  0.00  0.00    +0.000 OA
ATOM     12  H   UNL     1      44.286   2.636  13.512  0.00  0.00    +0.000 HD
ATOM     13  H   UNL     1      43.207   1.673  12.521  0.00  0.00    +0.000 HD
ENDBRANCH   5   9
BRANCH   1  14
ATOM     14  C   UNL     1      48.633   8.001  12.647  0.00  0.00    +0.000 C 
ATOM     15  C   UNL     1      49.897   7.620  11.901  0.00  0.00    +0.000 C 
ATOM     16  C   UNL     1      49.409   9.023  11.803  0.00  0.00    +0.000 C 
BRANCH  14  20
ATOM     17  C   UNL     1      48.842   8.045  17.001  0.00  0.00    +0.000 A 
ATOM     18  C   UNL     1      48.186   9.075  16.324  0.00  0.00    +0.000 A 
ATOM     19  C   UNL     1      48.123   9.060  14.931  0.00  0.00    +0.000 A 
ATOM     20  C   UNL     1      48.749   8.057  14.166  0.00  0.00    +0.000 A 
ATOM     21  C   UNL     1      49.458   7.073  14.867  0.00  0.00    +0.000 A 
ATOM     22  C   UNL     1      49.474   7.039  16.263  0.00  0.00    +0.000 A 
ATOM     23 CL   UNL     1      50.249   5.696  17.021  0.00  0.00    +0.000 Cl
BRANCH  17  25
ATOM     24  N   UNL     1      48.824   8.029  19.588  0.00  0.00    +0.000 NA
ATOM     25  C   UNL     1      48.808   8.031  18.422  0.00  0.00    +0.000 C 
ENDBRANCH  17  25
ENDBRANCH  14  20
ENDBRANCH   1  14
TORSDOF 4
ENDMDL
MODEL 8
REMARK VINA RESULT:    -6.016      4.120      6.100
REMARK INTER + INTRA:          -7.436
REMARK INTER:                  -6.794
REMARK INTRA:                  -0.642
REMARK UNBOUND:                -0.013
REMARK  Name = 
REMARK  4 active torsions:
REMARK  status: ('A' for Active; 'I' for Inactive)
REMARK    1  A    between atoms: C_2  and  C_3
REMARK    2  A    between atoms: C_6  and  C_7
REMARK    3  A    between atoms: C_7  and  N_8
REMARK    4  A    between atoms: C_12  and  C_13
REMARK                            x       y       z     vdW  Elec       q    Type
REMARK                         _______ _______ _______ _____ _____    ______ ____
ROOT
ATOM      1  N   UNL     1      48.271   6.406  13.721  0.00  0.00    +0.000 N 
ATOM      2  C   UNL     1      47.226   5.720  13.120  0.00  0.00    +0.000 A 
ATOM      3  C   UNL     1      46.412   6.221  12.119  0.00  0.00    +0.000 A 
ATOM      4  C   UNL     1      45.395   5.430  11.586  0.00  0.00    +0.000 A 
ATOM      5  C   UNL     1      45.245   4.157  12.093  0.00  0.00    +0.000 A 
ATOM      6  N   UNL     1      46.052   3.665  13.058  0.00  0.00    +0.000 NA
ATOM      7  N   UNL     1      47.046   4.455  13.560  0.00  0.00    +0.000 NA
ATOM      8  H   UNL     1      48.650   5.823  14.462  0.00  0.00    +0.000 HD
ENDROOT
BRANCH   5   9
ATOM      9  C   UNL     1      44.170   3.255  11.614  0.00  0.00    +0.000 C 
ATOM     10  N   UNL     1      43.777   2.280  12.488  0.00  0.00    +0.000 N 
ATOM     11  O   UNL     1      43.657   3.376  10.505  0.00  0.00    +0.000 OA
ATOM     12  H   UNL     1      44.208   2.197  13.403  0.00  0.00    +0.000 HD
ATOM     13  H   UNL     1      43.037   1.646  12.221  0.00  0.00    +0.000 HD
ENDBRANCH   5   9
BRANCH   1  14
ATOM     14  C   UNL     1      48.497   7.847  13.783  0.00  0.00    +0.000 C 
ATOM     15  C   UNL     1      47.562   8.851  14.429  0.00  0.00    +0.000 C 
ATOM     16  C   UNL     1      48.707   8.333  15.226  0.00  0.00    +0.000 C 
BRANCH  14  20
ATOM     17  C   UNL     1      51.207   9.394  10.739  0.00  0.00    +0.000 A 
ATOM     18  C   UNL     1      50.363  10.267  11.430  0.00  0.00    +0.000 A 
ATOM     19  C   UNL     1      49.495   9.769  12.402  0.00  0.00    +0.000 A 
ATOM     20  C   UNL     1      49.399   8.392  12.681  0.00  0.00    +0.000 A 
ATOM     21  C   UNL     1      50.207   7.532  11.927  0.00  0.00    +0.000 A 
ATOM     22  C   UNL     1      51.127   8.022  10.997  0.00  0.00    +0.000 A 
ATOM     23 CL   UNL     1      52.177   6.883  10.236  0.00  0.00    +0.000 Cl
BRANCH  17  25
ATOM     24  N   UNL     1      52.920  10.421   9.096  0.00  0.00    +0.000 NA
ATOM     25  C   UNL     1      52.150   9.937   9.825  0.00  0.00    +0.000 C 
ENDBRANCH  17  25
ENDBRANCH  14  20
ENDBRANCH   1  14
TORSDOF 4
ENDMDL
