MODEL 1
REMARK VINA RESULT:    -8.395      0.000      0.000
REMARK INTER + INTRA:         -13.204
REMARK INTER:                 -12.320
REMARK INTRA:                  -0.883
REMARK UNBOUND:                -0.883
REMARK  Name = 
REMARK  9 active torsions:
REMARK  status: ('A' for Active; 'I' for Inactive)
REMARK    1  A    between atoms: C_1  and  O_2
REMARK    2  A    between atoms: O_2  and  C_3
REMARK    3  A    between atoms: C_6  and  C_7
REMARK    4  A    between atoms: C_7  and  O_8
REMARK    5  A    between atoms: O_8  and  C_9
REMARK    6  A    between atoms: C_9  and  C_10
REMARK    7  A    between atoms: C_13  and  C_14
REMARK    8  A    between atoms: C_14  and  N_15
REMARK    9  A    between atoms: C_16  and  C_18
REMARK                            x       y       z     vdW  Elec       q    Type
REMARK                         _______ _______ _______ _____ _____    ______ ____
ROOT
ATOM      1  C   UNL     1      44.612   4.271  12.625  0.00  0.00    +0.000 A 
ATOM      2  C   UNL     1      44.689   5.657  12.518  0.00  0.00    +0.000 A 
ATOM      3  C   UNL     1      45.848   6.308  12.946  0.00  0.00    +0.000 A 
ATOM      4  C   UNL     1      46.913   5.565  13.457  0.00  0.00    +0.000 A 
ATOM      5  C   UNL     1      46.741   4.186  13.533  0.00  0.00    +0.000 A 
ATOM      6  N   UNL     1      45.626   3.529  13.138  0.00  0.00    +0.000 NA
ENDROOT
BRANCH   1   7
ATOM      7  C   UNL     1      43.353   3.539  12.222  0.00  0.00    +0.000 C 
BRANCH   7   8
ATOM      8  O   UNL     1      43.528   2.888  10.962  0.00  0.00    +0.000 OA
BRANCH   8   9
ATOM      9  C   UNL     1      43.877   3.825   9.946  0.00  0.00    +0.000 C 
BRANCH   9  13
ATOM     10  C   UNL     1      46.821   2.038   7.468  0.00  0.00    +0.000 A 
ATOM     11  C   UNL     1      46.620   3.399   7.323  0.00  0.00    +0.000 A 
ATOM     12  C   UNL     1      45.653   4.008   8.127  0.00  0.00    +0.000 A 
ATOM     13  C   UNL     1      44.911   3.240   9.029  0.00  0.00    +0.000 A 
ATOM     14  C   UNL     1      45.208   1.885   9.100  0.00  0.00    +0.000 A 
ATOM     15  N   UNL     1      46.140   1.273   8.345  0.00  0.00    +0.000 NA
BRANCH  10  17
ATOM     16  C   UNL     1      48.023   2.223   5.484  0.00  0.00    +0.000 C 
ATOM     17  O   UNL     1      47.776   1.455   6.661  0.00  0.00    +0.000 OA
ENDBRANCH  10  17
ENDBRANCH   9  13
ENDBRANCH   8   9
ENDBRANCH   7   8
ENDBRANCH   1   7
BRANCH   4  18
ATOM     18  C   UNL     1      48.184   6.207  13.935  0.00  0.00    +0.000 C 
BRANCH  18  19
ATOM     19  N   UNL     1      48.184   6.389  15.366  0.00  0.00    +0.000 N 
ATOM     20  C   UNL     1      49.343   6.624  16.063  0.00  0.00    +0.000 C 
ATOM     21  O   UNL     1      50.427   6.761  15.502  0.00  0.00    +0.000 OA
ATOM     22  H   UNL     1      47.377   6.037  15.872  0.00  0.00    +0.000 HD
BRANCH  20  23
ATOM     23  C   UNL     1      49.213   6.749  17.521  0.00  0.00    +0.000 A 
ATOM     24  C   UNL     1      49.379   7.983  18.135  0.00  0.00    +0.000 A 
ATOM     25  S   UNL     1      49.199   7.932  19.832  0.00  0.00    +0.000 S 
ATOM     26  C   UNL     1      48.924   6.253  19.808  0.00  0.00    +0.000 A 
ATOM     27  N   UNL     1      48.726   5.557  20.960  0.00  0.00    +0.000 NA
ATOM     28  C   UNL     1      48.537   4.289  20.792  0.00  0.00    +0.000 A 
ATOM     29  N   UNL     1      48.517   3.658  19.576  0.00  0.00    +0.000 N 
ATOM     30  C   UNL     1      48.690   4.324  18.388  0.00  0.00    +0.000 A 
ATOM     31  O   UNL     1      48.615   3.738  17.313  0.00  0.00    +0.000 OA
ATOM     32  C   UNL     1      48.932   5.747  18.521  0.00  0.00    +0.000 A 
ATOM     33  H   UNL     1      48.335   2.668  19.508  0.00  0.00    +0.000 HD
ENDBRANCH  20  23
ENDBRANCH  18  19
ENDBRANCH   4  18
TORSDOF 8
ENDMDL
MODEL 2
REMARK VINA RESULT:    -7.650      1.899      2.679
REMARK INTER + INTRA:         -12.111
REMARK INTER:                 -11.176
REMARK INTRA:                  -0.934
REMARK UNBOUND:                -0.883
REMARK  Name = 
REMARK  9 active torsions:
REMARK  status: ('A' for Active; 'I' for Inactive)
REMARK    1  A    between atoms: C_1  and  O_2
REMARK    2  A    between atoms: O_2  and  C_3
REMARK    3  A    between atoms: C_6  and  C_7
REMARK    4  A    between atoms: C_7  and  O_8
REMARK    5  A    between atoms: O_8  and  C_9
REMARK    6  A    between atoms: C_9  and  C_10
REMARK    7  A    between atoms: C_13  and  C_14
REMARK    8  A    between atoms: C_14  and  N_15
REMARK    9  A    between atoms: C_16  and  C_18
REMARK                            x       y       z     vdW  Elec       q    Type
REMARK                         _______ _______ _______ _____ _____    ______ ____
ROOT
ATOM      1  C   UNL     1      44.539   5.843  12.087  0.00  0.00    +0.000 A 
ATOM      2  C   UNL     1      45.317   6.935  11.712  0.00  0.00    +0.000 A 
ATOM      3  C   UNL     1      46.528   7.164  12.368  0.00  0.00    +0.000 A 
ATOM      4  C   UNL     1      46.948   6.292  13.374  0.00  0.00    +0.000 A 
ATOM      5  C   UNL     1      46.100   5.234  13.686  0.00  0.00    +0.000 A 
ATOM      6  N   UNL     1      44.916   4.994  13.075  0.00  0.00    +0.000 NA
ENDROOT
BRANCH   1   7
ATOM      7  C   UNL     1      43.198   5.596  11.436  0.00  0.00    +0.000 C 
BRANCH   7   8
ATOM      8  O   UNL     1      43.363   4.981  10.157  0.00  0.00    +0.000 OA
BRANCH   8   9
ATOM      9  C   UNL     1      43.788   3.627  10.292  0.00  0.00    +0.000 C 
BRANCH   9  13
ATOM     10  C   UNL     1      46.836   2.917   7.428  0.00  0.00    +0.000 A 
ATOM     11  C   UNL     1      46.309   1.811   8.070  0.00  0.00    +0.000 A 
ATOM     12  C   UNL     1      45.306   2.022   9.021  0.00  0.00    +0.000 A 
ATOM     13  C   UNL     1      44.880   3.321   9.308  0.00  0.00    +0.000 A 
ATOM     14  C   UNL     1      45.469   4.355   8.590  0.00  0.00    +0.000 A 
ATOM     15  N   UNL     1      46.431   4.180   7.663  0.00  0.00    +0.000 NA
BRANCH  10  17
ATOM     16  C   UNL     1      47.307   2.567   5.175  0.00  0.00    +0.000 C 
ATOM     17  O   UNL     1      47.829   2.687   6.498  0.00  0.00    +0.000 OA
ENDBRANCH  10  17
ENDBRANCH   9  13
ENDBRANCH   8   9
ENDBRANCH   7   8
ENDBRANCH   1   7
BRANCH   4  18
ATOM     18  C   UNL     1      48.239   6.486  14.117  0.00  0.00    +0.000 C 
BRANCH  18  19
ATOM     19  N   UNL     1      48.011   6.796  15.508  0.00  0.00    +0.000 N 
ATOM     20  C   UNL     1      48.692   6.152  16.511  0.00  0.00    +0.000 C 
ATOM     21  O   UNL     1      49.574   5.331  16.279  0.00  0.00    +0.000 OA
ATOM     22  H   UNL     1      47.139   7.264  15.736  0.00  0.00    +0.000 HD
BRANCH  20  23
ATOM     23  C   UNL     1      48.338   6.531  17.886  0.00  0.00    +0.000 A 
ATOM     24  C   UNL     1      48.234   5.562  18.874  0.00  0.00    +0.000 A 
ATOM     25  S   UNL     1      47.808   6.188  20.404  0.00  0.00    +0.000 S 
ATOM     26  C   UNL     1      47.717   7.773  19.792  0.00  0.00    +0.000 A 
ATOM     27  N   UNL     1      47.359   8.816  20.589  0.00  0.00    +0.000 NA
ATOM     28  C   UNL     1      47.323   9.960  19.988  0.00  0.00    +0.000 A 
ATOM     29  N   UNL     1      47.626  10.157  18.667  0.00  0.00    +0.000 N 
ATOM     30  C   UNL     1      48.013   9.139  17.832  0.00  0.00    +0.000 A 
ATOM     31  O   UNL     1      48.327   9.356  16.666  0.00  0.00    +0.000 OA
ATOM     32  C   UNL     1      48.044   7.828  18.448  0.00  0.00    +0.000 A 
ATOM     33  H   UNL     1      47.609  11.081  18.262  0.00  0.00    +0.000 HD
ENDBRANCH  20  23
ENDBRANCH  18  19
ENDBRANCH   4  18
TORSDOF 8
ENDMDL
MODEL 3
REMARK VINA RESULT:    -7.488      2.064      2.372
REMARK INTER + INTRA:         -11.873
REMARK INTER:                 -10.769
REMARK INTRA:                  -1.104
REMARK UNBOUND:                -0.883
REMARK  Name = 
REMARK  9 active torsions:
REMARK  status: ('A' for Active; 'I' for Inactive)
REMARK    1  A    between atoms: C_1  and  O_2
REMARK    2  A    between atoms: O_2  and  C_3
REMARK    3  A    between atoms: C_6  and  C_7
REMARK    4  A    between atoms: C_7  and  O_8
REMARK    5  A    between atoms: O_8  and  C_9
REMARK    6  A    between atoms: C_9  and  C_10
REMARK    7  A    between atoms: C_13  and  C_14
REMARK    8  A    between atoms: C_14  and  N_15
REMARK    9  A    between atoms: C_16  and  C_18
REMARK                            x       y       z     vdW  Elec       q    Type
REMARK                         _______ _______ _______ _____ _____    ______ ____
ROOT
ATOM      1  C   UNL     1      44.479   5.766  12.476  0.00  0.00    +0.000 A 
ATOM      2  C   UNL     1      44.553   6.962  11.768  0.00  0.00    +0.000 A 
ATOM      3  C   UNL     1      45.706   7.743  11.871  0.00  0.00    +0.000 A 
ATOM      4  C   UNL     1      46.770   7.308  12.663  0.00  0.00    +0.000 A 
ATOM      5  C   UNL     1      46.602   6.103  13.339  0.00  0.00    +0.000 A 
ATOM      6  N   UNL     1      45.491   5.332  13.269  0.00  0.00    +0.000 NA
ENDROOT
BRANCH   1   7
ATOM      7  C   UNL     1      43.225   4.923  12.431  0.00  0.00    +0.000 C 
BRANCH   7   8
ATOM      8  O   UNL     1      43.063   4.327  11.143  0.00  0.00    +0.000 OA
BRANCH   8   9
ATOM      9  C   UNL     1      43.794   3.107  11.047  0.00  0.00    +0.000 C 
BRANCH   9  13
ATOM     10  C   UNL     1      46.155   3.267   7.526  0.00  0.00    +0.000 A 
ATOM     11  C   UNL     1      45.886   2.013   8.045  0.00  0.00    +0.000 A 
ATOM     12  C   UNL     1      45.113   1.937   9.206  0.00  0.00    +0.000 A 
ATOM     13  C   UNL     1      44.654   3.108   9.817  0.00  0.00    +0.000 A 
ATOM     14  C   UNL     1      44.973   4.310   9.199  0.00  0.00    +0.000 A 
ATOM     15  N   UNL     1      45.708   4.413   8.075  0.00  0.00    +0.000 NA
BRANCH  10  17
ATOM     16  C   UNL     1      48.003   2.385   6.418  0.00  0.00    +0.000 C 
ATOM     17  O   UNL     1      46.926   3.320   6.383  0.00  0.00    +0.000 OA
ENDBRANCH  10  17
ENDBRANCH   9  13
ENDBRANCH   8   9
ENDBRANCH   7   8
ENDBRANCH   1   7
BRANCH   4  18
ATOM     18  C   UNL     1      48.035   8.103  12.816  0.00  0.00    +0.000 C 
BRANCH  18  19
ATOM     19  N   UNL     1      48.989   7.430  13.664  0.00  0.00    +0.000 N 
ATOM     20  C   UNL     1      49.123   7.748  14.992  0.00  0.00    +0.000 C 
ATOM     21  O   UNL     1      48.394   8.569  15.544  0.00  0.00    +0.000 OA
ATOM     22  H   UNL     1      49.755   6.950  13.201  0.00  0.00    +0.000 HD
BRANCH  20  23
ATOM     23  C   UNL     1      50.158   7.019  15.736  0.00  0.00    +0.000 A 
ATOM     24  C   UNL     1      51.480   7.443  15.694  0.00  0.00    +0.000 A 
ATOM     25  S   UNL     1      52.540   6.469  16.612  0.00  0.00    +0.000 S 
ATOM     26  C   UNL     1      51.275   5.428  17.073  0.00  0.00    +0.000 A 
ATOM     27  N   UNL     1      51.509   4.339  17.852  0.00  0.00    +0.000 NA
ATOM     28  C   UNL     1      50.458   3.635  18.117  0.00  0.00    +0.000 A 
ATOM     29  N   UNL     1      49.192   3.930  17.682  0.00  0.00    +0.000 N 
ATOM     30  C   UNL     1      48.907   5.030  16.912  0.00  0.00    +0.000 A 
ATOM     31  O   UNL     1      47.755   5.295  16.583  0.00  0.00    +0.000 OA
ATOM     32  C   UNL     1      50.056   5.841  16.564  0.00  0.00    +0.000 A 
ATOM     33  H   UNL     1      48.405   3.357  17.948  0.00  0.00    +0.000 HD
ENDBRANCH  20  23
ENDBRANCH  18  19
ENDBRANCH   4  18
TORSDOF 8
ENDMDL
MODEL 4
REMARK VINA RESULT:    -6.985      3.508      5.057
REMARK INTER + INTRA:         -11.135
REMARK INTER:                  -9.943
REMARK INTRA:                  -1.192
REMARK UNBOUND:                -0.883
REMARK  Name = 
REMARK  9 active torsions:
REMARK  status: ('A' for Active; 'I' for Inactive)
REMARK    1  A    between atoms: C_1  and  O_2
REMARK    2  A    between atoms: O_2  and  C_3
REMARK    3  A    between atoms: C_6  and  C_7
REMARK    4  A    between atoms: C_7  and  O_8
REMARK    5  A    between atoms: O_8  and  C_9
REMARK    6  A    between atoms: C_9  and  C_10
REMARK    7  A    between atoms: C_13  and  C_14
REMARK    8  A    between atoms: C_14  and  N_15
REMARK    9  A    between atoms: C_16  and  C_18
REMARK                            x       y       z     vdW  Elec       q    Type
REMARK                         _______ _______ _______ _____ _____    ______ ____
ROOT
ATOM      1  C   UNL     1      47.634   6.197  14.250  0.00  0.00    +0.000 A 
ATOM      2  C   UNL     1      48.389   6.548  15.366  0.00  0.00    +0.000 A 
ATOM      3  C   UNL     1      48.522   5.633  16.412  0.00  0.00    +0.000 A 
ATOM      4  C   UNL     1      47.914   4.379  16.319  0.00  0.00    +0.000 A 
ATOM      5  C   UNL     1      47.173   4.122  15.170  0.00  0.00    +0.000 A 
ATOM      6  N   UNL     1      47.016   4.994  14.147  0.00  0.00    +0.000 NA
ENDROOT
BRANCH   1   7
ATOM      7  C   UNL     1      47.424   7.183  13.125  0.00  0.00    +0.000 C 
BRANCH   7   8
ATOM      8  O   UNL     1      46.111   7.742  13.181  0.00  0.00    +0.000 OA
BRANCH   8   9
ATOM      9  C   UNL     1      45.535   7.831  11.880  0.00  0.00    +0.000 C 
BRANCH   9  13
ATOM     10  C   UNL     1      44.218   3.970  10.717  0.00  0.00    +0.000 A 
ATOM     11  C   UNL     1      45.243   4.532   9.978  0.00  0.00    +0.000 A 
ATOM     12  C   UNL     1      45.690   5.805  10.342  0.00  0.00    +0.000 A 
ATOM     13  C   UNL     1      45.091   6.476  11.411  0.00  0.00    +0.000 A 
ATOM     14  C   UNL     1      44.080   5.809  12.090  0.00  0.00    +0.000 A 
ATOM     15  N   UNL     1      43.635   4.579  11.768  0.00  0.00    +0.000 NA
BRANCH  10  17
ATOM     16  C   UNL     1      44.513   2.215   9.217  0.00  0.00    +0.000 C 
ATOM     17  O   UNL     1      43.786   2.715  10.338  0.00  0.00    +0.000 OA
ENDBRANCH  10  17
ENDBRANCH   9  13
ENDBRANCH   8   9
ENDBRANCH   7   8
ENDBRANCH   1   7
BRANCH   4  18
ATOM     18  C   UNL     1      48.019   3.353  17.411  0.00  0.00    +0.000 C 
BRANCH  18  19
ATOM     19  N   UNL     1      49.393   3.083  17.759  0.00  0.00    +0.000 N 
ATOM     20  C   UNL     1      50.172   2.236  17.011  0.00  0.00    +0.000 C 
ATOM     21  O   UNL     1      49.767   1.720  15.974  0.00  0.00    +0.000 OA
ATOM     22  H   UNL     1      49.670   3.279  18.716  0.00  0.00    +0.000 HD
BRANCH  20  23
ATOM     23  C   UNL     1      51.541   2.012  17.496  0.00  0.00    +0.000 A 
ATOM     24  C   UNL     1      52.005   0.722  17.711  0.00  0.00    +0.000 A 
ATOM     25  S   UNL     1      53.614   0.660  18.280  0.00  0.00    +0.000 S 
ATOM     26  C   UNL     1      53.735   2.357  18.288  0.00  0.00    +0.000 A 
ATOM     27  N   UNL     1      54.869   2.978  18.710  0.00  0.00    +0.000 NA
ATOM     28  C   UNL     1      54.818   4.270  18.669  0.00  0.00    +0.000 A 
ATOM     29  N   UNL     1      53.739   4.994  18.232  0.00  0.00    +0.000 N 
ATOM     30  C   UNL     1      52.584   4.408  17.778  0.00  0.00    +0.000 A 
ATOM     31  O   UNL     1      51.655   5.083  17.345  0.00  0.00    +0.000 OA
ATOM     32  C   UNL     1      52.578   2.960  17.827  0.00  0.00    +0.000 A 
ATOM     33  H   UNL     1      53.771   6.002  18.196  0.00  0.00    +0.000 HD
ENDBRANCH  20  23
ENDBRANCH  18  19
ENDBRANCH   4  18
TORSDOF 8
ENDMDL
MODEL 5
REMARK VINA RESULT:    -6.933      5.420      9.371
REMARK INTER + INTRA:         -11.058
REMARK INTER:                 -10.152
REMARK INTRA:                  -0.906
REMARK UNBOUND:                -0.883
REMARK  Name = 
REMARK  9 active torsions:
REMARK  status: ('A' for Active; 'I' for Inactive)
REMARK    1  A    between atoms: C_1  and  O_2
REMARK    2  A    between atoms: O_2  and  C_3
REMARK    3  A    between atoms: C_6  and  C_7
REMARK    4  A    between atoms: C_7  and  O_8
REMARK    5  A    between atoms: O_8  and  C_9
REMARK    6  A    between atoms: C_9  and  C_10
REMARK    7  A    between atoms: C_13  and  C_14
REMARK    8  A    between atoms: C_14  and  N_15
REMARK    9  A    between atoms: C_16  and  C_18
REMARK                            x       y       z     vdW  Elec       q    Type
REMARK                         _______ _______ _______ _____ _____    ______ ____
ROOT
ATOM      1  C   UNL     1      50.973   2.393  17.417  0.00  0.00    +0.000 A 
ATOM      2  C   UNL     1      51.615   3.609  17.632  0.00  0.00    +0.000 A 
ATOM      3  C   UNL     1      50.886   4.794  17.509  0.00  0.00    +0.000 A 
ATOM      4  C   UNL     1      49.527   4.743  17.191  0.00  0.00    +0.000 A 
ATOM      5  C   UNL     1      48.974   3.483  16.986  0.00  0.00    +0.000 A 
ATOM      6  N   UNL     1      49.659   2.319  17.085  0.00  0.00    +0.000 NA
ENDROOT
BRANCH   1   7
ATOM      7  C   UNL     1      51.743   1.095  17.487  0.00  0.00    +0.000 C 
BRANCH   7   8
ATOM      8  O   UNL     1      52.810   1.192  18.432  0.00  0.00    +0.000 OA
BRANCH   8   9
ATOM      9  C   UNL     1      54.077   1.080  17.788  0.00  0.00    +0.000 C 
BRANCH   9  13
ATOM     10  C   UNL     1      54.967  -3.006  17.070  0.00  0.00    +0.000 A 
ATOM     11  C   UNL     1      55.063  -2.144  15.992  0.00  0.00    +0.000 A 
ATOM     12  C   UNL     1      54.770  -0.794  16.206  0.00  0.00    +0.000 A 
ATOM     13  C   UNL     1      54.378  -0.357  17.473  0.00  0.00    +0.000 A 
ATOM     14  C   UNL     1      54.330  -1.308  18.485  0.00  0.00    +0.000 A 
ATOM     15  N   UNL     1      54.615  -2.613  18.310  0.00  0.00    +0.000 NA
BRANCH  10  17
ATOM     16  C   UNL     1      54.089  -5.079  16.482  0.00  0.00    +0.000 C 
ATOM     17  O   UNL     1      55.253  -4.335  16.837  0.00  0.00    +0.000 OA
ENDBRANCH  10  17
ENDBRANCH   9  13
ENDBRANCH   8   9
ENDBRANCH   7   8
ENDBRANCH   1   7
BRANCH   4  18
ATOM     18  C   UNL     1      48.690   5.982  17.043  0.00  0.00    +0.000 C 
BRANCH  18  19
ATOM     19  N   UNL     1      47.818   5.902  15.897  0.00  0.00    +0.000 N 
ATOM     20  C   UNL     1      48.237   6.280  14.645  0.00  0.00    +0.000 C 
ATOM     21  O   UNL     1      49.390   6.637  14.422  0.00  0.00    +0.000 OA
ATOM     22  H   UNL     1      46.821   5.860  16.082  0.00  0.00    +0.000 HD
BRANCH  20  23
ATOM     23  C   UNL     1      47.239   6.190  13.570  0.00  0.00    +0.000 A 
ATOM     24  C   UNL     1      46.857   7.328  12.873  0.00  0.00    +0.000 A 
ATOM     25  S   UNL     1      45.685   7.031  11.668  0.00  0.00    +0.000 S 
ATOM     26  C   UNL     1      45.625   5.375  12.057  0.00  0.00    +0.000 A 
ATOM     27  N   UNL     1      44.778   4.531  11.408  0.00  0.00    +0.000 NA
ATOM     28  C   UNL     1      44.833   3.304  11.812  0.00  0.00    +0.000 A 
ATOM     29  N   UNL     1      45.668   2.844  12.797  0.00  0.00    +0.000 N 
ATOM     30  C   UNL     1      46.553   3.655  13.462  0.00  0.00    +0.000 A 
ATOM     31  O   UNL     1      47.323   3.203  14.302  0.00  0.00    +0.000 OA
ATOM     32  C   UNL     1      46.514   5.049  13.065  0.00  0.00    +0.000 A 
ATOM     33  H   UNL     1      45.685   1.867  13.047  0.00  0.00    +0.000 HD
ENDBRANCH  20  23
ENDBRANCH  18  19
ENDBRANCH   4  18
TORSDOF 8
ENDMDL
MODEL 6
REMARK VINA RESULT:    -6.877      5.231      9.626
REMARK INTER + INTRA:         -10.977
REMARK INTER:                 -10.075
REMARK INTRA:                  -0.902
REMARK UNBOUND:                -0.883
REMARK  Name = 
REMARK  9 active torsions:
REMARK  status: ('A' for Active; 'I' for Inactive)
REMARK    1  A    between atoms: C_1  and  O_2
REMARK    2  A    between atoms: O_2  and  C_3
REMARK    3  A    between atoms: C_6  and  C_7
REMARK    4  A    between atoms: C_7  and  O_8
REMARK    5  A    between atoms: O_8  and  C_9
REMARK    6  A    between atoms: C_9  and  C_10
REMARK    7  A    between atoms: C_13  and  C_14
REMARK    8  A    between atoms: C_14  and  N_15
REMARK    9  A    between atoms: C_16  and  C_18
REMARK                            x       y       z     vdW  Elec       q    Type
REMARK                         _______ _______ _______ _____ _____    ______ ____
ROOT
ATOM      1  C   UNL     1      51.364   3.276  17.748  0.00  0.00    +0.000 A 
ATOM      2  C   UNL     1      50.735   2.149  17.224  0.00  0.00    +0.000 A 
ATOM      3  C   UNL     1      49.364   2.195  16.964  0.00  0.00    +0.000 A 
ATOM      4  C   UNL     1      48.649   3.368  17.214  0.00  0.00    +0.000 A 
ATOM      5  C   UNL     1      49.360   4.439  17.745  0.00  0.00    +0.000 A 
ATOM      6  N   UNL     1      50.686   4.419  18.019  0.00  0.00    +0.000 NA
ENDROOT
BRANCH   1   7
ATOM      7  C   UNL     1      52.834   3.243  18.092  0.00  0.00    +0.000 C 
BRANCH   7   8
ATOM      8  O   UNL     1      53.145   2.089  18.874  0.00  0.00    +0.000 OA
BRANCH   8   9
ATOM      9  C   UNL     1      54.520   1.738  18.747  0.00  0.00    +0.000 C 
BRANCH   9  13
ATOM     10  C   UNL     1      54.978  -2.097  16.991  0.00  0.00    +0.000 A 
ATOM     11  C   UNL     1      54.962  -1.012  16.133  0.00  0.00    +0.000 A 
ATOM     12  C   UNL     1      54.809   0.260  16.690  0.00  0.00    +0.000 A 
ATOM     13  C   UNL     1      54.659   0.404  18.072  0.00  0.00    +0.000 A 
ATOM     14  C   UNL     1      54.705  -0.754  18.838  0.00  0.00    +0.000 A 
ATOM     15  N   UNL     1      54.861  -1.992  18.329  0.00  0.00    +0.000 NA
BRANCH  10  17
ATOM     16  C   UNL     1      54.590  -3.396  15.099  0.00  0.00    +0.000 C 
ATOM     17  O   UNL     1      55.124  -3.345  16.421  0.00  0.00    +0.000 OA
ENDBRANCH  10  17
ENDBRANCH   9  13
ENDBRANCH   8   9
ENDBRANCH   7   8
ENDBRANCH   1   7
BRANCH   4  18
ATOM     18  C   UNL     1      47.173   3.479  16.957  0.00  0.00    +0.000 C 
BRANCH  18  19
ATOM     19  N   UNL     1      46.884   4.430  15.911  0.00  0.00    +0.000 N 
ATOM     20  C   UNL     1      47.026   4.107  14.585  0.00  0.00    +0.000 C 
ATOM     21  O   UNL     1      47.337   2.978  14.217  0.00  0.00    +0.000 OA
ATOM     22  H   UNL     1      46.876   5.411  16.173  0.00  0.00    +0.000 HD
BRANCH  20  23
ATOM     23  C   UNL     1      46.739   5.177  13.619  0.00  0.00    +0.000 A 
ATOM     24  C   UNL     1      47.718   6.106  13.294  0.00  0.00    +0.000 A 
ATOM     25  S   UNL     1      47.201   7.276  12.164  0.00  0.00    +0.000 S 
ATOM     26  C   UNL     1      45.641   6.600  12.093  0.00  0.00    +0.000 A 
ATOM     27  N   UNL     1      44.669   7.154  11.319  0.00  0.00    +0.000 NA
ATOM     28  C   UNL     1      43.532   6.541  11.370  0.00  0.00    +0.000 A 
ATOM     29  N   UNL     1      43.284   5.417  12.113  0.00  0.00    +0.000 N 
ATOM     30  C   UNL     1      44.241   4.813  12.891  0.00  0.00    +0.000 A 
ATOM     31  O   UNL     1      44.002   3.778  13.505  0.00  0.00    +0.000 OA
ATOM     32  C   UNL     1      45.529   5.476  12.892  0.00  0.00    +0.000 A 
ATOM     33  H   UNL     1      42.382   4.966  12.088  0.00  0.00    +0.000 HD
ENDBRANCH  20  23
ENDBRANCH  18  19
ENDBRANCH   4  18
TORSDOF 8
ENDMDL
MODEL 7
REMARK VINA RESULT:    -6.876      4.663      9.921
REMARK INTER + INTRA:         -10.975
REMARK INTER:                  -9.903
REMARK INTRA:                  -1.072
REMARK UNBOUND:                -0.883
REMARK  Name = 
REMARK  9 active torsions:
REMARK  status: ('A' for Active; 'I' for Inactive)
REMARK    1  A    between atoms: C_1  and  O_2
REMARK    2  A    between atoms: O_2  and  C_3
REMARK    3  A    between atoms: C_6  and  C_7
REMARK    4  A    between atoms: C_7  and  O_8
REMARK    5  A    between atoms: O_8  and  C_9
REMARK    6  A    between atoms: C_9  and  C_10
REMARK    7  A    between atoms: C_13  and  C_14
REMARK    8  A    between atoms: C_14  and  N_15
REMARK    9  A    between atoms: C_16  and  C_18
REMARK                            x       y       z     vdW  Elec       q    Type
REMARK                         _______ _______ _______ _____ _____    ______ ____
ROOT
ATOM      1  C   UNL     1      51.257   4.530  17.731  0.00  0.00    +0.000 A 
ATOM      2  C   UNL     1      50.922   3.180  17.702  0.00  0.00    +0.000 A 
ATOM      3  C   UNL     1      49.617   2.810  17.369  0.00  0.00    +0.000 A 
ATOM      4  C   UNL     1      48.676   3.793  17.057  0.00  0.00    +0.000 A 
ATOM      5  C   UNL     1      49.101   5.116  17.122  0.00  0.00    +0.000 A 
ATOM      6  N   UNL     1      50.355   5.504  17.453  0.00  0.00    +0.000 NA
ENDROOT
BRANCH   1   7
ATOM      7  C   UNL     1      52.645   4.968  18.140  0.00  0.00    +0.000 C 
BRANCH   7   8
ATOM      8  O   UNL     1      53.203   4.057  19.088  0.00  0.00    +0.000 OA
BRANCH   8   9
ATOM      9  C   UNL     1      54.465   3.564  18.643  0.00  0.00    +0.000 C 
BRANCH   9  13
ATOM     10  C   UNL     1      54.504  -0.676  18.487  0.00  0.00    +0.000 A 
ATOM     11  C   UNL     1      54.063  -0.010  17.357  0.00  0.00    +0.000 A 
ATOM     12  C   UNL     1      54.039   1.387  17.388  0.00  0.00    +0.000 A 
ATOM     13  C   UNL     1      54.434   2.067  18.543  0.00  0.00    +0.000 A 
ATOM     14  C   UNL     1      54.873   1.296  19.613  0.00  0.00    +0.000 A 
ATOM     15  N   UNL     1      54.915  -0.051  19.608  0.00  0.00    +0.000 NA
BRANCH  10  17
ATOM     16  C   UNL     1      53.755  -2.633  19.499  0.00  0.00    +0.000 C 
ATOM     17  O   UNL     1      54.515  -2.054  18.439  0.00  0.00    +0.000 OA
ENDBRANCH  10  17
ENDBRANCH   9  13
ENDBRANCH   8   9
ENDBRANCH   7   8
ENDBRANCH   1   7
BRANCH   4  18
ATOM     18  C   UNL     1      47.257   3.459  16.694  0.00  0.00    +0.000 C 
BRANCH  18  19
ATOM     19  N   UNL     1      46.720   4.390  15.732  0.00  0.00    +0.000 N 
ATOM     20  C   UNL     1      46.747   4.130  14.384  0.00  0.00    +0.000 C 
ATOM     21  O   UNL     1      47.164   3.068  13.932  0.00  0.00    +0.000 OA
ATOM     22  H   UNL     1      46.609   5.352  16.038  0.00  0.00    +0.000 HD
BRANCH  20  23
ATOM     23  C   UNL     1      46.205   5.178  13.508  0.00  0.00    +0.000 A 
ATOM     24  C   UNL     1      46.941   6.327  13.254  0.00  0.00    +0.000 A 
ATOM     25  S   UNL     1      46.148   7.432  12.221  0.00  0.00    +0.000 S 
ATOM     26  C   UNL     1      44.781   6.426  12.103  0.00  0.00    +0.000 A 
ATOM     27  N   UNL     1      43.693   6.802  11.379  0.00  0.00    +0.000 NA
ATOM     28  C   UNL     1      42.725   5.944  11.384  0.00  0.00    +0.000 A 
ATOM     29  N   UNL     1      42.755   4.740  12.037  0.00  0.00    +0.000 N 
ATOM     30  C   UNL     1      43.839   4.311  12.761  0.00  0.00    +0.000 A 
ATOM     31  O   UNL     1      43.854   3.206  13.292  0.00  0.00    +0.000 OA
ATOM     32  C   UNL     1      44.943   5.248  12.810  0.00  0.00    +0.000 A 
ATOM     33  H   UNL     1      41.977   4.099  11.979  0.00  0.00    +0.000 HD
ENDBRANCH  20  23
ENDBRANCH  18  19
ENDBRANCH   4  18
TORSDOF 8
ENDMDL
MODEL 8
REMARK VINA RESULT:    -6.726      3.470      5.184
REMARK INTER + INTRA:         -10.755
REMARK INTER:                  -9.816
REMARK INTRA:                  -0.939
REMARK UNBOUND:                -0.883
REMARK  Name = 
REMARK  9 active torsions:
REMARK  status: ('A' for Active; 'I' for Inactive)
REMARK    1  A    between atoms: C_1  and  O_2
REMARK    2  A    between atoms: O_2  and  C_3
REMARK    3  A    between atoms: C_6  and  C_7
REMARK    4  A    between atoms: C_7  and  O_8
REMARK    5  A    between atoms: O_8  and  C_9
REMARK    6  A    between atoms: C_9  and  C_10
REMARK    7  A    between atoms: C_13  and  C_14
REMARK    8  A    between atoms: C_14  and  N_15
REMARK    9  A    between atoms: C_16  and  C_18
REMARK                            x       y       z     vdW  Elec       q    Type
REMARK                         _______ _______ _______ _____ _____    ______ ____
ROOT
ATOM      1  C   UNL     1      46.086   4.757  13.059  0.00  0.00    +0.000 A 
ATOM      2  C   UNL     1      46.675   5.947  12.642  0.00  0.00    +0.000 A 
ATOM      3  C   UNL     1      47.586   6.587  13.487  0.00  0.00    +0.000 A 
ATOM      4  C   UNL     1      47.903   6.019  14.722  0.00  0.00    +0.000 A 
ATOM      5  C   UNL     1      47.257   4.833  15.056  0.00  0.00    +0.000 A 
ATOM      6  N   UNL     1      46.362   4.197  14.263  0.00  0.00    +0.000 NA
ENDROOT
BRANCH   1   7
ATOM      7  C   UNL     1      45.056   4.067  12.194  0.00  0.00    +0.000 C 
BRANCH   7   8
ATOM      8  O   UNL     1      44.510   4.976  11.237  0.00  0.00    +0.000 OA
BRANCH   8   9
ATOM      9  C   UNL     1      43.778   4.281  10.230  0.00  0.00    +0.000 C 
BRANCH   9  13
ATOM     10  C   UNL     1      46.436   2.103   7.741  0.00  0.00    +0.000 A 
ATOM     11  C   UNL     1      46.406   3.476   7.578  0.00  0.00    +0.000 A 
ATOM     12  C   UNL     1      45.535   4.213   8.385  0.00  0.00    +0.000 A 
ATOM     13  C   UNL     1      44.716   3.557   9.308  0.00  0.00    +0.000 A 
ATOM     14  C   UNL     1      44.842   2.177   9.397  0.00  0.00    +0.000 A 
ATOM     15  N   UNL     1      45.679   1.442   8.638  0.00  0.00    +0.000 NA
BRANCH  10  17
ATOM     16  C   UNL     1      47.916   2.225   5.949  0.00  0.00    +0.000 C 
ATOM     17  O   UNL     1      47.298   1.394   6.931  0.00  0.00    +0.000 OA
ENDBRANCH  10  17
ENDBRANCH   9  13
ENDBRANCH   8   9
ENDBRANCH   7   8
ENDBRANCH   1   7
BRANCH   4  18
ATOM     18  C   UNL     1      48.872   6.659  15.674  0.00  0.00    +0.000 C 
BRANCH  18  19
ATOM     19  N   UNL     1      50.140   6.934  15.042  0.00  0.00    +0.000 N 
ATOM     20  C   UNL     1      50.503   8.206  14.678  0.00  0.00    +0.000 C 
ATOM     21  O   UNL     1      49.805   9.183  14.932  0.00  0.00    +0.000 OA
ATOM     22  H   UNL     1      50.609   6.150  14.599  0.00  0.00    +0.000 HD
BRANCH  20  23
ATOM     23  C   UNL     1      51.801   8.345  14.004  0.00  0.00    +0.000 A 
ATOM     24  C   UNL     1      52.970   8.439  14.749  0.00  0.00    +0.000 A 
ATOM     25  S   UNL     1      54.377   8.603  13.796  0.00  0.00    +0.000 S 
ATOM     26  C   UNL     1      53.470   8.586  12.355  0.00  0.00    +0.000 A 
ATOM     27  N   UNL     1      54.073   8.725  11.144  0.00  0.00    +0.000 NA
ATOM     28  C   UNL     1      53.261   8.702  10.138  0.00  0.00    +0.000 A 
ATOM     29  N   UNL     1      51.904   8.540  10.234  0.00  0.00    +0.000 N 
ATOM     30  C   UNL     1      51.257   8.376  11.433  0.00  0.00    +0.000 A 
ATOM     31  O   UNL     1      50.047   8.182  11.482  0.00  0.00    +0.000 OA
ATOM     32  C   UNL     1      52.118   8.420  12.598  0.00  0.00    +0.000 A 
ATOM     33  H   UNL     1      51.326   8.501   9.408  0.00  0.00    +0.000 HD
ENDBRANCH  20  23
ENDBRANCH  18  19
ENDBRANCH   4  18
TORSDOF 8
ENDMDL
MODEL 9
REMARK VINA RESULT:    -6.635      4.011      5.593
REMARK INTER + INTRA:         -10.622
REMARK INTER:                  -9.425
REMARK INTRA:                  -1.197
REMARK UNBOUND:                -0.883
REMARK  Name = 
REMARK  9 active torsions:
REMARK  status: ('A' for Active; 'I' for Inactive)
REMARK    1  A    between atoms: C_1  and  O_2
REMARK    2  A    between atoms: O_2  and  C_3
REMARK    3  A    between atoms: C_6  and  C_7
REMARK    4  A    between atoms: C_7  and  O_8
REMARK    5  A    between atoms: O_8  and  C_9
REMARK    6  A    between atoms: C_9  and  C_10
REMARK    7  A    between atoms: C_13  and  C_14
REMARK    8  A    between atoms: C_14  and  N_15
REMARK    9  A    between atoms: C_16  and  C_18
REMARK                            x       y       z     vdW  Elec       q    Type
REMARK                         _______ _______ _______ _____ _____    ______ ____
ROOT
ATOM      1  C   UNL     1      45.850   4.744  13.375  0.00  0.00    +0.000 A 
ATOM      2  C   UNL     1      46.309   5.831  12.638  0.00  0.00    +0.000 A 
ATOM      3  C   UNL     1      47.396   6.567  13.116  0.00  0.00    +0.000 A 
ATOM      4  C   UNL     1      48.014   6.194  14.311  0.00  0.00    +0.000 A 
ATOM      5  C   UNL     1      47.480   5.099  14.983  0.00  0.00    +0.000 A 
ATOM      6  N   UNL     1      46.421   4.375  14.550  0.00  0.00    +0.000 NA
ENDROOT
BRANCH   1   7
ATOM      7  C   UNL     1      44.643   3.959  12.915  0.00  0.00    +0.000 C 
BRANCH   7   8
ATOM      8  O   UNL     1      43.986   4.628  11.837  0.00  0.00    +0.000 OA
BRANCH   8   9
ATOM      9  C   UNL     1      43.456   3.694  10.901  0.00  0.00    +0.000 C 
BRANCH   9  13
ATOM     10  C   UNL     1      46.163   3.191   7.674  0.00  0.00    +0.000 A 
ATOM     11  C   UNL     1      45.746   2.045   8.327  0.00  0.00    +0.000 A 
ATOM     12  C   UNL     1      44.856   2.188   9.395  0.00  0.00    +0.000 A 
ATOM     13  C   UNL     1      44.432   3.461   9.785  0.00  0.00    +0.000 A 
ATOM     14  C   UNL     1      44.904   4.539   9.047  0.00  0.00    +0.000 A 
ATOM     15  N   UNL     1      45.754   4.430   8.007  0.00  0.00    +0.000 NA
BRANCH  10  17
ATOM     16  C   UNL     1      47.916   1.916   6.826  0.00  0.00    +0.000 C 
ATOM     17  O   UNL     1      47.046   3.029   6.626  0.00  0.00    +0.000 OA
ENDBRANCH  10  17
ENDBRANCH   9  13
ENDBRANCH   8   9
ENDBRANCH   7   8
ENDBRANCH   1   7
BRANCH   4  18
ATOM     18  C   UNL     1      49.185   6.945  14.878  0.00  0.00    +0.000 C 
BRANCH  18  19
ATOM     19  N   UNL     1      50.007   7.515  13.838  0.00  0.00    +0.000 N 
ATOM     20  C   UNL     1      50.094   8.872  13.651  0.00  0.00    +0.000 C 
ATOM     21  O   UNL     1      49.536   9.672  14.396  0.00  0.00    +0.000 OA
ATOM     22  H   UNL     1      50.265   6.902  13.071  0.00  0.00    +0.000 HD
BRANCH  20  23
ATOM     23  C   UNL     1      50.932   9.322  12.531  0.00  0.00    +0.000 A 
ATOM     24  C   UNL     1      50.381  10.072  11.501  0.00  0.00    +0.000 A 
ATOM     25  S   UNL     1      51.504  10.496  10.287  0.00  0.00    +0.000 S 
ATOM     26  C   UNL     1      52.760   9.668  11.081  0.00  0.00    +0.000 A 
ATOM     27  N   UNL     1      54.009   9.606  10.547  0.00  0.00    +0.000 NA
ATOM     28  C   UNL     1      54.860   8.938  11.254  0.00  0.00    +0.000 A 
ATOM     29  N   UNL     1      54.577   8.336  12.453  0.00  0.00    +0.000 N 
ATOM     30  C   UNL     1      53.337   8.391  13.038  0.00  0.00    +0.000 A 
ATOM     31  O   UNL     1      53.129   7.886  14.137  0.00  0.00    +0.000 OA
ATOM     32  C   UNL     1      52.336   9.108  12.273  0.00  0.00    +0.000 A 
ATOM     33  H   UNL     1      55.294   7.852  12.973  0.00  0.00    +0.000 HD
ENDBRANCH  20  23
ENDBRANCH  18  19
ENDBRANCH   4  18
TORSDOF 8
ENDMDL
