MODEL 1
REMARK VINA RESULT:    -8.300      0.000      0.000
REMARK INTER + INTRA:         -13.332
REMARK INTER:                 -12.424
REMARK INTRA:                  -0.908
REMARK UNBOUND:                -0.908
REMARK  Name = 
REMARK  9 active torsions:
REMARK  status: ('A' for Active; 'I' for Inactive)
REMARK    1  A    between atoms: N_1  and  C_2
REMARK    2  A    between atoms: C_2  and  C_3
REMARK    3  A    between atoms: C_3  and  N_4
REMARK    4  A    between atoms: C_3  and  C_26
REMARK    5  A    between atoms: N_4  and  C_5
REMARK    6  A    between atoms: C_5  and  C_6
REMARK    7  A    between atoms: C_9  and  C_10
REMARK    8  A    between atoms: C_10  and  N_11
REMARK    9  A    between atoms: C_12  and  C_14
REMARK                            x       y       z     vdW  Elec       q    Type
REMARK                         _______ _______ _______ _____ _____    ______ ____
ROOT
ATOM      1  C   UNL     1      44.678   6.158  11.491  0.00  0.00    +0.000 A 
ATOM      2  N   UNL     1      45.797   5.501  11.867  0.00  0.00    +0.000 NA
ATOM      3  C   UNL     1      46.738   6.229  12.496  0.00  0.00    +0.000 A 
ATOM      4  C   UNL     1      46.615   7.576  12.765  0.00  0.00    +0.000 A 
ATOM      5  C   UNL     1      45.453   8.158  12.303  0.00  0.00    +0.000 A 
ATOM      6  N   UNL     1      44.475   7.482  11.670  0.00  0.00    +0.000 NA
ENDROOT
BRANCH   1   7
ATOM      7  C   UNL     1      43.594   5.363  10.777  0.00  0.00    +0.000 C 
BRANCH   7   8
ATOM      8  N   UNL     1      44.035   4.803   9.478  0.00  0.00    +0.000 NA
ATOM      9  H   UNL     1      43.284   5.024   8.816  0.00  0.00    +0.000 HD
BRANCH   8  10
ATOM     10  C   UNL     1      44.147   3.321   9.517  0.00  0.00    +0.000 C 
BRANCH  10  11
ATOM     11  C   UNL     1      45.252   2.764   8.620  0.00  0.00    +0.000 A 
ATOM     12  C   UNL     1      45.927   3.616   7.743  0.00  0.00    +0.000 A 
ATOM     13  C   UNL     1      46.949   3.105   6.953  0.00  0.00    +0.000 A 
ATOM     14  C   UNL     1      47.271   1.757   7.043  0.00  0.00    +0.000 A 
ATOM     15  C   UNL     1      46.553   0.972   7.928  0.00  0.00    +0.000 A 
ATOM     16  N   UNL     1      45.559   1.443   8.713  0.00  0.00    +0.000 NA
ENDBRANCH  10  11
BRANCH  10  17
ATOM     17  C   UNL     1      44.221   2.755  10.968  0.00  0.00    +0.000 C 
BRANCH  17  18
ATOM     18  N   UNL     1      42.988   2.061  11.385  0.00  0.00    +0.000 NA
ATOM     19  H   UNL     1      43.256   1.218  11.893  0.00  0.00    +0.000 HD
ATOM     20  H   UNL     1      42.499   1.737  10.551  0.00  0.00    +0.000 HD
ENDBRANCH  17  18
ENDBRANCH  10  17
ENDBRANCH   8  10
ENDBRANCH   7   8
ENDBRANCH   1   7
BRANCH   4  21
ATOM     21  C   UNL     1      47.677   8.342  13.477  0.00  0.00    +0.000 C 
BRANCH  21  22
ATOM     22  N   UNL     1      47.884   7.863  14.818  0.00  0.00    +0.000 N 
ATOM     23  C   UNL     1      49.041   7.205  15.158  0.00  0.00    +0.000 C 
ATOM     24  O   UNL     1      49.933   7.012  14.334  0.00  0.00    +0.000 OA
ATOM     25  H   UNL     1      47.287   8.231  15.555  0.00  0.00    +0.000 HD
BRANCH  23  26
ATOM     26  C   UNL     1      49.123   6.663  16.519  0.00  0.00    +0.000 A 
ATOM     27  C   UNL     1      49.829   7.346  17.500  0.00  0.00    +0.000 A 
ATOM     28  S   UNL     1      50.077   6.426  18.919  0.00  0.00    +0.000 S 
ATOM     29  C   UNL     1      49.195   5.116  18.284  0.00  0.00    +0.000 A 
ATOM     30  N   UNL     1      49.104   3.932  18.947  0.00  0.00    +0.000 NA
ATOM     31  C   UNL     1      48.363   3.050  18.363  0.00  0.00    +0.000 A 
ATOM     32  N   UNL     1      47.663   3.261  17.201  0.00  0.00    +0.000 N 
ATOM     33  C   UNL     1      47.699   4.452  16.521  0.00  0.00    +0.000 A 
ATOM     34  O   UNL     1      46.984   4.662  15.546  0.00  0.00    +0.000 OA
ATOM     35  C   UNL     1      48.619   5.428  17.067  0.00  0.00    +0.000 A 
ATOM     36  H   UNL     1      47.036   2.558  16.840  0.00  0.00    +0.000 HD
ENDBRANCH  23  26
ENDBRANCH  21  22
ENDBRANCH   4  21
TORSDOF 9
ENDMDL
MODEL 2
REMARK VINA RESULT:    -7.994      2.906      4.004
REMARK INTER + INTRA:         -12.874
REMARK INTER:                 -11.747
REMARK INTRA:                  -1.127
REMARK UNBOUND:                -0.908
REMARK  Name = 
REMARK  9 active torsions:
REMARK  status: ('A' for Active; 'I' for Inactive)
REMARK    1  A    between atoms: N_1  and  C_2
REMARK    2  A    between atoms: C_2  and  C_3
REMARK    3  A    between atoms: C_3  and  N_4
REMARK    4  A    between atoms: C_3  and  C_26
REMARK    5  A    between atoms: N_4  and  C_5
REMARK    6  A    between atoms: C_5  and  C_6
REMARK    7  A    between atoms: C_9  and  C_10
REMARK    8  A    between atoms: C_10  and  N_11
REMARK    9  A    between atoms: C_12  and  C_14
REMARK                            x       y       z     vdW  Elec       q    Type
REMARK                         _______ _______ _______ _____ _____    ______ ____
ROOT
ATOM      1  C   UNL     1      46.996   4.509  14.135  0.00  0.00    +0.000 A 
ATOM      2  N   UNL     1      47.715   5.614  13.840  0.00  0.00    +0.000 NA
ATOM      3  C   UNL     1      48.353   6.207  14.865  0.00  0.00    +0.000 A 
ATOM      4  C   UNL     1      48.308   5.750  16.166  0.00  0.00    +0.000 A 
ATOM      5  C   UNL     1      47.516   4.639  16.365  0.00  0.00    +0.000 A 
ATOM      6  N   UNL     1      46.855   4.002  15.379  0.00  0.00    +0.000 NA
ENDROOT
BRANCH   1   7
ATOM      7  C   UNL     1      46.262   3.814  12.997  0.00  0.00    +0.000 C 
BRANCH   7   8
ATOM      8  N   UNL     1      44.788   3.928  13.092  0.00  0.00    +0.000 NA
ATOM      9  H   UNL     1      44.434   2.968  13.017  0.00  0.00    +0.000 HD
BRANCH   8  10
ATOM     10  C   UNL     1      44.210   4.687  11.952  0.00  0.00    +0.000 C 
BRANCH  10  11
ATOM     11  C   UNL     1      44.590   4.125  10.582  0.00  0.00    +0.000 A 
ATOM     12  C   UNL     1      45.275   4.931   9.670  0.00  0.00    +0.000 A 
ATOM     13  C   UNL     1      45.641   4.400   8.439  0.00  0.00    +0.000 A 
ATOM     14  C   UNL     1      45.309   3.085   8.137  0.00  0.00    +0.000 A 
ATOM     15  C   UNL     1      44.623   2.351   9.087  0.00  0.00    +0.000 A 
ATOM     16  N   UNL     1      44.259   2.838  10.295  0.00  0.00    +0.000 NA
ENDBRANCH  10  11
BRANCH  10  17
ATOM     17  C   UNL     1      42.673   4.916  12.092  0.00  0.00    +0.000 C 
BRANCH  17  18
ATOM     18  N   UNL     1      42.251   6.275  11.701  0.00  0.00    +0.000 NA
ATOM     19  H   UNL     1      42.368   6.886  12.510  0.00  0.00    +0.000 HD
ATOM     20  H   UNL     1      41.249   6.262  11.509  0.00  0.00    +0.000 HD
ENDBRANCH  17  18
ENDBRANCH  10  17
ENDBRANCH   8  10
ENDBRANCH   7   8
ENDBRANCH   1   7
BRANCH   4  21
ATOM     21  C   UNL     1      49.043   6.430  17.270  0.00  0.00    +0.000 C 
BRANCH  21  22
ATOM     22  N   UNL     1      49.924   5.532  17.968  0.00  0.00    +0.000 N 
ATOM     23  C   UNL     1      51.235   5.395  17.583  0.00  0.00    +0.000 C 
ATOM     24  O   UNL     1      51.695   6.035  16.641  0.00  0.00    +0.000 OA
ATOM     25  H   UNL     1      49.638   5.198  18.886  0.00  0.00    +0.000 HD
BRANCH  23  26
ATOM     26  C   UNL     1      52.033   4.383  18.286  0.00  0.00    +0.000 A 
ATOM     27  C   UNL     1      52.955   4.769  19.250  0.00  0.00    +0.000 A 
ATOM     28  S   UNL     1      53.998   3.504  19.732  0.00  0.00    +0.000 S 
ATOM     29  C   UNL     1      53.207   2.395  18.712  0.00  0.00    +0.000 A 
ATOM     30  N   UNL     1      53.666   1.125  18.549  0.00  0.00    +0.000 NA
ATOM     31  C   UNL     1      52.934   0.388  17.782  0.00  0.00    +0.000 A 
ATOM     32  N   UNL     1      51.757   0.789  17.202  0.00  0.00    +0.000 N 
ATOM     33  C   UNL     1      51.241   2.049  17.370  0.00  0.00    +0.000 A 
ATOM     34  O   UNL     1      50.136   2.359  16.935  0.00  0.00    +0.000 OA
ATOM     35  C   UNL     1      52.092   2.953  18.116  0.00  0.00    +0.000 A 
ATOM     36  H   UNL     1      51.189   0.140  16.679  0.00  0.00    +0.000 HD
ENDBRANCH  23  26
ENDBRANCH  21  22
ENDBRANCH   4  21
TORSDOF 9
ENDMDL
MODEL 3
REMARK VINA RESULT:    -7.566      1.673      2.075
REMARK INTER + INTRA:         -12.234
REMARK INTER:                 -11.522
REMARK INTRA:                  -0.712
REMARK UNBOUND:                -0.908
REMARK  Name = 
REMARK  9 active torsions:
REMARK  status: ('A' for Active; 'I' for Inactive)
REMARK    1  A    between atoms: N_1  and  C_2
REMARK    2  A    between atoms: C_2  and  C_3
REMARK    3  A    between atoms: C_3  and  N_4
REMARK    4  A    between atoms: C_3  and  C_26
REMARK    5  A    between atoms: N_4  and  C_5
REMARK    6  A    between atoms: C_5  and  C_6
REMARK    7  A    between atoms: C_9  and  C_10
REMARK    8  A    between atoms: C_10  and  N_11
REMARK    9  A    between atoms: C_12  and  C_14
REMARK                            x       y       z     vdW  Elec       q    Type
REMARK                         _______ _______ _______ _____ _____    ______ ____
ROOT
ATOM      1  C   UNL     1      45.388   6.447  12.401  0.00  0.00    +0.000 A 
ATOM      2  N   UNL     1      45.432   7.781  12.613  0.00  0.00    +0.000 NA
ATOM      3  C   UNL     1      46.519   8.252  13.250  0.00  0.00    +0.000 A 
ATOM      4  C   UNL     1      47.562   7.459  13.682  0.00  0.00    +0.000 A 
ATOM      5  C   UNL     1      47.399   6.109  13.449  0.00  0.00    +0.000 A 
ATOM      6  N   UNL     1      46.335   5.578  12.817  0.00  0.00    +0.000 NA
ENDROOT
BRANCH   1   7
ATOM      7  C   UNL     1      44.171   5.882  11.683  0.00  0.00    +0.000 C 
BRANCH   7   8
ATOM      8  N   UNL     1      44.423   5.560  10.260  0.00  0.00    +0.000 NA
ATOM      9  H   UNL     1      43.743   6.115   9.730  0.00  0.00    +0.000 HD
BRANCH   8  10
ATOM     10  C   UNL     1      44.145   4.134   9.950  0.00  0.00    +0.000 C 
BRANCH  10  11
ATOM     11  C   UNL     1      45.148   3.507   8.981  0.00  0.00    +0.000 A 
ATOM     12  C   UNL     1      45.320   2.122   8.964  0.00  0.00    +0.000 A 
ATOM     13  C   UNL     1      46.214   1.561   8.059  0.00  0.00    +0.000 A 
ATOM     14  C   UNL     1      46.924   2.390   7.200  0.00  0.00    +0.000 A 
ATOM     15  C   UNL     1      46.708   3.754   7.281  0.00  0.00    +0.000 A 
ATOM     16  N   UNL     1      45.841   4.326   8.147  0.00  0.00    +0.000 NA
ENDBRANCH  10  11
BRANCH  10  17
ATOM     17  C   UNL     1      43.934   3.264  11.228  0.00  0.00    +0.000 C 
BRANCH  17  18
ATOM     18  N   UNL     1      45.197   2.896  11.895  0.00  0.00    +0.000 NA
ATOM     19  H   UNL     1      45.824   3.700  11.850  0.00  0.00    +0.000 HD
ATOM     20  H   UNL     1      45.651   2.162  11.351  0.00  0.00    +0.000 HD
ENDBRANCH  17  18
ENDBRANCH  10  17
ENDBRANCH   8  10
ENDBRANCH   7   8
ENDBRANCH   1   7
BRANCH   4  21
ATOM     21  C   UNL     1      48.755   8.025  14.371  0.00  0.00    +0.000 C 
BRANCH  21  22
ATOM     22  N   UNL     1      49.485   7.024  15.104  0.00  0.00    +0.000 N 
ATOM     23  C   UNL     1      49.385   6.943  16.471  0.00  0.00    +0.000 C 
ATOM     24  O   UNL     1      48.669   7.712  17.107  0.00  0.00    +0.000 OA
ATOM     25  H   UNL     1      49.868   6.236  14.585  0.00  0.00    +0.000 HD
BRANCH  23  26
ATOM     26  C   UNL     1      50.242   5.959  17.144  0.00  0.00    +0.000 A 
ATOM     27  C   UNL     1      51.430   6.360  17.739  0.00  0.00    +0.000 A 
ATOM     28  S   UNL     1      52.434   5.054  18.192  0.00  0.00    +0.000 S 
ATOM     29  C   UNL     1      51.282   3.919  17.663  0.00  0.00    +0.000 A 
ATOM     30  N   UNL     1      51.547   2.585  17.657  0.00  0.00    +0.000 NA
ATOM     31  C   UNL     1      50.559   1.846  17.273  0.00  0.00    +0.000 A 
ATOM     32  N   UNL     1      49.313   2.317  16.941  0.00  0.00    +0.000 N 
ATOM     33  C   UNL     1      48.994   3.651  16.968  0.00  0.00    +0.000 A 
ATOM     34  O   UNL     1      47.849   4.046  16.774  0.00  0.00    +0.000 OA
ATOM     35  C   UNL     1      50.106   4.529  17.267  0.00  0.00    +0.000 A 
ATOM     36  H   UNL     1      48.560   1.681  16.728  0.00  0.00    +0.000 HD
ENDBRANCH  23  26
ENDBRANCH  21  22
ENDBRANCH   4  21
TORSDOF 9
ENDMDL
MODEL 4
REMARK VINA RESULT:    -7.326      3.087      8.013
REMARK INTER + INTRA:         -11.874
REMARK INTER:                 -10.613
REMARK INTRA:                  -1.261
REMARK UNBOUND:                -0.908
REMARK  Name = 
REMARK  9 active torsions:
REMARK  status: ('A' for Active; 'I' for Inactive)
REMARK    1  A    between atoms: N_1  and  C_2
REMARK    2  A    between atoms: C_2  and  C_3
REMARK    3  A    between atoms: C_3  and  N_4
REMARK    4  A    between atoms: C_3  and  C_26
REMARK    5  A    between atoms: N_4  and  C_5
REMARK    6  A    between atoms: C_5  and  C_6
REMARK    7  A    between atoms: C_9  and  C_10
REMARK    8  A    between atoms: C_10  and  N_11
REMARK    9  A    between atoms: C_12  and  C_14
REMARK                            x       y       z     vdW  Elec       q    Type
REMARK                         _______ _______ _______ _____ _____    ______ ____
ROOT
ATOM      1  C   UNL     1      48.673   7.379  16.363  0.00  0.00    +0.000 A 
ATOM      2  N   UNL     1      48.714   6.337  15.504  0.00  0.00    +0.000 NA
ATOM      3  C   UNL     1      48.503   6.620  14.206  0.00  0.00    +0.000 A 
ATOM      4  C   UNL     1      48.254   7.890  13.726  0.00  0.00    +0.000 A 
ATOM      5  C   UNL     1      48.196   8.874  14.691  0.00  0.00    +0.000 A 
ATOM      6  N   UNL     1      48.399   8.653  16.003  0.00  0.00    +0.000 NA
ENDROOT
BRANCH   1   7
ATOM      7  C   UNL     1      48.907   7.092  17.839  0.00  0.00    +0.000 C 
BRANCH   7   8
ATOM      8  N   UNL     1      47.658   6.835  18.594  0.00  0.00    +0.000 NA
ATOM      9  H   UNL     1      47.653   7.520  19.356  0.00  0.00    +0.000 HD
BRANCH   8  10
ATOM     10  C   UNL     1      47.654   5.490  19.227  0.00  0.00    +0.000 C 
BRANCH  10  11
ATOM     11  C   UNL     1      48.248   4.392  18.345  0.00  0.00    +0.000 A 
ATOM     12  C   UNL     1      47.411   3.637  17.521  0.00  0.00    +0.000 A 
ATOM     13  C   UNL     1      47.966   2.661  16.702  0.00  0.00    +0.000 A 
ATOM     14  C   UNL     1      49.339   2.450  16.728  0.00  0.00    +0.000 A 
ATOM     15  C   UNL     1      50.104   3.231  17.575  0.00  0.00    +0.000 A 
ATOM     16  N   UNL     1      49.592   4.191  18.378  0.00  0.00    +0.000 NA
ENDBRANCH  10  11
BRANCH  10  17
ATOM     17  C   UNL     1      48.264   5.491  20.662  0.00  0.00    +0.000 C 
BRANCH  17  18
ATOM     18  N   UNL     1      48.631   4.145  21.139  0.00  0.00    +0.000 NA
ATOM     19  H   UNL     1      48.270   4.036  22.087  0.00  0.00    +0.000 HD
ATOM     20  H   UNL     1      49.647   4.095  21.224  0.00  0.00    +0.000 HD
ENDBRANCH  17  18
ENDBRANCH  10  17
ENDBRANCH   8  10
ENDBRANCH   7   8
ENDBRANCH   1   7
BRANCH   4  21
ATOM     21  C   UNL     1      48.040   8.161  12.277  0.00  0.00    +0.000 C 
BRANCH  21  22
ATOM     22  N   UNL     1      47.514   7.015  11.582  0.00  0.00    +0.000 N 
ATOM     23  C   UNL     1      46.169   6.906  11.327  0.00  0.00    +0.000 C 
ATOM     24  O   UNL     1      45.379   7.780  11.674  0.00  0.00    +0.000 OA
ATOM     25  H   UNL     1      48.167   6.423  11.074  0.00  0.00    +0.000 HD
BRANCH  23  26
ATOM     26  C   UNL     1      45.709   5.658  10.706  0.00  0.00    +0.000 A 
ATOM     27  C   UNL     1      45.821   5.480   9.333  0.00  0.00    +0.000 A 
ATOM     28  S   UNL     1      44.963   4.120   8.756  0.00  0.00    +0.000 S 
ATOM     29  C   UNL     1      44.471   3.699  10.330  0.00  0.00    +0.000 A 
ATOM     30  N   UNL     1      43.605   2.675  10.554  0.00  0.00    +0.000 NA
ATOM     31  C   UNL     1      43.363   2.445  11.802  0.00  0.00    +0.000 A 
ATOM     32  N   UNL     1      43.948   3.114  12.849  0.00  0.00    +0.000 N 
ATOM     33  C   UNL     1      44.853   4.129  12.666  0.00  0.00    +0.000 A 
ATOM     34  O   UNL     1      45.448   4.642  13.608  0.00  0.00    +0.000 OA
ATOM     35  C   UNL     1      45.058   4.509  11.283  0.00  0.00    +0.000 A 
ATOM     36  H   UNL     1      43.778   2.832  13.802  0.00  0.00    +0.000 HD
ENDBRANCH  23  26
ENDBRANCH  21  22
ENDBRANCH   4  21
TORSDOF 9
ENDMDL
MODEL 5
REMARK VINA RESULT:    -7.174      2.991      8.399
REMARK INTER + INTRA:         -11.647
REMARK INTER:                 -10.200
REMARK INTRA:                  -1.447
REMARK UNBOUND:                -0.908
REMARK  Name = 
REMARK  9 active torsions:
REMARK  status: ('A' for Active; 'I' for Inactive)
REMARK    1  A    between atoms: N_1  and  C_2
REMARK    2  A    between atoms: C_2  and  C_3
REMARK    3  A    between atoms: C_3  and  N_4
REMARK    4  A    between atoms: C_3  and  C_26
REMARK    5  A    between atoms: N_4  and  C_5
REMARK    6  A    between atoms: C_5  and  C_6
REMARK    7  A    between atoms: C_9  and  C_10
REMARK    8  A    between atoms: C_10  and  N_11
REMARK    9  A    between atoms: C_12  and  C_14
REMARK                            x       y       z     vdW  Elec       q    Type
REMARK                         _______ _______ _______ _____ _____    ______ ____
ROOT
ATOM      1  C   UNL     1      49.665   7.418  15.014  0.00  0.00    +0.000 A 
ATOM      2  N   UNL     1      49.567   8.632  14.430  0.00  0.00    +0.000 NA
ATOM      3  C   UNL     1      48.728   8.728  13.382  0.00  0.00    +0.000 A 
ATOM      4  C   UNL     1      47.986   7.673  12.892  0.00  0.00    +0.000 A 
ATOM      5  C   UNL     1      48.190   6.471  13.536  0.00  0.00    +0.000 A 
ATOM      6  N   UNL     1      49.013   6.313  14.589  0.00  0.00    +0.000 NA
ENDROOT
BRANCH   1   7
ATOM      7  C   UNL     1      50.606   7.275  16.202  0.00  0.00    +0.000 C 
BRANCH   7   8
ATOM      8  N   UNL     1      51.345   5.992  16.217  0.00  0.00    +0.000 NA
ATOM      9  H   UNL     1      50.982   5.458  15.420  0.00  0.00    +0.000 HD
BRANCH   8  10
ATOM     10  C   UNL     1      51.054   5.192  17.435  0.00  0.00    +0.000 C 
BRANCH  10  11
ATOM     11  C   UNL     1      49.687   4.508  17.411  0.00  0.00    +0.000 A 
ATOM     12  C   UNL     1      48.603   5.106  18.057  0.00  0.00    +0.000 A 
ATOM     13  C   UNL     1      47.358   4.490  18.004  0.00  0.00    +0.000 A 
ATOM     14  C   UNL     1      47.221   3.289  17.320  0.00  0.00    +0.000 A 
ATOM     15  C   UNL     1      48.341   2.752  16.711  0.00  0.00    +0.000 A 
ATOM     16  N   UNL     1      49.562   3.333  16.741  0.00  0.00    +0.000 NA
ENDBRANCH  10  11
BRANCH  10  17
ATOM     17  C   UNL     1      52.204   4.204  17.803  0.00  0.00    +0.000 C 
BRANCH  17  18
ATOM     18  N   UNL     1      51.862   3.305  18.922  0.00  0.00    +0.000 NA
ATOM     19  H   UNL     1      51.109   3.740  19.457  0.00  0.00    +0.000 HD
ATOM     20  H   UNL     1      52.659   3.258  19.557  0.00  0.00    +0.000 HD
ENDBRANCH  17  18
ENDBRANCH  10  17
ENDBRANCH   8  10
ENDBRANCH   7   8
ENDBRANCH   1   7
BRANCH   4  21
ATOM     21  C   UNL     1      47.058   7.828  11.737  0.00  0.00    +0.000 C 
BRANCH  21  22
ATOM     22  N   UNL     1      46.437   6.582  11.369  0.00  0.00    +0.000 N 
ATOM     23  C   UNL     1      45.070   6.450  11.378  0.00  0.00    +0.000 C 
ATOM     24  O   UNL     1      44.339   7.386  11.690  0.00  0.00    +0.000 OA
ATOM     25  H   UNL     1      47.001   5.896  10.873  0.00  0.00    +0.000 HD
BRANCH  23  26
ATOM     26  C   UNL     1      44.529   5.116  11.088  0.00  0.00    +0.000 A 
ATOM     27  C   UNL     1      43.581   4.551  11.930  0.00  0.00    +0.000 A 
ATOM     28  S   UNL     1      43.301   2.894  11.617  0.00  0.00    +0.000 S 
ATOM     29  C   UNL     1      44.393   2.905  10.311  0.00  0.00    +0.000 A 
ATOM     30  N   UNL     1      44.721   1.764   9.648  0.00  0.00    +0.000 NA
ATOM     31  C   UNL     1      45.524   1.938   8.651  0.00  0.00    +0.000 A 
ATOM     32  N   UNL     1      45.989   3.157   8.225  0.00  0.00    +0.000 N 
ATOM     33  C   UNL     1      45.654   4.335   8.843  0.00  0.00    +0.000 A 
ATOM     34  O   UNL     1      45.989   5.423   8.387  0.00  0.00    +0.000 OA
ATOM     35  C   UNL     1      44.860   4.178  10.045  0.00  0.00    +0.000 A 
ATOM     36  H   UNL     1      46.549   3.234   7.389  0.00  0.00    +0.000 HD
ENDBRANCH  23  26
ENDBRANCH  21  22
ENDBRANCH   4  21
TORSDOF 9
ENDMDL
MODEL 6
REMARK VINA RESULT:    -6.964      3.156      8.433
REMARK INTER + INTRA:         -11.333
REMARK INTER:                  -9.863
REMARK INTRA:                  -1.470
REMARK UNBOUND:                -0.908
REMARK  Name = 
REMARK  9 active torsions:
REMARK  status: ('A' for Active; 'I' for Inactive)
REMARK    1  A    between atoms: N_1  and  C_2
REMARK    2  A    between atoms: C_2  and  C_3
REMARK    3  A    between atoms: C_3  and  N_4
REMARK    4  A    between atoms: C_3  and  C_26
REMARK    5  A    between atoms: N_4  and  C_5
REMARK    6  A    between atoms: C_5  and  C_6
REMARK    7  A    between atoms: C_9  and  C_10
REMARK    8  A    between atoms: C_10  and  N_11
REMARK    9  A    between atoms: C_12  and  C_14
REMARK                            x       y       z     vdW  Elec       q    Type
REMARK                         _______ _______ _______ _____ _____    ______ ____
ROOT
ATOM      1  C   UNL     1      50.386   7.303  16.141  0.00  0.00    +0.000 A 
ATOM      2  N   UNL     1      49.671   6.273  15.638  0.00  0.00    +0.000 NA
ATOM      3  C   UNL     1      48.708   6.585  14.752  0.00  0.00    +0.000 A 
ATOM      4  C   UNL     1      48.426   7.873  14.345  0.00  0.00    +0.000 A 
ATOM      5  C   UNL     1      49.188   8.853  14.949  0.00  0.00    +0.000 A 
ATOM      6  N   UNL     1      50.165   8.602  15.840  0.00  0.00    +0.000 NA
ENDROOT
BRANCH   1   7
ATOM      7  C   UNL     1      51.482   6.982  17.147  0.00  0.00    +0.000 C 
BRANCH   7   8
ATOM      8  N   UNL     1      52.177   5.704  16.871  0.00  0.00    +0.000 NA
ATOM      9  H   UNL     1      51.713   5.312  16.045  0.00  0.00    +0.000 HD
BRANCH   8  10
ATOM     10  C   UNL     1      51.996   4.719  17.970  0.00  0.00    +0.000 C 
BRANCH  10  11
ATOM     11  C   UNL     1      50.620   4.054  17.980  0.00  0.00    +0.000 A 
ATOM     12  C   UNL     1      49.662   4.460  18.912  0.00  0.00    +0.000 A 
ATOM     13  C   UNL     1      48.405   3.868  18.893  0.00  0.00    +0.000 A 
ATOM     14  C   UNL     1      48.130   2.880  17.956  0.00  0.00    +0.000 A 
ATOM     15  C   UNL     1      49.131   2.525  17.069  0.00  0.00    +0.000 A 
ATOM     16  N   UNL     1      50.360   3.088  17.061  0.00  0.00    +0.000 NA
ENDBRANCH  10  11
BRANCH  10  17
ATOM     17  C   UNL     1      53.156   3.680  18.053  0.00  0.00    +0.000 C 
BRANCH  17  18
ATOM     18  N   UNL     1      52.859   2.548  18.951  0.00  0.00    +0.000 NA
ATOM     19  H   UNL     1      52.192   1.937  18.479  0.00  0.00    +0.000 HD
ATOM     20  H   UNL     1      52.370   2.905  19.773  0.00  0.00    +0.000 HD
ENDBRANCH  17  18
ENDBRANCH  10  17
ENDBRANCH   8  10
ENDBRANCH   7   8
ENDBRANCH   1   7
BRANCH   4  21
ATOM     21  C   UNL     1      47.359   8.174  13.350  0.00  0.00    +0.000 C 
BRANCH  21  22
ATOM     22  N   UNL     1      47.018   7.023  12.556  0.00  0.00    +0.000 N 
ATOM     23  C   UNL     1      45.944   7.054  11.701  0.00  0.00    +0.000 C 
ATOM     24  O   UNL     1      45.250   8.061  11.581  0.00  0.00    +0.000 OA
ATOM     25  H   UNL     1      47.716   6.290  12.452  0.00  0.00    +0.000 HD
BRANCH  23  26
ATOM     26  C   UNL     1      45.609   5.804  11.008  0.00  0.00    +0.000 A 
ATOM     27  C   UNL     1      45.847   5.677   9.646  0.00  0.00    +0.000 A 
ATOM     28  S   UNL     1      45.118   4.292   8.959  0.00  0.00    +0.000 S 
ATOM     29  C   UNL     1      44.518   3.795  10.472  0.00  0.00    +0.000 A 
ATOM     30  N   UNL     1      43.694   2.720  10.593  0.00  0.00    +0.000 NA
ATOM     31  C   UNL     1      43.360   2.438  11.809  0.00  0.00    +0.000 A 
ATOM     32  N   UNL     1      43.815   3.103  12.920  0.00  0.00    +0.000 N 
ATOM     33  C   UNL     1      44.675   4.170  12.844  0.00  0.00    +0.000 A 
ATOM     34  O   UNL     1      45.158   4.684  13.848  0.00  0.00    +0.000 OA
ATOM     35  C   UNL     1      44.975   4.605  11.495  0.00  0.00    +0.000 A 
ATOM     36  H   UNL     1      43.581   2.782  13.847  0.00  0.00    +0.000 HD
ENDBRANCH  23  26
ENDBRANCH  21  22
ENDBRANCH   4  21
TORSDOF 9
ENDMDL
MODEL 7
REMARK VINA RESULT:    -6.850      5.106      6.756
REMARK INTER + INTRA:         -11.162
REMARK INTER:                  -9.961
REMARK INTRA:                  -1.201
REMARK UNBOUND:                -0.908
REMARK  Name = 
REMARK  9 active torsions:
REMARK  status: ('A' for Active; 'I' for Inactive)
REMARK    1  A    between atoms: N_1  and  C_2
REMARK    2  A    between atoms: C_2  and  C_3
REMARK    3  A    between atoms: C_3  and  N_4
REMARK    4  A    between atoms: C_3  and  C_26
REMARK    5  A    between atoms: N_4  and  C_5
REMARK    6  A    between atoms: C_5  and  C_6
REMARK    7  A    between atoms: C_9  and  C_10
REMARK    8  A    between atoms: C_10  and  N_11
REMARK    9  A    between atoms: C_12  and  C_14
REMARK                            x       y       z     vdW  Elec       q    Type
REMARK                         _______ _______ _______ _____ _____    ______ ____
ROOT
ATOM      1  C   UNL     1      46.889   6.488  12.618  0.00  0.00    +0.000 A 
ATOM      2  N   UNL     1      47.335   6.925  11.420  0.00  0.00    +0.000 NA
ATOM      3  C   UNL     1      48.606   7.364  11.376  0.00  0.00    +0.000 A 
ATOM      4  C   UNL     1      49.449   7.388  12.468  0.00  0.00    +0.000 A 
ATOM      5  C   UNL     1      48.882   6.957  13.649  0.00  0.00    +0.000 A 
ATOM      6  N   UNL     1      47.618   6.505  13.755  0.00  0.00    +0.000 NA
ENDROOT
BRANCH   1   7
ATOM      7  C   UNL     1      45.455   5.985  12.700  0.00  0.00    +0.000 C 
BRANCH   7   8
ATOM      8  N   UNL     1      44.814   5.813  11.376  0.00  0.00    +0.000 NA
ATOM      9  H   UNL     1      43.902   6.275  11.452  0.00  0.00    +0.000 HD
BRANCH   8  10
ATOM     10  C   UNL     1      44.546   4.385  11.064  0.00  0.00    +0.000 C 
BRANCH  10  11
ATOM     11  C   UNL     1      45.172   3.913   9.753  0.00  0.00    +0.000 A 
ATOM     12  C   UNL     1      45.175   2.552   9.438  0.00  0.00    +0.000 A 
ATOM     13  C   UNL     1      45.723   2.137   8.229  0.00  0.00    +0.000 A 
ATOM     14  C   UNL     1      46.264   3.081   7.366  0.00  0.00    +0.000 A 
ATOM     15  C   UNL     1      46.232   4.410   7.749  0.00  0.00    +0.000 A 
ATOM     16  N   UNL     1      45.702   4.843   8.915  0.00  0.00    +0.000 NA
ENDBRANCH  10  11
BRANCH  10  17
ATOM     17  C   UNL     1      44.873   3.431  12.254  0.00  0.00    +0.000 C 
BRANCH  17  18
ATOM     18  N   UNL     1      43.756   2.533  12.604  0.00  0.00    +0.000 NA
ATOM     19  H   UNL     1      43.556   1.948  11.792  0.00  0.00    +0.000 HD
ATOM     20  H   UNL     1      42.919   3.097  12.750  0.00  0.00    +0.000 HD
ENDBRANCH  17  18
ENDBRANCH  10  17
ENDBRANCH   8  10
ENDBRANCH   7   8
ENDBRANCH   1   7
BRANCH   4  21
ATOM     21  C   UNL     1      50.856   7.870  12.372  0.00  0.00    +0.000 C 
BRANCH  21  22
ATOM     22  N   UNL     1      51.422   7.635  11.070  0.00  0.00    +0.000 N 
ATOM     23  C   UNL     1      52.367   8.486  10.551  0.00  0.00    +0.000 C 
ATOM     24  O   UNL     1      52.761   9.464  11.182  0.00  0.00    +0.000 OA
ATOM     25  H   UNL     1      51.302   6.713  10.656  0.00  0.00    +0.000 HD
BRANCH  23  26
ATOM     26  C   UNL     1      52.814   8.227   9.177  0.00  0.00    +0.000 A 
ATOM     27  C   UNL     1      52.802   9.247   8.236  0.00  0.00    +0.000 A 
ATOM     28  S   UNL     1      53.053   8.696   6.638  0.00  0.00    +0.000 S 
ATOM     29  C   UNL     1      53.246   7.090   7.169  0.00  0.00    +0.000 A 
ATOM     30  N   UNL     1      53.385   6.062   6.290  0.00  0.00    +0.000 NA
ATOM     31  C   UNL     1      53.570   4.909   6.843  0.00  0.00    +0.000 A 
ATOM     32  N   UNL     1      53.679   4.698   8.194  0.00  0.00    +0.000 N 
ATOM     33  C   UNL     1      53.581   5.713   9.113  0.00  0.00    +0.000 A 
ATOM     34  O   UNL     1      53.789   5.526  10.308  0.00  0.00    +0.000 OA
ATOM     35  C   UNL     1      53.245   7.003   8.548  0.00  0.00    +0.000 A 
ATOM     36  H   UNL     1      53.905   3.785   8.559  0.00  0.00    +0.000 HD
ENDBRANCH  23  26
ENDBRANCH  21  22
ENDBRANCH   4  21
TORSDOF 9
ENDMDL
MODEL 8
REMARK VINA RESULT:    -6.551      3.335      8.786
REMARK INTER + INTRA:         -10.714
REMARK INTER:                  -9.701
REMARK INTRA:                  -1.013
REMARK UNBOUND:                -0.908
REMARK  Name = 
REMARK  9 active torsions:
REMARK  status: ('A' for Active; 'I' for Inactive)
REMARK    1  A    between atoms: N_1  and  C_2
REMARK    2  A    between atoms: C_2  and  C_3
REMARK    3  A    between atoms: C_3  and  N_4
REMARK    4  A    between atoms: C_3  and  C_26
REMARK    5  A    between atoms: N_4  and  C_5
REMARK    6  A    between atoms: C_5  and  C_6
REMARK    7  A    between atoms: C_9  and  C_10
REMARK    8  A    between atoms: C_10  and  N_11
REMARK    9  A    between atoms: C_12  and  C_14
REMARK                            x       y       z     vdW  Elec       q    Type
REMARK                         _______ _______ _______ _____ _____    ______ ____
ROOT
ATOM      1  C   UNL     1      49.847   6.870  16.071  0.00  0.00    +0.000 A 
ATOM      2  N   UNL     1      49.093   5.987  15.381  0.00  0.00    +0.000 NA
ATOM      3  C   UNL     1      48.533   6.436  14.242  0.00  0.00    +0.000 A 
ATOM      4  C   UNL     1      48.691   7.719  13.762  0.00  0.00    +0.000 A 
ATOM      5  C   UNL     1      49.448   8.550  14.562  0.00  0.00    +0.000 A 
ATOM      6  N   UNL     1      50.034   8.159  15.709  0.00  0.00    +0.000 NA
ENDROOT
BRANCH   1   7
ATOM      7  C   UNL     1      50.494   6.393  17.364  0.00  0.00    +0.000 C 
BRANCH   7   8
ATOM      8  N   UNL     1      49.861   5.178  17.925  0.00  0.00    +0.000 NA
ATOM      9  H   UNL     1      49.888   5.300  18.942  0.00  0.00    +0.000 HD
BRANCH   8  10
ATOM     10  C   UNL     1      50.640   3.949  17.621  0.00  0.00    +0.000 C 
BRANCH  10  11
ATOM     11  C   UNL     1      51.851   3.747  18.531  0.00  0.00    +0.000 A 
ATOM     12  C   UNL     1      51.899   4.390  19.770  0.00  0.00    +0.000 A 
ATOM     13  C   UNL     1      52.992   4.176  20.603  0.00  0.00    +0.000 A 
ATOM     14  C   UNL     1      54.016   3.338  20.181  0.00  0.00    +0.000 A 
ATOM     15  C   UNL     1      53.902   2.742  18.938  0.00  0.00    +0.000 A 
ATOM     16  N   UNL     1      52.849   2.927  18.110  0.00  0.00    +0.000 NA
ENDBRANCH  10  11
BRANCH  10  17
ATOM     17  C   UNL     1      49.750   2.671  17.527  0.00  0.00    +0.000 C 
BRANCH  17  18
ATOM     18  N   UNL     1      50.335   1.616  16.679  0.00  0.00    +0.000 NA
ATOM     19  H   UNL     1      49.640   1.353  15.979  0.00  0.00    +0.000 HD
ATOM     20  H   UNL     1      50.481   0.783  17.249  0.00  0.00    +0.000 HD
ENDBRANCH  17  18
ENDBRANCH  10  17
ENDBRANCH   8  10
ENDBRANCH   7   8
ENDBRANCH   1   7
BRANCH   4  21
ATOM     21  C   UNL     1      48.065   8.171  12.488  0.00  0.00    +0.000 C 
BRANCH  21  22
ATOM     22  N   UNL     1      47.533   7.072  11.725  0.00  0.00    +0.000 N 
ATOM     23  C   UNL     1      46.176   6.895  11.601  0.00  0.00    +0.000 C 
ATOM     24  O   UNL     1      45.380   7.669  12.126  0.00  0.00    +0.000 OA
ATOM     25  H   UNL     1      48.159   6.586  11.087  0.00  0.00    +0.000 HD
BRANCH  23  26
ATOM     26  C   UNL     1      45.725   5.692  10.892  0.00  0.00    +0.000 A 
ATOM     27  C   UNL     1      45.912   5.579   9.521  0.00  0.00    +0.000 A 
ATOM     28  S   UNL     1      45.057   4.272   8.827  0.00  0.00    +0.000 S 
ATOM     29  C   UNL     1      44.465   3.787  10.348  0.00  0.00    +0.000 A 
ATOM     30  N   UNL     1      43.564   2.776  10.471  0.00  0.00    +0.000 NA
ATOM     31  C   UNL     1      43.245   2.491  11.690  0.00  0.00    +0.000 A 
ATOM     32  N   UNL     1      43.783   3.092  12.800  0.00  0.00    +0.000 N 
ATOM     33  C   UNL     1      44.721   4.090  12.721  0.00  0.00    +0.000 A 
ATOM     34  O   UNL     1      45.272   4.542  13.720  0.00  0.00    +0.000 OA
ATOM     35  C   UNL     1      45.014   4.533  11.373  0.00  0.00    +0.000 A 
ATOM     36  H   UNL     1      43.553   2.768  13.727  0.00  0.00    +0.000 HD
ENDBRANCH  23  26
ENDBRANCH  21  22
ENDBRANCH   4  21
TORSDOF 9
ENDMDL
MODEL 9
REMARK VINA RESULT:    -6.425      3.527      9.516
REMARK INTER + INTRA:         -10.526
REMARK INTER:                  -9.438
REMARK INTRA:                  -1.087
REMARK UNBOUND:                -0.908
REMARK  Name = 
REMARK  9 active torsions:
REMARK  status: ('A' for Active; 'I' for Inactive)
REMARK    1  A    between atoms: N_1  and  C_2
REMARK    2  A    between atoms: C_2  and  C_3
REMARK    3  A    between atoms: C_3  and  N_4
REMARK    4  A    between atoms: C_3  and  C_26
REMARK    5  A    between atoms: N_4  and  C_5
REMARK    6  A    between atoms: C_5  and  C_6
REMARK    7  A    between atoms: C_9  and  C_10
REMARK    8  A    between atoms: C_10  and  N_11
REMARK    9  A    between atoms: C_12  and  C_14
REMARK                            x       y       z     vdW  Elec       q    Type
REMARK                         _______ _______ _______ _____ _____    ______ ____
ROOT
ATOM      1  C   UNL     1      47.441   5.797  14.155  0.00  0.00    +0.000 A 
ATOM      2  N   UNL     1      46.487   4.860  14.346  0.00  0.00    +0.000 NA
ATOM      3  C   UNL     1      45.610   4.682  13.341  0.00  0.00    +0.000 A 
ATOM      4  C   UNL     1      45.641   5.392  12.159  0.00  0.00    +0.000 A 
ATOM      5  C   UNL     1      46.631   6.351  12.082  0.00  0.00    +0.000 A 
ATOM      6  N   UNL     1      47.537   6.574  13.053  0.00  0.00    +0.000 NA
ENDROOT
BRANCH   1   7
ATOM      7  C   UNL     1      48.448   6.023  15.273  0.00  0.00    +0.000 C 
BRANCH   7   8
ATOM      8  N   UNL     1      47.919   5.696  16.617  0.00  0.00    +0.000 NA
ATOM      9  H   UNL     1      47.942   6.576  17.142  0.00  0.00    +0.000 HD
BRANCH   8  10
ATOM     10  C   UNL     1      48.793   4.740  17.346  0.00  0.00    +0.000 C 
BRANCH  10  11
ATOM     11  C   UNL     1      49.512   5.356  18.546  0.00  0.00    +0.000 A 
ATOM     12  C   UNL     1      50.667   6.116  18.345  0.00  0.00    +0.000 A 
ATOM     13  C   UNL     1      51.297   6.695  19.440  0.00  0.00    +0.000 A 
ATOM     14  C   UNL     1      50.772   6.497  20.711  0.00  0.00    +0.000 A 
ATOM     15  C   UNL     1      49.630   5.726  20.834  0.00  0.00    +0.000 A 
ATOM     16  N   UNL     1      48.994   5.156  19.786  0.00  0.00    +0.000 NA
ENDBRANCH  10  11
BRANCH  10  17
ATOM     17  C   UNL     1      48.067   3.409  17.711  0.00  0.00    +0.000 C 
BRANCH  17  18
ATOM     18  N   UNL     1      46.718   3.303  17.124  0.00  0.00    +0.000 NA
ATOM     19  H   UNL     1      46.118   3.987  17.586  0.00  0.00    +0.000 HD
ATOM     20  H   UNL     1      46.329   2.390  17.363  0.00  0.00    +0.000 HD
ENDBRANCH  17  18
ENDBRANCH  10  17
ENDBRANCH   8  10
ENDBRANCH   7   8
ENDBRANCH   1   7
BRANCH   4  21
ATOM     21  C   UNL     1      44.658   5.153  11.065  0.00  0.00    +0.000 C 
BRANCH  21  22
ATOM     22  N   UNL     1      45.185   4.289  10.042  0.00  0.00    +0.000 N 
ATOM     23  C   UNL     1      44.635   3.051   9.817  0.00  0.00    +0.000 C 
ATOM     24  O   UNL     1      43.677   2.648  10.472  0.00  0.00    +0.000 OA
ATOM     25  H   UNL     1      45.793   4.699   9.336  0.00  0.00    +0.000 HD
BRANCH  23  26
ATOM     26  C   UNL     1      45.300   2.198   8.824  0.00  0.00    +0.000 A 
ATOM     27  C   UNL     1      45.050   0.832   8.799  0.00  0.00    +0.000 A 
ATOM     28  S   UNL     1      46.130  -0.034   7.799  0.00  0.00    +0.000 S 
ATOM     29  C   UNL     1      46.920   1.397   7.326  0.00  0.00    +0.000 A 
ATOM     30  N   UNL     1      48.035   1.371   6.547  0.00  0.00    +0.000 NA
ATOM     31  C   UNL     1      48.493   2.537   6.232  0.00  0.00    +0.000 A 
ATOM     32  N   UNL     1      47.909   3.728   6.585  0.00  0.00    +0.000 N 
ATOM     33  C   UNL     1      46.765   3.798   7.339  0.00  0.00    +0.000 A 
ATOM     34  O   UNL     1      46.196   4.864   7.553  0.00  0.00    +0.000 OA
ATOM     35  C   UNL     1      46.287   2.520   7.824  0.00  0.00    +0.000 A 
ATOM     36  H   UNL     1      48.271   4.604   6.239  0.00  0.00    +0.000 HD
ENDBRANCH  23  26
ENDBRANCH  21  22
ENDBRANCH   4  21
TORSDOF 9
ENDMDL
