MODEL 1
REMARK VINA RESULT:    -7.609      0.000      0.000
REMARK INTER + INTRA:         -10.419
REMARK INTER:                  -9.833
REMARK INTRA:                  -0.586
REMARK UNBOUND:                -0.586
REMARK  Name = 
REMARK  6 active torsions:
REMARK  status: ('A' for Active; 'I' for Inactive)
REMARK    1  A    between atoms: C_1  and  O_2
REMARK    2  A    between atoms: O_2  and  C_3
REMARK    3  A    between atoms: C_3  and  C_5
REMARK    4  A    between atoms: C_8  and  O_9
REMARK    5  A    between atoms: O_9  and  C_10
REMARK    6  A    between atoms: C_10  and  C_11
REMARK                            x       y       z     vdW  Elec       q    Type
REMARK                         _______ _______ _______ _____ _____    ______ ____
ROOT
ATOM      1  C   UNL     1      46.531   4.738  13.525  0.00  0.00    +0.000 A 
ATOM      2  C   UNL     1      46.305   5.841  12.704  0.00  0.00    +0.000 A 
ATOM      3  C   UNL     1      45.570   5.711  11.511  0.00  0.00    +0.000 A 
ATOM      4  C   UNL     1      45.056   4.442  11.155  0.00  0.00    +0.000 A 
ATOM      5  C   UNL     1      45.268   3.369  12.007  0.00  0.00    +0.000 A 
ATOM      6  C   UNL     1      45.992   3.490  13.173  0.00  0.00    +0.000 A 
ENDROOT
BRANCH   1   7
ATOM      7  C   UNL     1      47.298   4.832  14.791  0.00  0.00    +0.000 C 
ATOM      8  O   UNL     1      48.216   5.604  14.970  0.00  0.00    +0.000 OA
BRANCH   7  10
ATOM      9  C   UNL     1      47.488   3.952  16.941  0.00  0.00    +0.000 C 
ATOM     10  O   UNL     1      46.770   3.977  15.707  0.00  0.00    +0.000 OA
ENDBRANCH   7  10
ENDBRANCH   1   7
BRANCH   4  11
ATOM     11  O   UNL     1      44.349   4.274   9.982  0.00  0.00    +0.000 OA
BRANCH  11  12
ATOM     12  C   UNL     1      44.335   2.902   9.521  0.00  0.00    +0.000 C 
BRANCH  12  13
ATOM     13  C   UNL     1      45.415   2.687   8.494  0.00  0.00    +0.000 A 
ATOM     14  C   UNL     1      46.009   1.423   8.358  0.00  0.00    +0.000 A 
ATOM     15  C   UNL     1      46.954   1.193   7.360  0.00  0.00    +0.000 A 
ATOM     16  C   UNL     1      47.305   2.222   6.499  0.00  0.00    +0.000 A 
ATOM     17  F   UNL     1      48.200   1.996   5.526  0.00  0.00    +0.000 F 
ATOM     18  C   UNL     1      46.736   3.485   6.622  0.00  0.00    +0.000 A 
ATOM     19  C   UNL     1      45.790   3.718   7.620  0.00  0.00    +0.000 A 
ENDBRANCH  12  13
ENDBRANCH  11  12
ENDBRANCH   4  11
TORSDOF 5
ENDMDL
MODEL 2
REMARK VINA RESULT:    -7.393      3.299      6.537
REMARK INTER + INTRA:         -10.139
REMARK INTER:                  -9.687
REMARK INTRA:                  -0.453
REMARK UNBOUND:                -0.586
REMARK  Name = 
REMARK  6 active torsions:
REMARK  status: ('A' for Active; 'I' for Inactive)
REMARK    1  A    between atoms: C_1  and  O_2
REMARK    2  A    between atoms: O_2  and  C_3
REMARK    3  A    between atoms: C_3  and  C_5
REMARK    4  A    between atoms: C_8  and  O_9
REMARK    5  A    between atoms: O_9  and  C_10
REMARK    6  A    between atoms: C_10  and  C_11
REMARK                            x       y       z     vdW  Elec       q    Type
REMARK                         _______ _______ _______ _____ _____    ______ ____
ROOT
ATOM      1  C   UNL     1      46.240   2.187   7.947  0.00  0.00    +0.000 A 
ATOM      2  C   UNL     1      46.327   3.567   7.771  0.00  0.00    +0.000 A 
ATOM      3  C   UNL     1      45.424   4.433   8.415  0.00  0.00    +0.000 A 
ATOM      4  C   UNL     1      44.424   3.885   9.251  0.00  0.00    +0.000 A 
ATOM      5  C   UNL     1      44.381   2.511   9.434  0.00  0.00    +0.000 A 
ATOM      6  C   UNL     1      45.260   1.659   8.802  0.00  0.00    +0.000 A 
ENDROOT
BRANCH   1   7
ATOM      7  C   UNL     1      47.173   1.240   7.289  0.00  0.00    +0.000 C 
ATOM      8  O   UNL     1      46.995   0.041   7.237  0.00  0.00    +0.000 OA
BRANCH   7  10
ATOM      9  C   UNL     1      47.954   2.274   5.351  0.00  0.00    +0.000 C 
ATOM     10  O   UNL     1      48.194   1.931   6.716  0.00  0.00    +0.000 OA
ENDBRANCH   7  10
ENDBRANCH   1   7
BRANCH   4  11
ATOM     11  O   UNL     1      43.509   4.702   9.881  0.00  0.00    +0.000 OA
BRANCH  11  12
ATOM     12  C   UNL     1      43.397   4.439  11.301  0.00  0.00    +0.000 C 
BRANCH  12  13
ATOM     13  C   UNL     1      44.630   4.919  12.018  0.00  0.00    +0.000 A 
ATOM     14  C   UNL     1      45.378   4.023  12.797  0.00  0.00    +0.000 A 
ATOM     15  C   UNL     1      46.563   4.437  13.403  0.00  0.00    +0.000 A 
ATOM     16  C   UNL     1      47.000   5.743  13.231  0.00  0.00    +0.000 A 
ATOM     17  F   UNL     1      48.150   6.135  13.797  0.00  0.00    +0.000 F 
ATOM     18  C   UNL     1      46.269   6.649  12.472  0.00  0.00    +0.000 A 
ATOM     19  C   UNL     1      45.082   6.237  11.864  0.00  0.00    +0.000 A 
ENDBRANCH  12  13
ENDBRANCH  11  12
ENDBRANCH   4  11
TORSDOF 5
ENDMDL
MODEL 3
REMARK VINA RESULT:    -7.387      1.038      1.483
REMARK INTER + INTRA:         -10.132
REMARK INTER:                  -9.506
REMARK INTRA:                  -0.626
REMARK UNBOUND:                -0.586
REMARK  Name = 
REMARK  6 active torsions:
REMARK  status: ('A' for Active; 'I' for Inactive)
REMARK    1  A    between atoms: C_1  and  O_2
REMARK    2  A    between atoms: O_2  and  C_3
REMARK    3  A    between atoms: C_3  and  C_5
REMARK    4  A    between atoms: C_8  and  O_9
REMARK    5  A    between atoms: O_9  and  C_10
REMARK    6  A    between atoms: C_10  and  C_11
REMARK                            x       y       z     vdW  Elec       q    Type
REMARK                         _______ _______ _______ _____ _____    ______ ____
ROOT
ATOM      1  C   UNL     1      46.680   5.464  12.870  0.00  0.00    +0.000 A 
ATOM      2  C   UNL     1      46.534   6.260  11.736  0.00  0.00    +0.000 A 
ATOM      3  C   UNL     1      45.697   5.858  10.678  0.00  0.00    +0.000 A 
ATOM      4  C   UNL     1      44.998   4.633  10.783  0.00  0.00    +0.000 A 
ATOM      5  C   UNL     1      45.137   3.876  11.937  0.00  0.00    +0.000 A 
ATOM      6  C   UNL     1      45.960   4.264  12.972  0.00  0.00    +0.000 A 
ENDROOT
BRANCH   1   7
ATOM      7  C   UNL     1      47.551   5.851  14.008  0.00  0.00    +0.000 C 
ATOM      8  O   UNL     1      47.755   5.147  14.974  0.00  0.00    +0.000 OA
BRANCH   7  10
ATOM      9  C   UNL     1      49.277   7.323  14.543  0.00  0.00    +0.000 C 
ATOM     10  O   UNL     1      48.114   7.063  13.757  0.00  0.00    +0.000 OA
ENDBRANCH   7  10
ENDBRANCH   1   7
BRANCH   4  11
ATOM     11  O   UNL     1      44.186   4.197   9.756  0.00  0.00    +0.000 OA
BRANCH  11  12
ATOM     12  C   UNL     1      44.351   2.790   9.461  0.00  0.00    +0.000 C 
BRANCH  12  13
ATOM     13  C   UNL     1      45.423   2.598   8.421  0.00  0.00    +0.000 A 
ATOM     14  C   UNL     1      46.102   1.373   8.336  0.00  0.00    +0.000 A 
ATOM     15  C   UNL     1      47.042   1.159   7.329  0.00  0.00    +0.000 A 
ATOM     16  C   UNL     1      47.303   2.164   6.410  0.00  0.00    +0.000 A 
ATOM     17  F   UNL     1      48.192   1.951   5.429  0.00  0.00    +0.000 F 
ATOM     18  C   UNL     1      46.648   3.389   6.482  0.00  0.00    +0.000 A 
ATOM     19  C   UNL     1      45.707   3.606   7.489  0.00  0.00    +0.000 A 
ENDBRANCH  12  13
ENDBRANCH  11  12
ENDBRANCH   4  11
TORSDOF 5
ENDMDL
MODEL 4
REMARK VINA RESULT:    -6.331      1.920      2.644
REMARK INTER + INTRA:          -8.768
REMARK INTER:                  -8.417
REMARK INTRA:                  -0.351
REMARK UNBOUND:                -0.586
REMARK  Name = 
REMARK  6 active torsions:
REMARK  status: ('A' for Active; 'I' for Inactive)
REMARK    1  A    between atoms: C_1  and  O_2
REMARK    2  A    between atoms: O_2  and  C_3
REMARK    3  A    between atoms: C_3  and  C_5
REMARK    4  A    between atoms: C_8  and  O_9
REMARK    5  A    between atoms: O_9  and  C_10
REMARK    6  A    between atoms: C_10  and  C_11
REMARK                            x       y       z     vdW  Elec       q    Type
REMARK                         _______ _______ _______ _____ _____    ______ ____
ROOT
ATOM      1  C   UNL     1      45.252   6.509  12.096  0.00  0.00    +0.000 A 
ATOM      2  C   UNL     1      44.150   6.685  11.262  0.00  0.00    +0.000 A 
ATOM      3  C   UNL     1      43.634   5.609  10.515  0.00  0.00    +0.000 A 
ATOM      4  C   UNL     1      44.248   4.340  10.626  0.00  0.00    +0.000 A 
ATOM      5  C   UNL     1      45.323   4.186  11.488  0.00  0.00    +0.000 A 
ATOM      6  C   UNL     1      45.834   5.237  12.217  0.00  0.00    +0.000 A 
ENDROOT
BRANCH   1   7
ATOM      7  C   UNL     1      45.826   7.616  12.902  0.00  0.00    +0.000 C 
ATOM      8  O   UNL     1      45.289   8.693  13.049  0.00  0.00    +0.000 OA
BRANCH   7  10
ATOM      9  C   UNL     1      48.082   8.086  13.248  0.00  0.00    +0.000 C 
ATOM     10  O   UNL     1      46.985   7.204  13.480  0.00  0.00    +0.000 OA
ENDBRANCH   7  10
ENDBRANCH   1   7
BRANCH   4  11
ATOM     11  O   UNL     1      43.782   3.268   9.892  0.00  0.00    +0.000 OA
BRANCH  11  12
ATOM     12  C   UNL     1      44.729   2.175   9.822  0.00  0.00    +0.000 C 
BRANCH  12  13
ATOM     13  C   UNL     1      45.534   2.263   8.553  0.00  0.00    +0.000 A 
ATOM     14  C   UNL     1      45.587   3.472   7.842  0.00  0.00    +0.000 A 
ATOM     15  C   UNL     1      46.389   3.586   6.708  0.00  0.00    +0.000 A 
ATOM     16  C   UNL     1      47.138   2.497   6.286  0.00  0.00    +0.000 A 
ATOM     17  F   UNL     1      47.925   2.613   5.207  0.00  0.00    +0.000 F 
ATOM     18  C   UNL     1      47.092   1.287   6.970  0.00  0.00    +0.000 A 
ATOM     19  C   UNL     1      46.289   1.170   8.105  0.00  0.00    +0.000 A 
ENDBRANCH  12  13
ENDBRANCH  11  12
ENDBRANCH   4  11
TORSDOF 5
ENDMDL
MODEL 5
REMARK VINA RESULT:    -5.731      2.602      3.737
REMARK INTER + INTRA:          -7.992
REMARK INTER:                  -7.296
REMARK INTRA:                  -0.696
REMARK UNBOUND:                -0.586
REMARK  Name = 
REMARK  6 active torsions:
REMARK  status: ('A' for Active; 'I' for Inactive)
REMARK    1  A    between atoms: C_1  and  O_2
REMARK    2  A    between atoms: O_2  and  C_3
REMARK    3  A    between atoms: C_3  and  C_5
REMARK    4  A    between atoms: C_8  and  O_9
REMARK    5  A    between atoms: O_9  and  C_10
REMARK    6  A    between atoms: C_10  and  C_11
REMARK                            x       y       z     vdW  Elec       q    Type
REMARK                         _______ _______ _______ _____ _____    ______ ____
ROOT
ATOM      1  C   UNL     1      47.266   8.033  12.562  0.00  0.00    +0.000 A 
ATOM      2  C   UNL     1      47.732   6.751  12.849  0.00  0.00    +0.000 A 
ATOM      3  C   UNL     1      46.876   5.638  12.762  0.00  0.00    +0.000 A 
ATOM      4  C   UNL     1      45.530   5.835  12.373  0.00  0.00    +0.000 A 
ATOM      5  C   UNL     1      45.102   7.116  12.063  0.00  0.00    +0.000 A 
ATOM      6  C   UNL     1      45.936   8.210  12.152  0.00  0.00    +0.000 A 
ENDROOT
BRANCH   1   7
ATOM      7  C   UNL     1      48.136   9.232  12.640  0.00  0.00    +0.000 C 
ATOM      8  O   UNL     1      48.288   9.893  13.645  0.00  0.00    +0.000 OA
BRANCH   7  10
ATOM      9  C   UNL     1      50.184   9.486  11.557  0.00  0.00    +0.000 C 
ATOM     10  O   UNL     1      48.763   9.417  11.448  0.00  0.00    +0.000 OA
ENDBRANCH   7  10
ENDBRANCH   1   7
BRANCH   4  11
ATOM     11  O   UNL     1      44.657   4.769  12.298  0.00  0.00    +0.000 OA
BRANCH  11  12
ATOM     12  C   UNL     1      43.897   4.746  11.066  0.00  0.00    +0.000 C 
BRANCH  12  13
ATOM     13  C   UNL     1      44.665   4.021   9.993  0.00  0.00    +0.000 A 
ATOM     14  C   UNL     1      44.637   2.619   9.940  0.00  0.00    +0.000 A 
ATOM     15  C   UNL     1      45.282   1.941   8.907  0.00  0.00    +0.000 A 
ATOM     16  C   UNL     1      45.951   2.661   7.928  0.00  0.00    +0.000 A 
ATOM     17  F   UNL     1      46.554   2.010   6.923  0.00  0.00    +0.000 F 
ATOM     18  C   UNL     1      45.999   4.050   7.967  0.00  0.00    +0.000 A 
ATOM     19  C   UNL     1      45.355   4.731   9.001  0.00  0.00    +0.000 A 
ENDBRANCH  12  13
ENDBRANCH  11  12
ENDBRANCH   4  11
TORSDOF 5
ENDMDL
MODEL 6
REMARK VINA RESULT:    -5.528      1.820      3.118
REMARK INTER + INTRA:          -7.730
REMARK INTER:                  -7.226
REMARK INTRA:                  -0.504
REMARK UNBOUND:                -0.586
REMARK  Name = 
REMARK  6 active torsions:
REMARK  status: ('A' for Active; 'I' for Inactive)
REMARK    1  A    between atoms: C_1  and  O_2
REMARK    2  A    between atoms: O_2  and  C_3
REMARK    3  A    between atoms: C_3  and  C_5
REMARK    4  A    between atoms: C_8  and  O_9
REMARK    5  A    between atoms: O_9  and  C_10
REMARK    6  A    between atoms: C_10  and  C_11
REMARK                            x       y       z     vdW  Elec       q    Type
REMARK                         _______ _______ _______ _____ _____    ______ ____
ROOT
ATOM      1  C   UNL     1      47.858   5.172  15.670  0.00  0.00    +0.000 A 
ATOM      2  C   UNL     1      47.006   4.257  15.055  0.00  0.00    +0.000 A 
ATOM      3  C   UNL     1      46.456   4.525  13.788  0.00  0.00    +0.000 A 
ATOM      4  C   UNL     1      46.783   5.738  13.139  0.00  0.00    +0.000 A 
ATOM      5  C   UNL     1      47.659   6.616  13.760  0.00  0.00    +0.000 A 
ATOM      6  C   UNL     1      48.195   6.360  15.003  0.00  0.00    +0.000 A 
ENDROOT
BRANCH   1   7
ATOM      7  C   UNL     1      48.461   4.928  17.004  0.00  0.00    +0.000 C 
ATOM      8  O   UNL     1      48.255   5.623  17.976  0.00  0.00    +0.000 OA
BRANCH   7  10
ATOM      9  C   UNL     1      50.489   3.931  17.574  0.00  0.00    +0.000 C 
ATOM     10  O   UNL     1      49.205   3.792  16.965  0.00  0.00    +0.000 OA
ENDBRANCH   7  10
ENDBRANCH   1   7
BRANCH   4  11
ATOM     11  O   UNL     1      46.245   6.043  11.906  0.00  0.00    +0.000 OA
BRANCH  11  12
ATOM     12  C   UNL     1      45.034   5.304  11.618  0.00  0.00    +0.000 C 
BRANCH  12  13
ATOM     13  C   UNL     1      45.199   4.505  10.352  0.00  0.00    +0.000 A 
ATOM     14  C   UNL     1      45.761   5.106   9.215  0.00  0.00    +0.000 A 
ATOM     15  C   UNL     1      45.989   4.356   8.064  0.00  0.00    +0.000 A 
ATOM     16  C   UNL     1      45.658   3.008   8.047  0.00  0.00    +0.000 A 
ATOM     17  F   UNL     1      45.897   2.282   6.945  0.00  0.00    +0.000 F 
ATOM     18  C   UNL     1      45.092   2.396   9.159  0.00  0.00    +0.000 A 
ATOM     19  C   UNL     1      44.862   3.145  10.314  0.00  0.00    +0.000 A 
ENDBRANCH  12  13
ENDBRANCH  11  12
ENDBRANCH   4  11
TORSDOF 5
ENDMDL
MODEL 7
REMARK VINA RESULT:    -5.428      3.349      6.791
REMARK INTER + INTRA:          -7.601
REMARK INTER:                  -7.116
REMARK INTRA:                  -0.485
REMARK UNBOUND:                -0.586
REMARK  Name = 
REMARK  6 active torsions:
REMARK  status: ('A' for Active; 'I' for Inactive)
REMARK    1  A    between atoms: C_1  and  O_2
REMARK    2  A    between atoms: O_2  and  C_3
REMARK    3  A    between atoms: C_3  and  C_5
REMARK    4  A    between atoms: C_8  and  O_9
REMARK    5  A    between atoms: O_9  and  C_10
REMARK    6  A    between atoms: C_10  and  C_11
REMARK                            x       y       z     vdW  Elec       q    Type
REMARK                         _______ _______ _______ _____ _____    ______ ____
ROOT
ATOM      1  C   UNL     1      45.214   3.606   9.543  0.00  0.00    +0.000 A 
ATOM      2  C   UNL     1      44.890   3.034  10.772  0.00  0.00    +0.000 A 
ATOM      3  C   UNL     1      44.901   3.805  11.949  0.00  0.00    +0.000 A 
ATOM      4  C   UNL     1      45.242   5.175  11.870  0.00  0.00    +0.000 A 
ATOM      5  C   UNL     1      45.528   5.725  10.630  0.00  0.00    +0.000 A 
ATOM      6  C   UNL     1      45.524   4.973   9.475  0.00  0.00    +0.000 A 
ENDROOT
BRANCH   1   7
ATOM      7  C   UNL     1      45.213   2.829   8.278  0.00  0.00    +0.000 C 
ATOM      8  O   UNL     1      44.726   3.227   7.241  0.00  0.00    +0.000 OA
BRANCH   7  10
ATOM      9  C   UNL     1      46.903   1.435   7.485  0.00  0.00    +0.000 C 
ATOM     10  O   UNL     1      45.887   1.663   8.460  0.00  0.00    +0.000 OA
ENDBRANCH   7  10
ENDBRANCH   1   7
BRANCH   4  11
ATOM     11  O   UNL     1      45.284   5.956  13.007  0.00  0.00    +0.000 OA
BRANCH  11  12
ATOM     12  C   UNL     1      46.622   6.112  13.538  0.00  0.00    +0.000 C 
BRANCH  12  13
ATOM     13  C   UNL     1      47.330   7.242  12.841  0.00  0.00    +0.000 A 
ATOM     14  C   UNL     1      46.747   8.518  12.808  0.00  0.00    +0.000 A 
ATOM     15  C   UNL     1      47.429   9.588  12.232  0.00  0.00    +0.000 A 
ATOM     16  C   UNL     1      48.690   9.387  11.691  0.00  0.00    +0.000 A 
ATOM     17  F   UNL     1      49.354  10.421  11.156  0.00  0.00    +0.000 F 
ATOM     18  C   UNL     1      49.282   8.129  11.704  0.00  0.00    +0.000 A 
ATOM     19  C   UNL     1      48.602   7.055  12.280  0.00  0.00    +0.000 A 
ENDBRANCH  12  13
ENDBRANCH  11  12
ENDBRANCH   4  11
TORSDOF 5
ENDMDL
MODEL 8
REMARK VINA RESULT:    -5.139      2.932      5.091
REMARK INTER + INTRA:          -7.227
REMARK INTER:                  -6.778
REMARK INTRA:                  -0.450
REMARK UNBOUND:                -0.586
REMARK  Name = 
REMARK  6 active torsions:
REMARK  status: ('A' for Active; 'I' for Inactive)
REMARK    1  A    between atoms: C_1  and  O_2
REMARK    2  A    between atoms: O_2  and  C_3
REMARK    3  A    between atoms: C_3  and  C_5
REMARK    4  A    between atoms: C_8  and  O_9
REMARK    5  A    between atoms: O_9  and  C_10
REMARK    6  A    between atoms: C_10  and  C_11
REMARK                            x       y       z     vdW  Elec       q    Type
REMARK                         _______ _______ _______ _____ _____    ______ ____
ROOT
ATOM      1  C   UNL     1      49.518   4.273  17.671  0.00  0.00    +0.000 A 
ATOM      2  C   UNL     1      49.057   5.432  17.049  0.00  0.00    +0.000 A 
ATOM      3  C   UNL     1      48.042   5.371  16.076  0.00  0.00    +0.000 A 
ATOM      4  C   UNL     1      47.489   4.115  15.737  0.00  0.00    +0.000 A 
ATOM      5  C   UNL     1      47.944   2.982  16.394  0.00  0.00    +0.000 A 
ATOM      6  C   UNL     1      48.941   3.036  17.344  0.00  0.00    +0.000 A 
ENDROOT
BRANCH   1   7
ATOM      7  C   UNL     1      50.584   4.293  18.702  0.00  0.00    +0.000 C 
ATOM      8  O   UNL     1      50.448   4.777  19.806  0.00  0.00    +0.000 OA
BRANCH   7  10
ATOM      9  C   UNL     1      52.712   4.512  17.777  0.00  0.00    +0.000 C 
ATOM     10  O   UNL     1      51.680   3.639  18.236  0.00  0.00    +0.000 OA
ENDBRANCH   7  10
ENDBRANCH   1   7
BRANCH   4  11
ATOM     11  O   UNL     1      46.508   4.016  14.772  0.00  0.00    +0.000 OA
BRANCH  11  12
ATOM     12  C   UNL     1      46.406   5.200  13.944  0.00  0.00    +0.000 C 
BRANCH  12  13
ATOM     13  C   UNL     1      45.865   4.840  12.586  0.00  0.00    +0.000 A 
ATOM     14  C   UNL     1      45.276   3.584  12.379  0.00  0.00    +0.000 A 
ATOM     15  C   UNL     1      44.704   3.270  11.147  0.00  0.00    +0.000 A 
ATOM     16  C   UNL     1      44.718   4.208  10.126  0.00  0.00    +0.000 A 
ATOM     17  F   UNL     1      44.150   3.914   8.948  0.00  0.00    +0.000 F 
ATOM     18  C   UNL     1      45.305   5.456  10.307  0.00  0.00    +0.000 A 
ATOM     19  C   UNL     1      45.879   5.773  11.539  0.00  0.00    +0.000 A 
ENDBRANCH  12  13
ENDBRANCH  11  12
ENDBRANCH   4  11
TORSDOF 5
ENDMDL
MODEL 9
REMARK VINA RESULT:    -4.839      4.476      6.224
REMARK INTER + INTRA:          -6.839
REMARK INTER:                  -6.309
REMARK INTRA:                  -0.530
REMARK UNBOUND:                -0.586
REMARK  Name = 
REMARK  6 active torsions:
REMARK  status: ('A' for Active; 'I' for Inactive)
REMARK    1  A    between atoms: C_1  and  O_2
REMARK    2  A    between atoms: O_2  and  C_3
REMARK    3  A    between atoms: C_3  and  C_5
REMARK    4  A    between atoms: C_8  and  O_9
REMARK    5  A    between atoms: O_9  and  C_10
REMARK    6  A    between atoms: C_10  and  C_11
REMARK                            x       y       z     vdW  Elec       q    Type
REMARK                         _______ _______ _______ _____ _____    ______ ____
ROOT
ATOM      1  C   UNL     1      49.729   4.251  17.834  0.00  0.00    +0.000 A 
ATOM      2  C   UNL     1      49.036   3.050  17.689  0.00  0.00    +0.000 A 
ATOM      3  C   UNL     1      47.935   2.956  16.818  0.00  0.00    +0.000 A 
ATOM      4  C   UNL     1      47.540   4.098  16.084  0.00  0.00    +0.000 A 
ATOM      5  C   UNL     1      48.267   5.270  16.223  0.00  0.00    +0.000 A 
ATOM      6  C   UNL     1      49.342   5.369  17.079  0.00  0.00    +0.000 A 
ENDROOT
BRANCH   1   7
ATOM      7  C   UNL     1      50.896   4.393  18.740  0.00  0.00    +0.000 C 
ATOM      8  O   UNL     1      50.838   4.892  19.844  0.00  0.00    +0.000 OA
BRANCH   7  10
ATOM      9  C   UNL     1      52.997   4.770  17.805  0.00  0.00    +0.000 C 
ATOM     10  O   UNL     1      51.989   3.825  18.165  0.00  0.00    +0.000 OA
ENDBRANCH   7  10
ENDBRANCH   1   7
BRANCH   4  11
ATOM     11  O   UNL     1      46.452   4.047  15.237  0.00  0.00    +0.000 OA
BRANCH  11  12
ATOM     12  C   UNL     1      46.822   4.068  13.837  0.00  0.00    +0.000 C 
BRANCH  12  13
ATOM     13  C   UNL     1      46.168   5.233  13.143  0.00  0.00    +0.000 A 
ATOM     14  C   UNL     1      46.908   6.397  12.884  0.00  0.00    +0.000 A 
ATOM     15  C   UNL     1      46.335   7.451  12.175  0.00  0.00    +0.000 A 
ATOM     16  C   UNL     1      45.028   7.344  11.725  0.00  0.00    +0.000 A 
ATOM     17  F   UNL     1      44.484   8.350  11.025  0.00  0.00    +0.000 F 
ATOM     18  C   UNL     1      44.274   6.204  11.979  0.00  0.00    +0.000 A 
ATOM     19  C   UNL     1      44.844   5.147  12.689  0.00  0.00    +0.000 A 
ENDBRANCH  12  13
ENDBRANCH  11  12
ENDBRANCH   4  11
TORSDOF 5
ENDMDL
