MODEL 1
REMARK VINA RESULT:    -7.841      0.000      0.000
REMARK INTER + INTRA:         -10.734
REMARK INTER:                 -10.132
REMARK INTRA:                  -0.601
REMARK UNBOUND:                -0.601
REMARK  Name = 
REMARK  6 active torsions:
REMARK  status: ('A' for Active; 'I' for Inactive)
REMARK    1  A    between atoms: C_1  and  O_2
REMARK    2  A    between atoms: O_2  and  C_3
REMARK    3  A    between atoms: C_6  and  C_7
REMARK    4  A    between atoms: C_7  and  N_8
REMARK    5  A    between atoms: N_8  and  C_9
REMARK    6  A    between atoms: C_12  and  C_13
REMARK                            x       y       z     vdW  Elec       q    Type
REMARK                         _______ _______ _______ _____ _____    ______ ____
ROOT
ATOM      1  N   UNL     1      43.782   4.884   9.880  0.00  0.00    +0.000 N 
ATOM      2  H   UNL     1      43.950   5.849   9.599  0.00  0.00    +0.000 HD
ENDROOT
BRANCH   1   3
ATOM      3  C   UNL     1      44.560   3.968   9.164  0.00  0.00    +0.000 A 
ATOM      4  C   UNL     1      45.539   4.341   8.237  0.00  0.00    +0.000 A 
ATOM      5  C   UNL     1      46.356   3.382   7.635  0.00  0.00    +0.000 A 
ATOM      6  C   UNL     1      46.190   2.054   7.996  0.00  0.00    +0.000 A 
ATOM      7  N   UNL     1      45.274   1.631   8.907  0.00  0.00    +0.000 NA
ATOM      8  C   UNL     1      44.507   2.602   9.470  0.00  0.00    +0.000 A 
BRANCH   6   9
ATOM      9  C   UNL     1      47.072   1.004   7.390  0.00  0.00    +0.000 C 
ATOM     10  N   UNL     1      46.730  -0.288   7.687  0.00  0.00    +0.000 N 
ATOM     11  O   UNL     1      48.038   1.272   6.688  0.00  0.00    +0.000 OA
ATOM     12  H   UNL     1      45.940  -0.465   8.299  0.00  0.00    +0.000 HD
ATOM     13  H   UNL     1      47.297  -1.048   7.343  0.00  0.00    +0.000 HD
ENDBRANCH   6   9
ENDBRANCH   1   3
BRANCH   1  14
ATOM     14  C   UNL     1      43.690   4.758  11.332  0.00  0.00    +0.000 C 
BRANCH  14  18
ATOM     15  C   UNL     1      47.489   5.845  13.113  0.00  0.00    +0.000 A 
ATOM     16  C   UNL     1      46.787   4.735  13.580  0.00  0.00    +0.000 A 
ATOM     17  C   UNL     1      45.549   4.398  13.018  0.00  0.00    +0.000 A 
ATOM     18  C   UNL     1      44.997   5.161  11.979  0.00  0.00    +0.000 A 
ATOM     19  C   UNL     1      45.709   6.276  11.518  0.00  0.00    +0.000 A 
ATOM     20  C   UNL     1      46.943   6.610  12.082  0.00  0.00    +0.000 A 
BRANCH  15  22
ATOM     21  C   UNL     1      49.389   7.232  12.765  0.00  0.00    +0.000 C 
ATOM     22  O   UNL     1      48.702   6.283  13.570  0.00  0.00    +0.000 OA
ENDBRANCH  15  22
ENDBRANCH  14  18
ENDBRANCH   1  14
TORSDOF 5
ENDMDL
MODEL 2
REMARK VINA RESULT:    -7.498      2.370      6.272
REMARK INTER + INTRA:         -10.291
REMARK INTER:                  -9.807
REMARK INTRA:                  -0.484
REMARK UNBOUND:                -0.601
REMARK  Name = 
REMARK  6 active torsions:
REMARK  status: ('A' for Active; 'I' for Inactive)
REMARK    1  A    between atoms: C_1  and  O_2
REMARK    2  A    between atoms: O_2  and  C_3
REMARK    3  A    between atoms: C_6  and  C_7
REMARK    4  A    between atoms: C_7  and  N_8
REMARK    5  A    between atoms: N_8  and  C_9
REMARK    6  A    between atoms: C_12  and  C_13
REMARK                            x       y       z     vdW  Elec       q    Type
REMARK                         _______ _______ _______ _____ _____    ______ ____
ROOT
ATOM      1  N   UNL     1      44.611   5.490  10.528  0.00  0.00    +0.000 N 
ATOM      2  H   UNL     1      43.996   6.297  10.628  0.00  0.00    +0.000 HD
ENDROOT
BRANCH   1   3
ATOM      3  C   UNL     1      45.366   5.239  11.680  0.00  0.00    +0.000 A 
ATOM      4  C   UNL     1      46.352   6.105  12.162  0.00  0.00    +0.000 A 
ATOM      5  C   UNL     1      46.996   5.850  13.375  0.00  0.00    +0.000 A 
ATOM      6  C   UNL     1      46.616   4.731  14.101  0.00  0.00    +0.000 A 
ATOM      7  N   UNL     1      45.649   3.866  13.697  0.00  0.00    +0.000 NA
ATOM      8  C   UNL     1      45.048   4.159  12.514  0.00  0.00    +0.000 A 
BRANCH   6   9
ATOM      9  C   UNL     1      47.266   4.447  15.421  0.00  0.00    +0.000 C 
ATOM     10  N   UNL     1      47.787   5.539  16.062  0.00  0.00    +0.000 N 
ATOM     11  O   UNL     1      47.342   3.322  15.896  0.00  0.00    +0.000 OA
ATOM     12  H   UNL     1      47.730   6.450  15.618  0.00  0.00    +0.000 HD
ATOM     13  H   UNL     1      48.270   5.422  16.940  0.00  0.00    +0.000 HD
ENDBRANCH   6   9
ENDBRANCH   1   3
BRANCH   1  14
ATOM     14  C   UNL     1      43.932   4.379   9.866  0.00  0.00    +0.000 C 
BRANCH  14  18
ATOM     15  C   UNL     1      46.662   2.075   7.412  0.00  0.00    +0.000 A 
ATOM     16  C   UNL     1      45.894   1.444   8.388  0.00  0.00    +0.000 A 
ATOM     17  C   UNL     1      45.027   2.193   9.195  0.00  0.00    +0.000 A 
ATOM     18  C   UNL     1      44.913   3.582   9.036  0.00  0.00    +0.000 A 
ATOM     19  C   UNL     1      45.692   4.208   8.054  0.00  0.00    +0.000 A 
ATOM     20  C   UNL     1      46.556   3.457   7.251  0.00  0.00    +0.000 A 
BRANCH  15  22
ATOM     21  C   UNL     1      48.008   2.235   5.458  0.00  0.00    +0.000 C 
ATOM     22  O   UNL     1      47.542   1.467   6.559  0.00  0.00    +0.000 OA
ENDBRANCH  15  22
ENDBRANCH  14  18
ENDBRANCH   1  14
TORSDOF 5
ENDMDL
MODEL 3
REMARK VINA RESULT:    -6.918      2.359      6.313
REMARK INTER + INTRA:          -9.542
REMARK INTER:                  -9.016
REMARK INTRA:                  -0.526
REMARK UNBOUND:                -0.601
REMARK  Name = 
REMARK  6 active torsions:
REMARK  status: ('A' for Active; 'I' for Inactive)
REMARK    1  A    between atoms: C_1  and  O_2
REMARK    2  A    between atoms: O_2  and  C_3
REMARK    3  A    between atoms: C_6  and  C_7
REMARK    4  A    between atoms: C_7  and  N_8
REMARK    5  A    between atoms: N_8  and  C_9
REMARK    6  A    between atoms: C_12  and  C_13
REMARK                            x       y       z     vdW  Elec       q    Type
REMARK                         _______ _______ _______ _____ _____    ______ ____
ROOT
ATOM      1  N   UNL     1      44.402   2.874  12.431  0.00  0.00    +0.000 N 
ATOM      2  H   UNL     1      44.838   1.953  12.439  0.00  0.00    +0.000 HD
ENDROOT
BRANCH   1   3
ATOM      3  C   UNL     1      45.299   3.900  12.753  0.00  0.00    +0.000 A 
ATOM      4  C   UNL     1      44.964   5.257  12.728  0.00  0.00    +0.000 A 
ATOM      5  C   UNL     1      45.872   6.225  13.163  0.00  0.00    +0.000 A 
ATOM      6  C   UNL     1      47.103   5.806  13.643  0.00  0.00    +0.000 A 
ATOM      7  N   UNL     1      47.478   4.501  13.715  0.00  0.00    +0.000 NA
ATOM      8  C   UNL     1      46.558   3.597  13.285  0.00  0.00    +0.000 A 
BRANCH   6   9
ATOM      9  C   UNL     1      48.087   6.818  14.146  0.00  0.00    +0.000 C 
ATOM     10  N   UNL     1      47.569   8.061  14.397  0.00  0.00    +0.000 N 
ATOM     11  O   UNL     1      49.273   6.567  14.314  0.00  0.00    +0.000 OA
ATOM     12  H   UNL     1      46.586   8.236  14.214  0.00  0.00    +0.000 HD
ATOM     13  H   UNL     1      48.177   8.804  14.706  0.00  0.00    +0.000 HD
ENDBRANCH   6   9
ENDBRANCH   1   3
BRANCH   1  14
ATOM     14  C   UNL     1      43.516   3.038  11.282  0.00  0.00    +0.000 C 
BRANCH  14  18
ATOM     15  C   UNL     1      45.903   3.118   7.665  0.00  0.00    +0.000 A 
ATOM     16  C   UNL     1      45.343   4.293   8.162  0.00  0.00    +0.000 A 
ATOM     17  C   UNL     1      44.554   4.263   9.319  0.00  0.00    +0.000 A 
ATOM     18  C   UNL     1      44.317   3.058   9.999  0.00  0.00    +0.000 A 
ATOM     19  C   UNL     1      44.882   1.882   9.490  0.00  0.00    +0.000 A 
ATOM     20  C   UNL     1      45.668   1.917   8.334  0.00  0.00    +0.000 A 
BRANCH  15  22
ATOM     21  C   UNL     1      47.937   2.342   6.707  0.00  0.00    +0.000 C 
ATOM     22  O   UNL     1      46.691   3.007   6.552  0.00  0.00    +0.000 OA
ENDBRANCH  15  22
ENDBRANCH  14  18
ENDBRANCH   1  14
TORSDOF 5
ENDMDL
MODEL 4
REMARK VINA RESULT:    -6.231      2.923      6.111
REMARK INTER + INTRA:          -8.654
REMARK INTER:                  -7.935
REMARK INTRA:                  -0.719
REMARK UNBOUND:                -0.601
REMARK  Name = 
REMARK  6 active torsions:
REMARK  status: ('A' for Active; 'I' for Inactive)
REMARK    1  A    between atoms: C_1  and  O_2
REMARK    2  A    between atoms: O_2  and  C_3
REMARK    3  A    between atoms: C_6  and  C_7
REMARK    4  A    between atoms: C_7  and  N_8
REMARK    5  A    between atoms: N_8  and  C_9
REMARK    6  A    between atoms: C_12  and  C_13
REMARK                            x       y       z     vdW  Elec       q    Type
REMARK                         _______ _______ _______ _____ _____    ______ ____
ROOT
ATOM      1  N   UNL     1      43.597   5.876  12.933  0.00  0.00    +0.000 N 
ATOM      2  H   UNL     1      43.504   5.094  13.581  0.00  0.00    +0.000 HD
ENDROOT
BRANCH   1   3
ATOM      3  C   UNL     1      44.914   6.337  12.827  0.00  0.00    +0.000 A 
ATOM      4  C   UNL     1      46.033   5.567  13.158  0.00  0.00    +0.000 A 
ATOM      5  C   UNL     1      47.324   6.046  12.929  0.00  0.00    +0.000 A 
ATOM      6  C   UNL     1      47.470   7.295  12.343  0.00  0.00    +0.000 A 
ATOM      7  N   UNL     1      46.422   8.080  11.978  0.00  0.00    +0.000 NA
ATOM      8  C   UNL     1      45.186   7.568  12.216  0.00  0.00    +0.000 A 
BRANCH   6   9
ATOM      9  C   UNL     1      48.842   7.825  12.056  0.00  0.00    +0.000 C 
ATOM     10  N   UNL     1      49.874   7.015  12.450  0.00  0.00    +0.000 N 
ATOM     11  O   UNL     1      49.038   8.906  11.519  0.00  0.00    +0.000 OA
ATOM     12  H   UNL     1      49.668   6.140  12.921  0.00  0.00    +0.000 HD
ATOM     13  H   UNL     1      50.827   7.319  12.320  0.00  0.00    +0.000 HD
ENDBRANCH   6   9
ENDBRANCH   1   3
BRANCH   1  14
ATOM     14  C   UNL     1      42.819   5.659  11.717  0.00  0.00    +0.000 C 
BRANCH  14  18
ATOM     15  C   UNL     1      44.669   2.497   9.400  0.00  0.00    +0.000 A 
ATOM     16  C   UNL     1      44.620   3.797   8.900  0.00  0.00    +0.000 A 
ATOM     17  C   UNL     1      44.003   4.814   9.640  0.00  0.00    +0.000 A 
ATOM     18  C   UNL     1      43.430   4.548  10.892  0.00  0.00    +0.000 A 
ATOM     19  C   UNL     1      43.481   3.238  11.386  0.00  0.00    +0.000 A 
ATOM     20  C   UNL     1      44.097   2.226  10.643  0.00  0.00    +0.000 A 
BRANCH  15  22
ATOM     21  C   UNL     1      46.395   1.660   7.996  0.00  0.00    +0.000 C 
ATOM     22  O   UNL     1      45.239   1.417   8.785  0.00  0.00    +0.000 OA
ENDBRANCH  15  22
ENDBRANCH  14  18
ENDBRANCH   1  14
TORSDOF 5
ENDMDL
MODEL 5
REMARK VINA RESULT:    -6.164      1.426      2.009
REMARK INTER + INTRA:          -8.567
REMARK INTER:                  -8.280
REMARK INTRA:                  -0.287
REMARK UNBOUND:                -0.601
REMARK  Name = 
REMARK  6 active torsions:
REMARK  status: ('A' for Active; 'I' for Inactive)
REMARK    1  A    between atoms: C_1  and  O_2
REMARK    2  A    between atoms: O_2  and  C_3
REMARK    3  A    between atoms: C_6  and  C_7
REMARK    4  A    between atoms: C_7  and  N_8
REMARK    5  A    between atoms: N_8  and  C_9
REMARK    6  A    between atoms: C_12  and  C_13
REMARK                            x       y       z     vdW  Elec       q    Type
REMARK                         _______ _______ _______ _____ _____    ______ ____
ROOT
ATOM      1  N   UNL     1      43.944   4.793  11.019  0.00  0.00    +0.000 N 
ATOM      2  H   UNL     1      42.939   4.696  10.878  0.00  0.00    +0.000 HD
ENDROOT
BRANCH   1   3
ATOM      3  C   UNL     1      44.694   4.134  10.038  0.00  0.00    +0.000 A 
ATOM      4  C   UNL     1      44.687   2.748   9.858  0.00  0.00    +0.000 A 
ATOM      5  C   UNL     1      45.373   2.162   8.793  0.00  0.00    +0.000 A 
ATOM      6  C   UNL     1      46.042   2.989   7.904  0.00  0.00    +0.000 A 
ATOM      7  N   UNL     1      46.066   4.344   8.011  0.00  0.00    +0.000 NA
ATOM      8  C   UNL     1      45.379   4.867   9.060  0.00  0.00    +0.000 A 
BRANCH   6   9
ATOM      9  C   UNL     1      46.763   2.393   6.733  0.00  0.00    +0.000 C 
ATOM     10  N   UNL     1      47.348   1.177   6.966  0.00  0.00    +0.000 N 
ATOM     11  O   UNL     1      46.838   2.949   5.646  0.00  0.00    +0.000 OA
ATOM     12  H   UNL     1      47.288   0.765   7.892  0.00  0.00    +0.000 HD
ATOM     13  H   UNL     1      47.880   0.728   6.235  0.00  0.00    +0.000 HD
ENDBRANCH   6   9
ENDBRANCH   1   3
BRANCH   1  14
ATOM     14  C   UNL     1      44.303   6.158  11.393  0.00  0.00    +0.000 C 
BRANCH  14  18
ATOM     15  C   UNL     1      47.720   6.191  14.060  0.00  0.00    +0.000 A 
ATOM     16  C   UNL     1      47.423   7.311  13.285  0.00  0.00    +0.000 A 
ATOM     17  C   UNL     1      46.332   7.292  12.407  0.00  0.00    +0.000 A 
ATOM     18  C   UNL     1      45.517   6.155  12.295  0.00  0.00    +0.000 A 
ATOM     19  C   UNL     1      45.824   5.033  13.076  0.00  0.00    +0.000 A 
ATOM     20  C   UNL     1      46.916   5.056  13.949  0.00  0.00    +0.000 A 
BRANCH  15  22
ATOM     21  C   UNL     1      49.661   7.165  15.027  0.00  0.00    +0.000 C 
ATOM     22  O   UNL     1      48.750   6.078  14.953  0.00  0.00    +0.000 OA
ENDBRANCH  15  22
ENDBRANCH  14  18
ENDBRANCH   1  14
TORSDOF 5
ENDMDL
MODEL 6
REMARK VINA RESULT:    -5.687      4.391      6.110
REMARK INTER + INTRA:          -7.950
REMARK INTER:                  -7.495
REMARK INTRA:                  -0.455
REMARK UNBOUND:                -0.601
REMARK  Name = 
REMARK  6 active torsions:
REMARK  status: ('A' for Active; 'I' for Inactive)
REMARK    1  A    between atoms: C_1  and  O_2
REMARK    2  A    between atoms: O_2  and  C_3
REMARK    3  A    between atoms: C_6  and  C_7
REMARK    4  A    between atoms: C_7  and  N_8
REMARK    5  A    between atoms: N_8  and  C_9
REMARK    6  A    between atoms: C_12  and  C_13
REMARK                            x       y       z     vdW  Elec       q    Type
REMARK                         _______ _______ _______ _____ _____    ______ ____
ROOT
ATOM      1  N   UNL     1      47.443   5.211  15.186  0.00  0.00    +0.000 N 
ATOM      2  H   UNL     1      48.430   5.409  15.022  0.00  0.00    +0.000 HD
ENDROOT
BRANCH   1   3
ATOM      3  C   UNL     1      46.755   4.886  14.012  0.00  0.00    +0.000 A 
ATOM      4  C   UNL     1      46.491   3.574  13.608  0.00  0.00    +0.000 A 
ATOM      5  C   UNL     1      45.705   3.318  12.481  0.00  0.00    +0.000 A 
ATOM      6  C   UNL     1      45.174   4.395  11.788  0.00  0.00    +0.000 A 
ATOM      7  N   UNL     1      45.375   5.691  12.145  0.00  0.00    +0.000 NA
ATOM      8  C   UNL     1      46.141   5.889  13.251  0.00  0.00    +0.000 A 
BRANCH   6   9
ATOM      9  C   UNL     1      44.303   4.152  10.594  0.00  0.00    +0.000 C 
ATOM     10  N   UNL     1      43.520   5.211  10.218  0.00  0.00    +0.000 N 
ATOM     11  O   UNL     1      44.276   3.084   9.996  0.00  0.00    +0.000 OA
ATOM     12  H   UNL     1      43.549   6.068  10.760  0.00  0.00    +0.000 HD
ATOM     13  H   UNL     1      42.882   5.112   9.442  0.00  0.00    +0.000 HD
ENDBRANCH   6   9
ENDBRANCH   1   3
BRANCH   1  14
ATOM     14  C   UNL     1      47.254   4.385  16.375  0.00  0.00    +0.000 C 
BRANCH  14  18
ATOM     15  C   UNL     1      51.075   2.717  17.557  0.00  0.00    +0.000 A 
ATOM     16  C   UNL     1      50.092   1.897  17.005  0.00  0.00    +0.000 A 
ATOM     17  C   UNL     1      48.850   2.433  16.644  0.00  0.00    +0.000 A 
ATOM     18  C   UNL     1      48.573   3.797  16.824  0.00  0.00    +0.000 A 
ATOM     19  C   UNL     1      49.566   4.612  17.381  0.00  0.00    +0.000 A 
ATOM     20  C   UNL     1      50.804   4.073  17.742  0.00  0.00    +0.000 A 
BRANCH  15  22
ATOM     21  C   UNL     1      52.680   0.969  17.716  0.00  0.00    +0.000 C 
ATOM     22  O   UNL     1      52.326   2.325  17.951  0.00  0.00    +0.000 OA
ENDBRANCH  15  22
ENDBRANCH  14  18
ENDBRANCH   1  14
TORSDOF 5
ENDMDL
MODEL 7
REMARK VINA RESULT:    -5.568      3.799      6.896
REMARK INTER + INTRA:          -7.797
REMARK INTER:                  -7.430
REMARK INTRA:                  -0.367
REMARK UNBOUND:                -0.601
REMARK  Name = 
REMARK  6 active torsions:
REMARK  status: ('A' for Active; 'I' for Inactive)
REMARK    1  A    between atoms: C_1  and  O_2
REMARK    2  A    between atoms: O_2  and  C_3
REMARK    3  A    between atoms: C_6  and  C_7
REMARK    4  A    between atoms: C_7  and  N_8
REMARK    5  A    between atoms: N_8  and  C_9
REMARK    6  A    between atoms: C_12  and  C_13
REMARK                            x       y       z     vdW  Elec       q    Type
REMARK                         _______ _______ _______ _____ _____    ______ ____
ROOT
ATOM      1  N   UNL     1      46.300   6.002  13.412  0.00  0.00    +0.000 N 
ATOM      2  H   UNL     1      46.247   7.007  13.576  0.00  0.00    +0.000 HD
ENDROOT
BRANCH   1   3
ATOM      3  C   UNL     1      47.060   5.335  14.380  0.00  0.00    +0.000 A 
ATOM      4  C   UNL     1      47.870   5.989  15.314  0.00  0.00    +0.000 A 
ATOM      5  C   UNL     1      48.519   5.273  16.322  0.00  0.00    +0.000 A 
ATOM      6  C   UNL     1      48.322   3.903  16.390  0.00  0.00    +0.000 A 
ATOM      7  N   UNL     1      47.528   3.214  15.527  0.00  0.00    +0.000 NA
ATOM      8  C   UNL     1      46.914   3.955  14.568  0.00  0.00    +0.000 A 
BRANCH   6   9
ATOM      9  C   UNL     1      48.980   3.111  17.479  0.00  0.00    +0.000 C 
ATOM     10  N   UNL     1      48.365   3.176  18.701  0.00  0.00    +0.000 N 
ATOM     11  O   UNL     1      50.000   2.459  17.303  0.00  0.00    +0.000 OA
ATOM     12  H   UNL     1      47.538   3.754  18.811  0.00  0.00    +0.000 HD
ATOM     13  H   UNL     1      48.769   2.696  19.491  0.00  0.00    +0.000 HD
ENDBRANCH   6   9
ENDBRANCH   1   3
BRANCH   1  14
ATOM     14  C   UNL     1      45.003   5.454  13.024  0.00  0.00    +0.000 C 
BRANCH  14  18
ATOM     15  C   UNL     1      45.116   3.791   9.023  0.00  0.00    +0.000 A 
ATOM     16  C   UNL     1      44.546   3.066  10.068  0.00  0.00    +0.000 A 
ATOM     17  C   UNL     1      44.530   3.596  11.365  0.00  0.00    +0.000 A 
ATOM     18  C   UNL     1      45.078   4.859  11.635  0.00  0.00    +0.000 A 
ATOM     19  C   UNL     1      45.650   5.578  10.579  0.00  0.00    +0.000 A 
ATOM     20  C   UNL     1      45.666   5.046   9.286  0.00  0.00    +0.000 A 
BRANCH  15  22
ATOM     21  C   UNL     1      46.419   3.655   7.038  0.00  0.00    +0.000 C 
ATOM     22  O   UNL     1      45.197   3.395   7.716  0.00  0.00    +0.000 OA
ENDBRANCH  15  22
ENDBRANCH  14  18
ENDBRANCH   1  14
TORSDOF 5
ENDMDL
MODEL 8
REMARK VINA RESULT:    -5.445      3.292      4.408
REMARK INTER + INTRA:          -7.638
REMARK INTER:                  -7.235
REMARK INTRA:                  -0.404
REMARK UNBOUND:                -0.601
REMARK  Name = 
REMARK  6 active torsions:
REMARK  status: ('A' for Active; 'I' for Inactive)
REMARK    1  A    between atoms: C_1  and  O_2
REMARK    2  A    between atoms: O_2  and  C_3
REMARK    3  A    between atoms: C_6  and  C_7
REMARK    4  A    between atoms: C_7  and  N_8
REMARK    5  A    between atoms: N_8  and  C_9
REMARK    6  A    between atoms: C_12  and  C_13
REMARK                            x       y       z     vdW  Elec       q    Type
REMARK                         _______ _______ _______ _____ _____    ______ ____
ROOT
ATOM      1  N   UNL     1      46.160   6.088  13.451  0.00  0.00    +0.000 N 
ATOM      2  H   UNL     1      45.770   7.028  13.519  0.00  0.00    +0.000 HD
ENDROOT
BRANCH   1   3
ATOM      3  C   UNL     1      45.699   5.391  12.329  0.00  0.00    +0.000 A 
ATOM      4  C   UNL     1      45.765   5.892  11.025  0.00  0.00    +0.000 A 
ATOM      5  C   UNL     1      45.387   5.103   9.937  0.00  0.00    +0.000 A 
ATOM      6  C   UNL     1      44.967   3.803  10.178  0.00  0.00    +0.000 A 
ATOM      7  N   UNL     1      44.904   3.252  11.419  0.00  0.00    +0.000 NA
ATOM      8  C   UNL     1      45.288   4.057  12.445  0.00  0.00    +0.000 A 
BRANCH   6   9
ATOM      9  C   UNL     1      44.584   2.921   9.028  0.00  0.00    +0.000 C 
ATOM     10  N   UNL     1      44.319   3.576   7.855  0.00  0.00    +0.000 N 
ATOM     11  O   UNL     1      44.500   1.704   9.123  0.00  0.00    +0.000 OA
ATOM     12  H   UNL     1      44.369   4.589   7.828  0.00  0.00    +0.000 HD
ATOM     13  H   UNL     1      44.022   3.052   7.045  0.00  0.00    +0.000 HD
ENDBRANCH   6   9
ENDBRANCH   1   3
BRANCH   1  14
ATOM     14  C   UNL     1      47.587   6.078  13.760  0.00  0.00    +0.000 C 
BRANCH  14  18
ATOM     15  C   UNL     1      48.338   4.524  17.735  0.00  0.00    +0.000 A 
ATOM     16  C   UNL     1      47.478   3.851  16.870  0.00  0.00    +0.000 A 
ATOM     17  C   UNL     1      47.219   4.366  15.593  0.00  0.00    +0.000 A 
ATOM     18  C   UNL     1      47.819   5.558  15.161  0.00  0.00    +0.000 A 
ATOM     19  C   UNL     1      48.681   6.228  16.038  0.00  0.00    +0.000 A 
ATOM     20  C   UNL     1      48.936   5.712  17.312  0.00  0.00    +0.000 A 
BRANCH  15  22
ATOM     21  C   UNL     1      49.923   4.596  19.507  0.00  0.00    +0.000 C 
ATOM     22  O   UNL     1      48.678   4.134  19.002  0.00  0.00    +0.000 OA
ENDBRANCH  15  22
ENDBRANCH  14  18
ENDBRANCH   1  14
TORSDOF 5
ENDMDL
MODEL 9
REMARK VINA RESULT:    -5.383      3.208      4.881
REMARK INTER + INTRA:          -7.558
REMARK INTER:                  -7.147
REMARK INTRA:                  -0.411
REMARK UNBOUND:                -0.601
REMARK  Name = 
REMARK  6 active torsions:
REMARK  status: ('A' for Active; 'I' for Inactive)
REMARK    1  A    between atoms: C_1  and  O_2
REMARK    2  A    between atoms: O_2  and  C_3
REMARK    3  A    between atoms: C_6  and  C_7
REMARK    4  A    between atoms: C_7  and  N_8
REMARK    5  A    between atoms: N_8  and  C_9
REMARK    6  A    between atoms: C_12  and  C_13
REMARK                            x       y       z     vdW  Elec       q    Type
REMARK                         _______ _______ _______ _____ _____    ______ ____
ROOT
ATOM      1  N   UNL     1      46.533   7.299  13.338  0.00  0.00    +0.000 N 
ATOM      2  H   UNL     1      46.277   7.501  14.304  0.00  0.00    +0.000 HD
ENDROOT
BRANCH   1   3
ATOM      3  C   UNL     1      45.786   6.251  12.790  0.00  0.00    +0.000 A 
ATOM      4  C   UNL     1      45.161   6.316  11.540  0.00  0.00    +0.000 A 
ATOM      5  C   UNL     1      44.520   5.198  11.002  0.00  0.00    +0.000 A 
ATOM      6  C   UNL     1      44.539   4.015  11.725  0.00  0.00    +0.000 A 
ATOM      7  N   UNL     1      45.150   3.882  12.932  0.00  0.00    +0.000 NA
ATOM      8  C   UNL     1      45.764   4.996  13.411  0.00  0.00    +0.000 A 
BRANCH   6   9
ATOM      9  C   UNL     1      43.887   2.790  11.160  0.00  0.00    +0.000 C 
ATOM     10  N   UNL     1      44.458   2.299  10.016  0.00  0.00    +0.000 N 
ATOM     11  O   UNL     1      42.907   2.263  11.671  0.00  0.00    +0.000 OA
ATOM     12  H   UNL     1      45.250   2.785   9.609  0.00  0.00    +0.000 HD
ATOM     13  H   UNL     1      44.054   1.496   9.559  0.00  0.00    +0.000 HD
ENDBRANCH   6   9
ENDBRANCH   1   3
BRANCH   1  14
ATOM     14  C   UNL     1      46.715   8.524  12.565  0.00  0.00    +0.000 C 
BRANCH  14  18
ATOM     15  C   UNL     1      50.838   8.957  11.302  0.00  0.00    +0.000 A 
ATOM     16  C   UNL     1      50.334   7.701  11.632  0.00  0.00    +0.000 A 
ATOM     17  C   UNL     1      49.007   7.565  12.061  0.00  0.00    +0.000 A 
ATOM     18  C   UNL     1      48.164   8.682  12.162  0.00  0.00    +0.000 A 
ATOM     19  C   UNL     1      48.681   9.941  11.831  0.00  0.00    +0.000 A 
ATOM     20  C   UNL     1      50.006  10.073  11.404  0.00  0.00    +0.000 A 
BRANCH  15  22
ATOM     21  C   UNL     1      52.495   8.677   9.620  0.00  0.00    +0.000 C 
ATOM     22  O   UNL     1      52.108   9.230  10.870  0.00  0.00    +0.000 OA
ENDBRANCH  15  22
ENDBRANCH  14  18
ENDBRANCH   1  14
TORSDOF 5
ENDMDL
