MODEL 1
REMARK VINA RESULT:    -5.941      0.000      0.000
REMARK INTER + INTRA:          -8.360
REMARK INTER:                  -7.330
REMARK INTRA:                  -1.029
REMARK UNBOUND:                -1.029
REMARK  Name = 
REMARK  7 active torsions:
REMARK  status: ('A' for Active; 'I' for Inactive)
REMARK    1  A    between atoms: C_1  and  C_2
REMARK    2  A    between atoms: C_2  and  C_3
REMARK    3  A    between atoms: C_2  and  C_4
REMARK    4  A    between atoms: C_2  and  C_5
REMARK    5  A    between atoms: C_8  and  C_9
REMARK    6  A    between atoms: N_16  and  C_17
REMARK    7  A    between atoms: C_17  and  C_18
REMARK                            x       y       z     vdW  Elec       q    Type
REMARK                         _______ _______ _______ _____ _____    ______ ____
ROOT
ATOM      1  C   UNL     1      47.712   4.887  15.869  0.00  0.00    +0.000 A 
ATOM      2  N   UNL     1      46.821   4.314  15.088  0.00  0.00    +0.000 NA
ATOM      3  C   UNL     1      46.705   5.081  13.955  0.00  0.00    +0.000 A 
ATOM      4  C   UNL     1      45.818   4.963  12.887  0.00  0.00    +0.000 A 
ATOM      5  C   UNL     1      45.925   5.942  11.913  0.00  0.00    +0.000 A 
ATOM      6  N   UNL     1      46.824   6.962  11.939  0.00  0.00    +0.000 NA
ATOM      7  C   UNL     1      47.693   7.054  12.974  0.00  0.00    +0.000 A 
ATOM      8  C   UNL     1      47.629   6.108  13.990  0.00  0.00    +0.000 A 
ATOM      9  N   UNL     1      48.339   5.929  15.182  0.00  0.00    +0.000 N 
ENDROOT
BRANCH   4  10
ATOM     10  C   UNL     1      44.801   3.903  12.786  0.00  0.00    +0.000 C 
ATOM     11  N   UNL     1      45.237   2.633  12.536  0.00  0.00    +0.000 N 
ATOM     12  O   UNL     1      43.611   4.152  12.925  0.00  0.00    +0.000 OA
ATOM     13  H   UNL     1      46.228   2.424  12.424  0.00  0.00    +0.000 HD
ATOM     14  H   UNL     1      44.561   1.884  12.464  0.00  0.00    +0.000 HD
ENDBRANCH   4  10
BRANCH   1  16
ATOM     15  C   UNL     1      49.401   4.109  17.564  0.00  0.00    +0.000 C 
ATOM     16  C   UNL     1      47.905   4.344  17.295  0.00  0.00    +0.000 C 
ATOM     17  C   UNL     1      47.216   2.948  17.399  0.00  0.00    +0.000 C 
ATOM     18  C   UNL     1      47.271   5.202  18.392  0.00  0.00    +0.000 C 
ENDBRANCH   1  16
BRANCH   9  19
ATOM     19  C   UNL     1      49.392   6.860  15.586  0.00  0.00    +0.000 C 
BRANCH  19  20
ATOM     20  C   UNL     1      49.025   7.934  16.587  0.00  0.00    +0.000 A 
ATOM     21  C   UNL     1      48.181   9.021  16.349  0.00  0.00    +0.000 A 
ATOM     22  C   UNL     1      48.097  10.053  17.290  0.00  0.00    +0.000 A 
ATOM     23  C   UNL     1      48.831   9.952  18.460  0.00  0.00    +0.000 A 
ATOM     24  N   UNL     1      49.568   8.870  18.776  0.00  0.00    +0.000 NA
ATOM     25  C   UNL     1      49.636   7.891  17.846  0.00  0.00    +0.000 A 
ENDBRANCH  19  20
ENDBRANCH   9  19
TORSDOF 4
ENDMDL
MODEL 2
REMARK VINA RESULT:    -5.940      2.470      5.499
REMARK INTER + INTRA:          -8.359
REMARK INTER:                  -7.556
REMARK INTRA:                  -0.802
REMARK UNBOUND:                -1.029
REMARK  Name = 
REMARK  7 active torsions:
REMARK  status: ('A' for Active; 'I' for Inactive)
REMARK    1  A    between atoms: C_1  and  C_2
REMARK    2  A    between atoms: C_2  and  C_3
REMARK    3  A    between atoms: C_2  and  C_4
REMARK    4  A    between atoms: C_2  and  C_5
REMARK    5  A    between atoms: C_8  and  C_9
REMARK    6  A    between atoms: N_16  and  C_17
REMARK    7  A    between atoms: C_17  and  C_18
REMARK                            x       y       z     vdW  Elec       q    Type
REMARK                         _______ _______ _______ _____ _____    ______ ____
ROOT
ATOM      1  C   UNL     1      45.889   5.042  12.980  0.00  0.00    +0.000 A 
ATOM      2  N   UNL     1      46.090   4.417  14.120  0.00  0.00    +0.000 NA
ATOM      3  C   UNL     1      47.148   5.026  14.749  0.00  0.00    +0.000 A 
ATOM      4  C   UNL     1      47.815   4.666  15.919  0.00  0.00    +0.000 A 
ATOM      5  C   UNL     1      48.891   5.469  16.261  0.00  0.00    +0.000 A 
ATOM      6  N   UNL     1      49.303   6.553  15.550  0.00  0.00    +0.000 NA
ATOM      7  C   UNL     1      48.634   6.902  14.425  0.00  0.00    +0.000 A 
ATOM      8  C   UNL     1      47.551   6.130  14.022  0.00  0.00    +0.000 A 
ATOM      9  N   UNL     1      46.681   6.192  12.928  0.00  0.00    +0.000 N 
ENDROOT
BRANCH   4  10
ATOM     10  C   UNL     1      47.450   3.500  16.739  0.00  0.00    +0.000 C 
ATOM     11  N   UNL     1      48.339   2.465  16.795  0.00  0.00    +0.000 N 
ATOM     12  O   UNL     1      46.389   3.462  17.349  0.00  0.00    +0.000 OA
ATOM     13  H   UNL     1      49.224   2.497  16.290  0.00  0.00    +0.000 HD
ATOM     14  H   UNL     1      48.116   1.651  17.352  0.00  0.00    +0.000 HD
ENDBRANCH   4  10
BRANCH   1  16
ATOM     15  C   UNL     1      43.457   4.887  12.353  0.00  0.00    +0.000 C 
ATOM     16  C   UNL     1      44.883   4.451  11.978  0.00  0.00    +0.000 C 
ATOM     17  C   UNL     1      44.911   2.896  12.098  0.00  0.00    +0.000 C 
ATOM     18  C   UNL     1      45.192   4.760  10.511  0.00  0.00    +0.000 C 
ENDBRANCH   1  16
BRANCH   9  19
ATOM     19  C   UNL     1      46.823   7.224  11.903  0.00  0.00    +0.000 C 
BRANCH  19  20
ATOM     20  C   UNL     1      45.765   8.305  11.851  0.00  0.00    +0.000 A 
ATOM     21  C   UNL     1      44.498   8.183  11.278  0.00  0.00    +0.000 A 
ATOM     22  C   UNL     1      43.701   9.321  11.109  0.00  0.00    +0.000 A 
ATOM     23  C   UNL     1      44.178  10.543  11.551  0.00  0.00    +0.000 A 
ATOM     24  N   UNL     1      45.344  10.684  12.208  0.00  0.00    +0.000 NA
ATOM     25  C   UNL     1      46.097   9.570  12.353  0.00  0.00    +0.000 A 
ENDBRANCH  19  20
ENDBRANCH   9  19
TORSDOF 4
ENDMDL
MODEL 3
REMARK VINA RESULT:    -5.814      1.881      4.144
REMARK INTER + INTRA:          -8.203
REMARK INTER:                  -7.271
REMARK INTRA:                  -0.932
REMARK UNBOUND:                -1.029
REMARK  Name = 
REMARK  7 active torsions:
REMARK  status: ('A' for Active; 'I' for Inactive)
REMARK    1  A    between atoms: C_1  and  C_2
REMARK    2  A    between atoms: C_2  and  C_3
REMARK    3  A    between atoms: C_2  and  C_4
REMARK    4  A    between atoms: C_2  and  C_5
REMARK    5  A    between atoms: C_8  and  C_9
REMARK    6  A    between atoms: N_16  and  C_17
REMARK    7  A    between atoms: C_17  and  C_18
REMARK                            x       y       z     vdW  Elec       q    Type
REMARK                         _______ _______ _______ _____ _____    ______ ____
ROOT
ATOM      1  C   UNL     1      47.167   7.672  12.897  0.00  0.00    +0.000 A 
ATOM      2  N   UNL     1      46.030   7.346  12.321  0.00  0.00    +0.000 NA
ATOM      3  C   UNL     1      45.833   6.001  12.518  0.00  0.00    +0.000 A 
ATOM      4  C   UNL     1      44.843   5.162  12.010  0.00  0.00    +0.000 A 
ATOM      5  C   UNL     1      44.958   3.827  12.359  0.00  0.00    +0.000 A 
ATOM      6  N   UNL     1      45.939   3.317  13.152  0.00  0.00    +0.000 NA
ATOM      7  C   UNL     1      46.884   4.147  13.654  0.00  0.00    +0.000 A 
ATOM      8  C   UNL     1      46.831   5.498  13.331  0.00  0.00    +0.000 A 
ATOM      9  N   UNL     1      47.640   6.594  13.648  0.00  0.00    +0.000 N 
ENDROOT
BRANCH   4  10
ATOM     10  C   UNL     1      43.757   5.625  11.132  0.00  0.00    +0.000 C 
ATOM     11  N   UNL     1      43.286   6.892  11.324  0.00  0.00    +0.000 N 
ATOM     12  O   UNL     1      43.295   4.900  10.259  0.00  0.00    +0.000 OA
ATOM     13  H   UNL     1      43.670   7.497  12.048  0.00  0.00    +0.000 HD
ATOM     14  H   UNL     1      42.540   7.237  10.734  0.00  0.00    +0.000 HD
ENDBRANCH   4  10
BRANCH   1  16
ATOM     15  C   UNL     1      46.678   9.963  11.978  0.00  0.00    +0.000 C 
ATOM     16  C   UNL     1      47.734   9.084  12.670  0.00  0.00    +0.000 C 
ATOM     17  C   UNL     1      48.939   8.989  11.685  0.00  0.00    +0.000 C 
ATOM     18  C   UNL     1      48.280   9.759  13.930  0.00  0.00    +0.000 C 
ENDBRANCH   1  16
BRANCH   9  19
ATOM     19  C   UNL     1      48.836   6.440  14.475  0.00  0.00    +0.000 C 
BRANCH  19  20
ATOM     20  C   UNL     1      48.660   6.524  15.976  0.00  0.00    +0.000 A 
ATOM     21  C   UNL     1      48.736   7.687  16.745  0.00  0.00    +0.000 A 
ATOM     22  C   UNL     1      48.768   7.595  18.141  0.00  0.00    +0.000 A 
ATOM     23  C   UNL     1      48.686   6.345  18.730  0.00  0.00    +0.000 A 
ATOM     24  N   UNL     1      48.500   5.211  18.028  0.00  0.00    +0.000 NA
ATOM     25  C   UNL     1      48.479   5.328  16.681  0.00  0.00    +0.000 A 
ENDBRANCH  19  20
ENDBRANCH   9  19
TORSDOF 4
ENDMDL
MODEL 4
REMARK VINA RESULT:    -5.606      3.061      5.601
REMARK INTER + INTRA:          -7.947
REMARK INTER:                  -7.113
REMARK INTRA:                  -0.833
REMARK UNBOUND:                -1.029
REMARK  Name = 
REMARK  7 active torsions:
REMARK  status: ('A' for Active; 'I' for Inactive)
REMARK    1  A    between atoms: C_1  and  C_2
REMARK    2  A    between atoms: C_2  and  C_3
REMARK    3  A    between atoms: C_2  and  C_4
REMARK    4  A    between atoms: C_2  and  C_5
REMARK    5  A    between atoms: C_8  and  C_9
REMARK    6  A    between atoms: N_16  and  C_17
REMARK    7  A    between atoms: C_17  and  C_18
REMARK                            x       y       z     vdW  Elec       q    Type
REMARK                         _______ _______ _______ _____ _____    ______ ____
ROOT
ATOM      1  C   UNL     1      44.980   6.616  11.841  0.00  0.00    +0.000 A 
ATOM      2  N   UNL     1      44.421   7.751  11.480  0.00  0.00    +0.000 NA
ATOM      3  C   UNL     1      45.330   8.755  11.710  0.00  0.00    +0.000 A 
ATOM      4  C   UNL     1      45.178  10.136  11.601  0.00  0.00    +0.000 A 
ATOM      5  C   UNL     1      46.284  10.887  11.962  0.00  0.00    +0.000 A 
ATOM      6  N   UNL     1      47.467  10.366  12.387  0.00  0.00    +0.000 NA
ATOM      7  C   UNL     1      47.607   9.021  12.470  0.00  0.00    +0.000 A 
ATOM      8  C   UNL     1      46.529   8.212  12.132  0.00  0.00    +0.000 A 
ATOM      9  N   UNL     1      46.330   6.827  12.130  0.00  0.00    +0.000 N 
ENDROOT
BRANCH   4  10
ATOM     10  C   UNL     1      43.930  10.786  11.169  0.00  0.00    +0.000 C 
ATOM     11  N   UNL     1      42.842  10.667  11.985  0.00  0.00    +0.000 N 
ATOM     12  O   UNL     1      43.873  11.412  10.118  0.00  0.00    +0.000 OA
ATOM     13  H   UNL     1      42.888  10.148  12.861  0.00  0.00    +0.000 HD
ATOM     14  H   UNL     1      41.971  11.105  11.714  0.00  0.00    +0.000 HD
ENDBRANCH   4  10
BRANCH   1  16
ATOM     15  C   UNL     1      44.698   4.299  10.901  0.00  0.00    +0.000 C 
ATOM     16  C   UNL     1      44.117   5.343  11.871  0.00  0.00    +0.000 C 
ATOM     17  C   UNL     1      42.692   5.689  11.339  0.00  0.00    +0.000 C 
ATOM     18  C   UNL     1      43.908   4.750  13.266  0.00  0.00    +0.000 C 
ENDBRANCH   1  16
BRANCH   9  19
ATOM     19  C   UNL     1      47.383   5.909  12.559  0.00  0.00    +0.000 C 
BRANCH  19  20
ATOM     20  C   UNL     1      47.516   5.647  14.044  0.00  0.00    +0.000 A 
ATOM     21  C   UNL     1      48.278   6.395  14.943  0.00  0.00    +0.000 A 
ATOM     22  C   UNL     1      48.484   5.920  16.242  0.00  0.00    +0.000 A 
ATOM     23  C   UNL     1      47.891   4.727  16.619  0.00  0.00    +0.000 A 
ATOM     24  N   UNL     1      47.060   4.033  15.819  0.00  0.00    +0.000 NA
ATOM     25  C   UNL     1      46.883   4.512  14.567  0.00  0.00    +0.000 A 
ENDBRANCH  19  20
ENDBRANCH   9  19
TORSDOF 4
ENDMDL
MODEL 5
REMARK VINA RESULT:    -5.448      2.355      5.205
REMARK INTER + INTRA:          -7.751
REMARK INTER:                  -7.033
REMARK INTRA:                  -0.718
REMARK UNBOUND:                -1.029
REMARK  Name = 
REMARK  7 active torsions:
REMARK  status: ('A' for Active; 'I' for Inactive)
REMARK    1  A    between atoms: C_1  and  C_2
REMARK    2  A    between atoms: C_2  and  C_3
REMARK    3  A    between atoms: C_2  and  C_4
REMARK    4  A    between atoms: C_2  and  C_5
REMARK    5  A    between atoms: C_8  and  C_9
REMARK    6  A    between atoms: N_16  and  C_17
REMARK    7  A    between atoms: C_17  and  C_18
REMARK                            x       y       z     vdW  Elec       q    Type
REMARK                         _______ _______ _______ _____ _____    ______ ____
ROOT
ATOM      1  C   UNL     1      46.264   5.469  13.433  0.00  0.00    +0.000 A 
ATOM      2  N   UNL     1      46.522   4.556  14.346  0.00  0.00    +0.000 NA
ATOM      3  C   UNL     1      47.501   5.055  15.169  0.00  0.00    +0.000 A 
ATOM      4  C   UNL     1      48.192   4.434  16.208  0.00  0.00    +0.000 A 
ATOM      5  C   UNL     1      49.171   5.204  16.815  0.00  0.00    +0.000 A 
ATOM      6  N   UNL     1      49.469   6.486  16.473  0.00  0.00    +0.000 NA
ATOM      7  C   UNL     1      48.776   7.084  15.473  0.00  0.00    +0.000 A 
ATOM      8  C   UNL     1      47.788   6.361  14.816  0.00  0.00    +0.000 A 
ATOM      9  N   UNL     1      46.926   6.656  13.754  0.00  0.00    +0.000 N 
ENDROOT
BRANCH   4  10
ATOM     10  C   UNL     1      47.949   3.047  16.632  0.00  0.00    +0.000 C 
ATOM     11  N   UNL     1      46.999   2.838  17.591  0.00  0.00    +0.000 N 
ATOM     12  O   UNL     1      48.573   2.115  16.141  0.00  0.00    +0.000 OA
ATOM     13  H   UNL     1      46.476   3.612  17.999  0.00  0.00    +0.000 HD
ATOM     14  H   UNL     1      46.809   1.894  17.901  0.00  0.00    +0.000 HD
ENDBRANCH   4  10
BRANCH   1  16
ATOM     15  C   UNL     1      43.911   5.596  12.551  0.00  0.00    +0.000 C 
ATOM     16  C   UNL     1      45.339   5.103  12.260  0.00  0.00    +0.000 C 
ATOM     17  C   UNL     1      45.252   3.549  12.155  0.00  0.00    +0.000 C 
ATOM     18  C   UNL     1      45.826   5.585  10.892  0.00  0.00    +0.000 C 
ENDBRANCH   1  16
BRANCH   9  19
ATOM     19  C   UNL     1      46.965   7.955  13.085  0.00  0.00    +0.000 C 
BRANCH  19  20
ATOM     20  C   UNL     1      48.220   8.304  12.314  0.00  0.00    +0.000 A 
ATOM     21  C   UNL     1      49.114   7.391  11.751  0.00  0.00    +0.000 A 
ATOM     22  C   UNL     1      50.341   7.841  11.252  0.00  0.00    +0.000 A 
ATOM     23  C   UNL     1      50.625   9.195  11.295  0.00  0.00    +0.000 A 
ATOM     24  N   UNL     1      49.745  10.118  11.727  0.00  0.00    +0.000 NA
ATOM     25  C   UNL     1      48.569   9.655  12.209  0.00  0.00    +0.000 A 
ENDBRANCH  19  20
ENDBRANCH   9  19
TORSDOF 4
ENDMDL
MODEL 6
REMARK VINA RESULT:    -5.348      1.918      3.934
REMARK INTER + INTRA:          -7.628
REMARK INTER:                  -6.502
REMARK INTRA:                  -1.126
REMARK UNBOUND:                -1.029
REMARK  Name = 
REMARK  7 active torsions:
REMARK  status: ('A' for Active; 'I' for Inactive)
REMARK    1  A    between atoms: C_1  and  C_2
REMARK    2  A    between atoms: C_2  and  C_3
REMARK    3  A    between atoms: C_2  and  C_4
REMARK    4  A    between atoms: C_2  and  C_5
REMARK    5  A    between atoms: C_8  and  C_9
REMARK    6  A    between atoms: N_16  and  C_17
REMARK    7  A    between atoms: C_17  and  C_18
REMARK                            x       y       z     vdW  Elec       q    Type
REMARK                         _______ _______ _______ _____ _____    ______ ____
ROOT
ATOM      1  C   UNL     1      48.391   7.735  13.317  0.00  0.00    +0.000 A 
ATOM      2  N   UNL     1      47.419   7.447  12.477  0.00  0.00    +0.000 NA
ATOM      3  C   UNL     1      46.887   6.239  12.856  0.00  0.00    +0.000 A 
ATOM      4  C   UNL     1      45.922   5.455  12.227  0.00  0.00    +0.000 A 
ATOM      5  C   UNL     1      45.639   4.248  12.845  0.00  0.00    +0.000 A 
ATOM      6  N   UNL     1      46.222   3.814  13.994  0.00  0.00    +0.000 NA
ATOM      7  C   UNL     1      47.145   4.595  14.606  0.00  0.00    +0.000 A 
ATOM      8  C   UNL     1      47.481   5.813  14.029  0.00  0.00    +0.000 A 
ATOM      9  N   UNL     1      48.387   6.823  14.373  0.00  0.00    +0.000 N 
ENDROOT
BRANCH   4  10
ATOM     10  C   UNL     1      45.254   5.838  10.972  0.00  0.00    +0.000 C 
ATOM     11  N   UNL     1      44.539   7.001  10.967  0.00  0.00    +0.000 N 
ATOM     12  O   UNL     1      45.339   5.139   9.970  0.00  0.00    +0.000 OA
ATOM     13  H   UNL     1      44.469   7.585  11.800  0.00  0.00    +0.000 HD
ATOM     14  H   UNL     1      44.071   7.290  10.119  0.00  0.00    +0.000 HD
ENDBRANCH   4  10
BRANCH   1  16
ATOM     15  C   UNL     1      49.046  10.047  14.062  0.00  0.00    +0.000 C 
ATOM     16  C   UNL     1      49.292   8.946  13.018  0.00  0.00    +0.000 C 
ATOM     17  C   UNL     1      48.882   9.549  11.640  0.00  0.00    +0.000 C 
ATOM     18  C   UNL     1      50.781   8.614  12.900  0.00  0.00    +0.000 C 
ENDBRANCH   1  16
BRANCH   9  19
ATOM     19  C   UNL     1      49.238   6.706  15.556  0.00  0.00    +0.000 C 
BRANCH  19  20
ATOM     20  C   UNL     1      48.645   7.120  16.885  0.00  0.00    +0.000 A 
ATOM     21  C   UNL     1      48.410   8.431  17.304  0.00  0.00    +0.000 A 
ATOM     22  C   UNL     1      48.059   8.682  18.634  0.00  0.00    +0.000 A 
ATOM     23  C   UNL     1      47.915   7.613  19.501  0.00  0.00    +0.000 A 
ATOM     24  N   UNL     1      48.022   6.329  19.110  0.00  0.00    +0.000 NA
ATOM     25  C   UNL     1      48.369   6.115  17.820  0.00  0.00    +0.000 A 
ENDBRANCH  19  20
ENDBRANCH   9  19
TORSDOF 4
ENDMDL
MODEL 7
REMARK VINA RESULT:    -5.177      2.656      4.160
REMARK INTER + INTRA:          -7.417
REMARK INTER:                  -6.449
REMARK INTRA:                  -0.968
REMARK UNBOUND:                -1.029
REMARK  Name = 
REMARK  7 active torsions:
REMARK  status: ('A' for Active; 'I' for Inactive)
REMARK    1  A    between atoms: C_1  and  C_2
REMARK    2  A    between atoms: C_2  and  C_3
REMARK    3  A    between atoms: C_2  and  C_4
REMARK    4  A    between atoms: C_2  and  C_5
REMARK    5  A    between atoms: C_8  and  C_9
REMARK    6  A    between atoms: N_16  and  C_17
REMARK    7  A    between atoms: C_17  and  C_18
REMARK                            x       y       z     vdW  Elec       q    Type
REMARK                         _______ _______ _______ _____ _____    ______ ____
ROOT
ATOM      1  C   UNL     1      48.476   7.074  14.623  0.00  0.00    +0.000 A 
ATOM      2  N   UNL     1      47.993   5.884  14.333  0.00  0.00    +0.000 NA
ATOM      3  C   UNL     1      47.036   6.049  13.361  0.00  0.00    +0.000 A 
ATOM      4  C   UNL     1      46.163   5.116  12.806  0.00  0.00    +0.000 A 
ATOM      5  C   UNL     1      45.270   5.619  11.873  0.00  0.00    +0.000 A 
ATOM      6  N   UNL     1      45.215   6.920  11.479  0.00  0.00    +0.000 NA
ATOM      7  C   UNL     1      46.083   7.812  12.014  0.00  0.00    +0.000 A 
ATOM      8  C   UNL     1      46.997   7.372  12.964  0.00  0.00    +0.000 A 
ATOM      9  N   UNL     1      47.988   8.014  13.714  0.00  0.00    +0.000 N 
ENDROOT
BRANCH   4  10
ATOM     10  C   UNL     1      46.140   3.695  13.186  0.00  0.00    +0.000 C 
ATOM     11  N   UNL     1      47.117   3.252  14.030  0.00  0.00    +0.000 N 
ATOM     12  O   UNL     1      45.274   2.940  12.763  0.00  0.00    +0.000 OA
ATOM     13  H   UNL     1      47.837   3.880  14.385  0.00  0.00    +0.000 HD
ATOM     14  H   UNL     1      47.126   2.280  14.310  0.00  0.00    +0.000 HD
ENDBRANCH   4  10
BRANCH   1  16
ATOM     15  C   UNL     1      50.867   7.445  15.313  0.00  0.00    +0.000 C 
ATOM     16  C   UNL     1      49.433   7.213  15.819  0.00  0.00    +0.000 C 
ATOM     17  C   UNL     1      49.459   5.863  16.601  0.00  0.00    +0.000 C 
ATOM     18  C   UNL     1      49.024   8.276  16.840  0.00  0.00    +0.000 C 
ENDBRANCH   1  16
BRANCH   9  19
ATOM     19  C   UNL     1      48.220   9.453  13.590  0.00  0.00    +0.000 C 
BRANCH  19  20
ATOM     20  C   UNL     1      49.084   9.922  12.439  0.00  0.00    +0.000 A 
ATOM     21  C   UNL     1      50.468   9.766  12.338  0.00  0.00    +0.000 A 
ATOM     22  C   UNL     1      51.169  10.433  11.327  0.00  0.00    +0.000 A 
ATOM     23  C   UNL     1      50.463  11.207  10.423  0.00  0.00    +0.000 A 
ATOM     24  N   UNL     1      49.119  11.293  10.418  0.00  0.00    +0.000 NA
ATOM     25  C   UNL     1      48.467  10.644  11.410  0.00  0.00    +0.000 A 
ENDBRANCH  19  20
ENDBRANCH   9  19
TORSDOF 4
ENDMDL
MODEL 8
REMARK VINA RESULT:    -5.016      3.130      5.216
REMARK INTER + INTRA:          -7.219
REMARK INTER:                  -6.016
REMARK INTRA:                  -1.202
REMARK UNBOUND:                -1.029
REMARK  Name = 
REMARK  7 active torsions:
REMARK  status: ('A' for Active; 'I' for Inactive)
REMARK    1  A    between atoms: C_1  and  C_2
REMARK    2  A    between atoms: C_2  and  C_3
REMARK    3  A    between atoms: C_2  and  C_4
REMARK    4  A    between atoms: C_2  and  C_5
REMARK    5  A    between atoms: C_8  and  C_9
REMARK    6  A    between atoms: N_16  and  C_17
REMARK    7  A    between atoms: C_17  and  C_18
REMARK                            x       y       z     vdW  Elec       q    Type
REMARK                         _______ _______ _______ _____ _____    ______ ____
ROOT
ATOM      1  C   UNL     1      49.449   7.587  14.445  0.00  0.00    +0.000 A 
ATOM      2  N   UNL     1      49.041   6.524  15.103  0.00  0.00    +0.000 NA
ATOM      3  C   UNL     1      47.994   5.977  14.402  0.00  0.00    +0.000 A 
ATOM      4  C   UNL     1      47.153   4.918  14.740  0.00  0.00    +0.000 A 
ATOM      5  C   UNL     1      46.146   4.643  13.829  0.00  0.00    +0.000 A 
ATOM      6  N   UNL     1      45.953   5.319  12.664  0.00  0.00    +0.000 NA
ATOM      7  C   UNL     1      46.789   6.334  12.340  0.00  0.00    +0.000 A 
ATOM      8  C   UNL     1      47.814   6.666  13.218  0.00  0.00    +0.000 A 
ATOM      9  N   UNL     1      48.811   7.648  13.205  0.00  0.00    +0.000 N 
ENDROOT
BRANCH   4  10
ATOM     10  C   UNL     1      47.277   4.145  15.986  0.00  0.00    +0.000 C 
ATOM     11  N   UNL     1      47.119   4.818  17.164  0.00  0.00    +0.000 N 
ATOM     12  O   UNL     1      47.511   2.943  15.966  0.00  0.00    +0.000 OA
ATOM     13  H   UNL     1      46.921   5.818  17.182  0.00  0.00    +0.000 HD
ATOM     14  H   UNL     1      47.197   4.313  18.036  0.00  0.00    +0.000 HD
ENDBRANCH   4  10
BRANCH   1  16
ATOM     15  C   UNL     1      51.881   8.229  14.506  0.00  0.00    +0.000 C 
ATOM     16  C   UNL     1      50.491   8.509  15.101  0.00  0.00    +0.000 C 
ATOM     17  C   UNL     1      50.586   8.159  16.618  0.00  0.00    +0.000 C 
ATOM     18  C   UNL     1      50.150   9.999  15.039  0.00  0.00    +0.000 C 
ENDBRANCH   1  16
BRANCH   9  19
ATOM     19  C   UNL     1      48.915   8.608  12.107  0.00  0.00    +0.000 C 
BRANCH  19  20
ATOM     20  C   UNL     1      50.221   8.656  11.345  0.00  0.00    +0.000 A 
ATOM     21  C   UNL     1      50.948   7.551  10.897  0.00  0.00    +0.000 A 
ATOM     22  C   UNL     1      52.242   7.728  10.396  0.00  0.00    +0.000 A 
ATOM     23  C   UNL     1      52.761   9.010  10.322  0.00  0.00    +0.000 A 
ATOM     24  N   UNL     1      52.052  10.110  10.639  0.00  0.00    +0.000 NA
ATOM     25  C   UNL     1      50.806   9.909  11.126  0.00  0.00    +0.000 A 
ENDBRANCH  19  20
ENDBRANCH   9  19
TORSDOF 4
ENDMDL
MODEL 9
REMARK VINA RESULT:    -5.009      3.876      5.567
REMARK INTER + INTRA:          -7.210
REMARK INTER:                  -6.802
REMARK INTRA:                  -0.408
REMARK UNBOUND:                -1.029
REMARK  Name = 
REMARK  7 active torsions:
REMARK  status: ('A' for Active; 'I' for Inactive)
REMARK    1  A    between atoms: C_1  and  C_2
REMARK    2  A    between atoms: C_2  and  C_3
REMARK    3  A    between atoms: C_2  and  C_4
REMARK    4  A    between atoms: C_2  and  C_5
REMARK    5  A    between atoms: C_8  and  C_9
REMARK    6  A    between atoms: N_16  and  C_17
REMARK    7  A    between atoms: C_17  and  C_18
REMARK                            x       y       z     vdW  Elec       q    Type
REMARK                         _______ _______ _______ _____ _____    ______ ____
ROOT
ATOM      1  C   UNL     1      45.206   6.734  12.157  0.00  0.00    +0.000 A 
ATOM      2  N   UNL     1      44.357   7.470  11.471  0.00  0.00    +0.000 NA
ATOM      3  C   UNL     1      44.795   8.770  11.524  0.00  0.00    +0.000 A 
ATOM      4  C   UNL     1      44.188   9.934  11.056  0.00  0.00    +0.000 A 
ATOM      5  C   UNL     1      44.872  11.109  11.317  0.00  0.00    +0.000 A 
ATOM      6  N   UNL     1      46.065  11.180  11.967  0.00  0.00    +0.000 NA
ATOM      7  C   UNL     1      46.654  10.040  12.400  0.00  0.00    +0.000 A 
ATOM      8  C   UNL     1      46.011   8.828  12.179  0.00  0.00    +0.000 A 
ATOM      9  N   UNL     1      46.318   7.503  12.508  0.00  0.00    +0.000 N 
ENDROOT
BRANCH   4  10
ATOM     10  C   UNL     1      42.891   9.952  10.359  0.00  0.00    +0.000 C 
ATOM     11  N   UNL     1      41.845   9.311  10.958  0.00  0.00    +0.000 N 
ATOM     12  O   UNL     1      42.757  10.523   9.284  0.00  0.00    +0.000 OA
ATOM     13  H   UNL     1      41.954   8.838  11.854  0.00  0.00    +0.000 HD
ATOM     14  H   UNL     1      40.941   9.308  10.504  0.00  0.00    +0.000 HD
ENDBRANCH   4  10
BRANCH   1  16
ATOM     15  C   UNL     1      45.092   4.430  11.154  0.00  0.00    +0.000 C 
ATOM     16  C   UNL     1      44.859   5.260  12.427  0.00  0.00    +0.000 C 
ATOM     17  C   UNL     1      43.336   5.154  12.747  0.00  0.00    +0.000 C 
ATOM     18  C   UNL     1      45.579   4.648  13.630  0.00  0.00    +0.000 C 
ENDBRANCH   1  16
BRANCH   9  19
ATOM     19  C   UNL     1      47.532   7.168  13.251  0.00  0.00    +0.000 C 
BRANCH  19  20
ATOM     20  C   UNL     1      48.846   7.681  12.705  0.00  0.00    +0.000 A 
ATOM     21  C   UNL     1      49.311   7.515  11.399  0.00  0.00    +0.000 A 
ATOM     22  C   UNL     1      50.632   7.850  11.084  0.00  0.00    +0.000 A 
ATOM     23  C   UNL     1      51.442   8.377  12.075  0.00  0.00    +0.000 A 
ATOM     24  N   UNL     1      51.000   8.656  13.316  0.00  0.00    +0.000 NA
ATOM     25  C   UNL     1      49.721   8.316  13.595  0.00  0.00    +0.000 A 
ENDBRANCH  19  20
ENDBRANCH   9  19
TORSDOF 4
ENDMDL
