MODEL 1
REMARK VINA RESULT:    -6.224      0.000      0.000
REMARK INTER + INTRA:         -10.557
REMARK INTER:                  -8.771
REMARK INTRA:                  -1.786
REMARK UNBOUND:                -1.786
REMARK  Name = 
REMARK  7 active torsions:
REMARK  status: ('A' for Active; 'I' for Inactive)
REMARK    1  A    between atoms: C_2  and  C_3
REMARK    2  A    between atoms: C_3  and  N_4
REMARK    3  A    between atoms: C_3  and  C_21
REMARK    4  A    between atoms: C_5  and  C_7
REMARK    5  A    between atoms: C_10  and  C_11
REMARK    6  A    between atoms: C_11  and  N_12
REMARK    7  A    between atoms: C_13  and  C_15
REMARK                            x       y       z     vdW  Elec       q    Type
REMARK                         _______ _______ _______ _____ _____    ______ ____
ROOT
ATOM      1  N   UNL     1      46.434   4.804  14.767  0.00  0.00    +0.000 N 
ATOM      2  C   UNL     1      47.161   3.854  15.440  0.00  0.00    +0.000 C 
ATOM      3  O   UNL     1      47.721   2.931  14.855  0.00  0.00    +0.000 OA
ATOM      4  H   UNL     1      46.187   5.680  15.222  0.00  0.00    +0.000 HD
ENDROOT
BRANCH   2   5
ATOM      5  C   UNL     1      47.234   4.040  16.955  0.00  0.00    +0.000 C 
ATOM      6  C   UNL     1      47.994   2.916  17.651  0.00  0.00    +0.000 C 
ATOM      7  C   UNL     1      49.468   3.302  17.550  0.00  0.00    +0.000 C 
ATOM      8  C   UNL     1      49.510   4.815  17.279  0.00  0.00    +0.000 C 
ATOM      9  C   UNL     1      48.046   5.278  17.352  0.00  0.00    +0.000 C 
BRANCH   8  10
ATOM     10  C   UNL     1      50.428   5.583  18.228  0.00  0.00    +0.000 C 
BRANCH  10  11
ATOM     11  N   UNL     1      50.448   7.003  17.916  0.00  0.00    +0.000 N 
ATOM     12  C   UNL     1      49.964   7.937  18.816  0.00  0.00    +0.000 C 
ATOM     13  O   UNL     1      49.514   7.623  19.915  0.00  0.00    +0.000 OA
ATOM     14  H   UNL     1      50.529   7.285  16.946  0.00  0.00    +0.000 HD
BRANCH  12  15
ATOM     15  C   UNL     1      50.040   9.398  18.310  0.00  0.00    +0.000 C 
ATOM     16  C   UNL     1      49.709   9.515  16.831  0.00  0.00    +0.000 C 
ATOM     17  C   UNL     1      48.193   9.559  16.812  0.00  0.00    +0.000 C 
ATOM     18  C   UNL     1      47.817  10.230  18.123  0.00  0.00    +0.000 C 
ATOM     19  N   UNL     1      49.024  10.257  18.958  0.00  0.00    +0.000 NA
ATOM     20  H   UNL     1      48.815   9.940  19.904  0.00  0.00    +0.000 HD
ENDBRANCH  12  15
ENDBRANCH  10  11
ENDBRANCH   8  10
ENDBRANCH   2   5
BRANCH   1  21
ATOM     21  C   UNL     1      46.343   4.771  13.315  0.00  0.00    +0.000 C 
BRANCH  21  22
ATOM     22  C   UNL     1      46.108   6.182  12.828  0.00  0.00    +0.000 A 
ATOM     23  C   UNL     1      44.932   6.617  12.237  0.00  0.00    +0.000 A 
ATOM     24  S   UNL     1      44.985   8.262  11.769  0.00  0.00    +0.000 S 
ATOM     25  C   UNL     1      46.577   8.442  12.347  0.00  0.00    +0.000 A 
ATOM     26  N   UNL     1      47.246   9.622  12.253  0.00  0.00    +0.000 NA
ATOM     27  C   UNL     1      48.425   9.609  12.784  0.00  0.00    +0.000 A 
ATOM     28  N   UNL     1      49.003   8.521  13.390  0.00  0.00    +0.000 N 
ATOM     29  C   UNL     1      48.407   7.284  13.416  0.00  0.00    +0.000 A 
ATOM     30  O   UNL     1      48.995   6.277  13.799  0.00  0.00    +0.000 OA
ATOM     31  C   UNL     1      47.055   7.268  12.891  0.00  0.00    +0.000 A 
ATOM     32  H   UNL     1      49.941   8.575  13.761  0.00  0.00    +0.000 HD
ENDBRANCH  21  22
BRANCH  21  34
ATOM     33  N   UNL     1      44.454   3.140  12.449  0.00  0.00    +0.000 NA
ATOM     34  C   UNL     1      45.280   3.861  12.819  0.00  0.00    +0.000 C 
ENDBRANCH  21  34
ENDBRANCH   1  21
TORSDOF 7
ENDMDL
MODEL 2
REMARK VINA RESULT:    -6.134      1.637      2.099
REMARK INTER + INTRA:         -10.431
REMARK INTER:                  -8.187
REMARK INTRA:                  -2.244
REMARK UNBOUND:                -1.786
REMARK  Name = 
REMARK  7 active torsions:
REMARK  status: ('A' for Active; 'I' for Inactive)
REMARK    1  A    between atoms: C_2  and  C_3
REMARK    2  A    between atoms: C_3  and  N_4
REMARK    3  A    between atoms: C_3  and  C_21
REMARK    4  A    between atoms: C_5  and  C_7
REMARK    5  A    between atoms: C_10  and  C_11
REMARK    6  A    between atoms: C_11  and  N_12
REMARK    7  A    between atoms: C_13  and  C_15
REMARK                            x       y       z     vdW  Elec       q    Type
REMARK                         _______ _______ _______ _____ _____    ______ ____
ROOT
ATOM      1  N   UNL     1      46.690   4.807  15.066  0.00  0.00    +0.000 N 
ATOM      2  C   UNL     1      47.303   3.785  15.746  0.00  0.00    +0.000 C 
ATOM      3  O   UNL     1      47.869   2.866  15.162  0.00  0.00    +0.000 OA
ATOM      4  H   UNL     1      46.443   5.669  15.546  0.00  0.00    +0.000 HD
ENDROOT
BRANCH   2   5
ATOM      5  C   UNL     1      47.242   3.886  17.270  0.00  0.00    +0.000 C 
ATOM      6  C   UNL     1      48.308   3.040  17.959  0.00  0.00    +0.000 C 
ATOM      7  C   UNL     1      49.567   3.906  17.969  0.00  0.00    +0.000 C 
ATOM      8  C   UNL     1      49.103   5.359  17.771  0.00  0.00    +0.000 C 
ATOM      9  C   UNL     1      47.568   5.297  17.774  0.00  0.00    +0.000 C 
BRANCH   8  10
ATOM     10  C   UNL     1      49.664   6.328  18.811  0.00  0.00    +0.000 C 
BRANCH  10  11
ATOM     11  N   UNL     1      50.832   7.033  18.306  0.00  0.00    +0.000 N 
ATOM     12  C   UNL     1      50.697   8.149  17.498  0.00  0.00    +0.000 C 
ATOM     13  O   UNL     1      49.601   8.606  17.183  0.00  0.00    +0.000 OA
ATOM     14  H   UNL     1      51.721   6.547  18.290  0.00  0.00    +0.000 HD
BRANCH  12  15
ATOM     15  C   UNL     1      52.042   8.757  17.033  0.00  0.00    +0.000 C 
ATOM     16  C   UNL     1      53.188   7.763  17.126  0.00  0.00    +0.000 C 
ATOM     17  C   UNL     1      53.070   6.969  15.839  0.00  0.00    +0.000 C 
ATOM     18  C   UNL     1      52.493   7.956  14.837  0.00  0.00    +0.000 C 
ATOM     19  N   UNL     1      52.015   9.117  15.598  0.00  0.00    +0.000 NA
ATOM     20  H   UNL     1      51.079   9.384  15.298  0.00  0.00    +0.000 HD
ENDBRANCH  12  15
ENDBRANCH  10  11
ENDBRANCH   8  10
ENDBRANCH   2   5
BRANCH   1  21
ATOM     21  C   UNL     1      46.733   4.856  13.612  0.00  0.00    +0.000 C 
BRANCH  21  22
ATOM     22  C   UNL     1      46.471   6.282  13.183  0.00  0.00    +0.000 A 
ATOM     23  C   UNL     1      45.332   6.696  12.511  0.00  0.00    +0.000 A 
ATOM     24  S   UNL     1      45.343   8.366  12.140  0.00  0.00    +0.000 S 
ATOM     25  C   UNL     1      46.864   8.585  12.872  0.00  0.00    +0.000 A 
ATOM     26  N   UNL     1      47.478   9.797  12.906  0.00  0.00    +0.000 NA
ATOM     27  C   UNL     1      48.603   9.808  13.542  0.00  0.00    +0.000 A 
ATOM     28  N   UNL     1      49.180   8.713  14.139  0.00  0.00    +0.000 N 
ATOM     29  C   UNL     1      48.649   7.451  14.042  0.00  0.00    +0.000 A 
ATOM     30  O   UNL     1      49.251   6.451  14.422  0.00  0.00    +0.000 OA
ATOM     31  C   UNL     1      47.352   7.404  13.393  0.00  0.00    +0.000 A 
ATOM     32  H   UNL     1      50.076   8.789  14.597  0.00  0.00    +0.000 HD
ENDBRANCH  21  22
BRANCH  21  34
ATOM     33  N   UNL     1      45.002   3.215  12.478  0.00  0.00    +0.000 NA
ATOM     34  C   UNL     1      45.769   3.929  12.969  0.00  0.00    +0.000 C 
ENDBRANCH  21  34
ENDBRANCH   1  21
TORSDOF 7
ENDMDL
MODEL 3
REMARK VINA RESULT:    -6.086      3.254      8.019
REMARK INTER + INTRA:         -10.363
REMARK INTER:                  -9.380
REMARK INTRA:                  -0.982
REMARK UNBOUND:                -1.786
REMARK  Name = 
REMARK  7 active torsions:
REMARK  status: ('A' for Active; 'I' for Inactive)
REMARK    1  A    between atoms: C_2  and  C_3
REMARK    2  A    between atoms: C_3  and  N_4
REMARK    3  A    between atoms: C_3  and  C_21
REMARK    4  A    between atoms: C_5  and  C_7
REMARK    5  A    between atoms: C_10  and  C_11
REMARK    6  A    between atoms: C_11  and  N_12
REMARK    7  A    between atoms: C_13  and  C_15
REMARK                            x       y       z     vdW  Elec       q    Type
REMARK                         _______ _______ _______ _____ _____    ______ ____
ROOT
ATOM      1  N   UNL     1      48.465   5.755  15.806  0.00  0.00    +0.000 N 
ATOM      2  C   UNL     1      48.456   6.698  14.810  0.00  0.00    +0.000 C 
ATOM      3  O   UNL     1      48.676   7.884  15.036  0.00  0.00    +0.000 OA
ATOM      4  H   UNL     1      48.524   4.766  15.578  0.00  0.00    +0.000 HD
ENDROOT
BRANCH   2   5
ATOM      5  C   UNL     1      48.169   6.162  13.407  0.00  0.00    +0.000 C 
ATOM      6  C   UNL     1      47.150   5.027  13.408  0.00  0.00    +0.000 C 
ATOM      7  C   UNL     1      45.783   5.710  13.409  0.00  0.00    +0.000 C 
ATOM      8  C   UNL     1      46.009   7.145  12.904  0.00  0.00    +0.000 C 
ATOM      9  C   UNL     1      47.493   7.206  12.511  0.00  0.00    +0.000 C 
BRANCH   8  10
ATOM     10  C   UNL     1      45.072   7.549  11.766  0.00  0.00    +0.000 C 
BRANCH  10  11
ATOM     11  N   UNL     1      44.255   6.429  11.328  0.00  0.00    +0.000 N 
ATOM     12  C   UNL     1      44.715   5.544  10.367  0.00  0.00    +0.000 C 
ATOM     13  O   UNL     1      45.827   5.646   9.855  0.00  0.00    +0.000 OA
ATOM     14  H   UNL     1      43.256   6.465  11.491  0.00  0.00    +0.000 HD
BRANCH  12  15
ATOM     15  C   UNL     1      43.706   4.429  10.003  0.00  0.00    +0.000 C 
ATOM     16  C   UNL     1      44.394   3.114   9.673  0.00  0.00    +0.000 C 
ATOM     17  C   UNL     1      44.632   2.491  11.035  0.00  0.00    +0.000 C 
ATOM     18  C   UNL     1      43.479   2.994  11.889  0.00  0.00    +0.000 C 
ATOM     19  N   UNL     1      42.832   4.082  11.146  0.00  0.00    +0.000 NA
ATOM     20  H   UNL     1      42.673   4.887  11.751  0.00  0.00    +0.000 HD
ENDBRANCH  12  15
ENDBRANCH  10  11
ENDBRANCH   8  10
ENDBRANCH   2   5
BRANCH   1  21
ATOM     21  C   UNL     1      48.787   6.132  17.175  0.00  0.00    +0.000 C 
BRANCH  21  22
ATOM     22  C   UNL     1      50.103   5.484  17.542  0.00  0.00    +0.000 A 
ATOM     23  C   UNL     1      51.201   6.175  18.031  0.00  0.00    +0.000 A 
ATOM     24  S   UNL     1      52.550   5.165  18.326  0.00  0.00    +0.000 S 
ATOM     25  C   UNL     1      51.704   3.777  17.819  0.00  0.00    +0.000 A 
ATOM     26  N   UNL     1      52.282   2.546  17.810  0.00  0.00    +0.000 NA
ATOM     27  C   UNL     1      51.492   1.590  17.446  0.00  0.00    +0.000 A 
ATOM     28  N   UNL     1      50.178   1.750  17.077  0.00  0.00    +0.000 N 
ATOM     29  C   UNL     1      49.585   2.984  16.972  0.00  0.00    +0.000 A 
ATOM     30  O   UNL     1      48.473   3.140  16.476  0.00  0.00    +0.000 OA
ATOM     31  C   UNL     1      50.414   4.081  17.434  0.00  0.00    +0.000 A 
ATOM     32  H   UNL     1      49.627   0.959  16.779  0.00  0.00    +0.000 HD
ENDBRANCH  21  22
BRANCH  21  34
ATOM     33  N   UNL     1      46.892   5.483  18.896  0.00  0.00    +0.000 NA
ATOM     34  C   UNL     1      47.729   5.760  18.146  0.00  0.00    +0.000 C 
ENDBRANCH  21  34
ENDBRANCH   1  21
TORSDOF 7
ENDMDL
MODEL 4
REMARK VINA RESULT:    -5.986      2.666      7.391
REMARK INTER + INTRA:         -10.221
REMARK INTER:                  -8.960
REMARK INTRA:                  -1.261
REMARK UNBOUND:                -1.786
REMARK  Name = 
REMARK  7 active torsions:
REMARK  status: ('A' for Active; 'I' for Inactive)
REMARK    1  A    between atoms: C_2  and  C_3
REMARK    2  A    between atoms: C_3  and  N_4
REMARK    3  A    between atoms: C_3  and  C_21
REMARK    4  A    between atoms: C_5  and  C_7
REMARK    5  A    between atoms: C_10  and  C_11
REMARK    6  A    between atoms: C_11  and  N_12
REMARK    7  A    between atoms: C_13  and  C_15
REMARK                            x       y       z     vdW  Elec       q    Type
REMARK                         _______ _______ _______ _____ _____    ______ ____
ROOT
ATOM      1  N   UNL     1      48.493   7.366  16.728  0.00  0.00    +0.000 N 
ATOM      2  C   UNL     1      49.404   7.708  15.760  0.00  0.00    +0.000 C 
ATOM      3  O   UNL     1      50.577   7.352  15.817  0.00  0.00    +0.000 OA
ATOM      4  H   UNL     1      47.496   7.456  16.551  0.00  0.00    +0.000 HD
ENDROOT
BRANCH   2   5
ATOM      5  C   UNL     1      48.847   8.546  14.608  0.00  0.00    +0.000 C 
ATOM      6  C   UNL     1      49.783   8.586  13.404  0.00  0.00    +0.000 C 
ATOM      7  C   UNL     1      49.474   7.318  12.610  0.00  0.00    +0.000 C 
ATOM      8  C   UNL     1      48.077   6.850  13.054  0.00  0.00    +0.000 C 
ATOM      9  C   UNL     1      47.572   7.941  14.011  0.00  0.00    +0.000 C 
BRANCH   8  10
ATOM     10  C   UNL     1      47.121   6.586  11.892  0.00  0.00    +0.000 C 
BRANCH  10  11
ATOM     11  N   UNL     1      45.829   6.116  12.362  0.00  0.00    +0.000 N 
ATOM     12  C   UNL     1      45.683   4.846  12.894  0.00  0.00    +0.000 C 
ATOM     13  O   UNL     1      46.626   4.067  13.011  0.00  0.00    +0.000 OA
ATOM     14  H   UNL     1      44.993   6.584  12.033  0.00  0.00    +0.000 HD
BRANCH  12  15
ATOM     15  C   UNL     1      44.235   4.503  13.321  0.00  0.00    +0.000 C 
ATOM     16  C   UNL     1      43.200   5.290  12.534  0.00  0.00    +0.000 C 
ATOM     17  C   UNL     1      43.043   4.484  11.258  0.00  0.00    +0.000 C 
ATOM     18  C   UNL     1      43.307   3.048  11.681  0.00  0.00    +0.000 C 
ATOM     19  N   UNL     1      43.894   3.094  13.026  0.00  0.00    +0.000 NA
ATOM     20  H   UNL     1      44.714   2.492  13.082  0.00  0.00    +0.000 HD
ENDBRANCH  12  15
ENDBRANCH  10  11
ENDBRANCH   8  10
ENDBRANCH   2   5
BRANCH   1  21
ATOM     21  C   UNL     1      48.887   6.519  17.844  0.00  0.00    +0.000 C 
BRANCH  21  22
ATOM     22  C   UNL     1      48.800   5.079  17.392  0.00  0.00    +0.000 A 
ATOM     23  C   UNL     1      47.688   4.521  16.782  0.00  0.00    +0.000 A 
ATOM     24  S   UNL     1      47.887   2.862  16.414  0.00  0.00    +0.000 S 
ATOM     25  C   UNL     1      49.466   2.844  17.052  0.00  0.00    +0.000 A 
ATOM     26  N   UNL     1      50.223   1.715  17.062  0.00  0.00    +0.000 NA
ATOM     27  C   UNL     1      51.416   1.878  17.534  0.00  0.00    +0.000 A 
ATOM     28  N   UNL     1      51.919   3.065  18.008  0.00  0.00    +0.000 N 
ATOM     29  C   UNL     1      51.158   4.203  18.112  0.00  0.00    +0.000 A 
ATOM     30  O   UNL     1      51.552   5.209  18.695  0.00  0.00    +0.000 OA
ATOM     31  C   UNL     1      49.833   4.083  17.533  0.00  0.00    +0.000 A 
ATOM     32  H   UNL     1      52.854   3.114  18.387  0.00  0.00    +0.000 HD
ENDBRANCH  21  22
BRANCH  21  34
ATOM     33  N   UNL     1      47.419   6.890  20.008  0.00  0.00    +0.000 NA
ATOM     34  C   UNL     1      48.067   6.738  19.060  0.00  0.00    +0.000 C 
ENDBRANCH  21  34
ENDBRANCH   1  21
TORSDOF 7
ENDMDL
MODEL 5
REMARK VINA RESULT:    -5.959      2.580      4.294
REMARK INTER + INTRA:         -10.184
REMARK INTER:                  -9.136
REMARK INTRA:                  -1.048
REMARK UNBOUND:                -1.786
REMARK  Name = 
REMARK  7 active torsions:
REMARK  status: ('A' for Active; 'I' for Inactive)
REMARK    1  A    between atoms: C_2  and  C_3
REMARK    2  A    between atoms: C_3  and  N_4
REMARK    3  A    between atoms: C_3  and  C_21
REMARK    4  A    between atoms: C_5  and  C_7
REMARK    5  A    between atoms: C_10  and  C_11
REMARK    6  A    between atoms: C_11  and  N_12
REMARK    7  A    between atoms: C_13  and  C_15
REMARK                            x       y       z     vdW  Elec       q    Type
REMARK                         _______ _______ _______ _____ _____    ______ ____
ROOT
ATOM      1  N   UNL     1      46.485   4.879  14.762  0.00  0.00    +0.000 N 
ATOM      2  C   UNL     1      47.190   3.920  15.444  0.00  0.00    +0.000 C 
ATOM      3  O   UNL     1      47.710   2.967  14.872  0.00  0.00    +0.000 OA
ATOM      4  H   UNL     1      46.273   5.772  15.201  0.00  0.00    +0.000 HD
ENDROOT
BRANCH   2   5
ATOM      5  C   UNL     1      47.290   4.135  16.954  0.00  0.00    +0.000 C 
ATOM      6  C   UNL     1      47.706   2.872  17.702  0.00  0.00    +0.000 C 
ATOM      7  C   UNL     1      49.231   2.839  17.623  0.00  0.00    +0.000 C 
ATOM      8  C   UNL     1      49.686   4.273  17.305  0.00  0.00    +0.000 C 
ATOM      9  C   UNL     1      48.404   5.119  17.330  0.00  0.00    +0.000 C 
BRANCH   8  10
ATOM     10  C   UNL     1      50.766   4.798  18.250  0.00  0.00    +0.000 C 
BRANCH  10  11
ATOM     11  N   UNL     1      51.635   3.727  18.710  0.00  0.00    +0.000 N 
ATOM     12  C   UNL     1      52.963   3.670  18.321  0.00  0.00    +0.000 C 
ATOM     13  O   UNL     1      53.473   4.516  17.591  0.00  0.00    +0.000 OA
ATOM     14  H   UNL     1      51.212   2.874  19.058  0.00  0.00    +0.000 HD
BRANCH  12  15
ATOM     15  C   UNL     1      53.733   2.451  18.884  0.00  0.00    +0.000 C 
ATOM     16  C   UNL     1      53.203   1.133  18.343  0.00  0.00    +0.000 C 
ATOM     17  C   UNL     1      53.906   0.994  17.005  0.00  0.00    +0.000 C 
ATOM     18  C   UNL     1      55.241   1.692  17.204  0.00  0.00    +0.000 C 
ATOM     19  N   UNL     1      55.151   2.452  18.457  0.00  0.00    +0.000 NA
ATOM     20  H   UNL     1      55.501   3.401  18.330  0.00  0.00    +0.000 HD
ENDBRANCH  12  15
ENDBRANCH  10  11
ENDBRANCH   8  10
ENDBRANCH   2   5
BRANCH   1  21
ATOM     21  C   UNL     1      46.371   4.819  13.311  0.00  0.00    +0.000 C 
BRANCH  21  22
ATOM     22  C   UNL     1      46.128   6.221  12.802  0.00  0.00    +0.000 A 
ATOM     23  C   UNL     1      44.937   6.647  12.234  0.00  0.00    +0.000 A 
ATOM     24  S   UNL     1      44.982   8.281  11.731  0.00  0.00    +0.000 S 
ATOM     25  C   UNL     1      46.589   8.468  12.263  0.00  0.00    +0.000 A 
ATOM     26  N   UNL     1      47.258   9.644  12.127  0.00  0.00    +0.000 NA
ATOM     27  C   UNL     1      48.451   9.638  12.626  0.00  0.00    +0.000 A 
ATOM     28  N   UNL     1      49.043   8.561  13.239  0.00  0.00    +0.000 N 
ATOM     29  C   UNL     1      48.444   7.327  13.306  0.00  0.00    +0.000 A 
ATOM     30  O   UNL     1      49.040   6.326  13.694  0.00  0.00    +0.000 OA
ATOM     31  C   UNL     1      47.079   7.304  12.817  0.00  0.00    +0.000 A 
ATOM     32  H   UNL     1      49.990   8.620  13.583  0.00  0.00    +0.000 HD
ENDBRANCH  21  22
BRANCH  21  34
ATOM     33  N   UNL     1      44.466   3.194  12.472  0.00  0.00    +0.000 NA
ATOM     34  C   UNL     1      45.303   3.899  12.849  0.00  0.00    +0.000 C 
ENDBRANCH  21  34
ENDBRANCH   1  21
TORSDOF 7
ENDMDL
MODEL 6
REMARK VINA RESULT:    -5.541      3.764      8.646
REMARK INTER + INTRA:          -9.595
REMARK INTER:                  -9.367
REMARK INTRA:                  -0.228
REMARK UNBOUND:                -1.786
REMARK  Name = 
REMARK  7 active torsions:
REMARK  status: ('A' for Active; 'I' for Inactive)
REMARK    1  A    between atoms: C_2  and  C_3
REMARK    2  A    between atoms: C_3  and  N_4
REMARK    3  A    between atoms: C_3  and  C_21
REMARK    4  A    between atoms: C_5  and  C_7
REMARK    5  A    between atoms: C_10  and  C_11
REMARK    6  A    between atoms: C_11  and  N_12
REMARK    7  A    between atoms: C_13  and  C_15
REMARK                            x       y       z     vdW  Elec       q    Type
REMARK                         _______ _______ _______ _____ _____    ______ ____
ROOT
ATOM      1  N   UNL     1      46.669   5.320  13.058  0.00  0.00    +0.000 N 
ATOM      2  C   UNL     1      45.594   6.173  13.047  0.00  0.00    +0.000 C 
ATOM      3  O   UNL     1      45.721   7.380  13.230  0.00  0.00    +0.000 OA
ATOM      4  H   UNL     1      46.587   4.383  12.672  0.00  0.00    +0.000 HD
ENDROOT
BRANCH   2   5
ATOM      5  C   UNL     1      44.242   5.513  12.777  0.00  0.00    +0.000 C 
ATOM      6  C   UNL     1      43.512   6.132  11.590  0.00  0.00    +0.000 C 
ATOM      7  C   UNL     1      44.081   5.432  10.356  0.00  0.00    +0.000 C 
ATOM      8  C   UNL     1      44.716   4.121  10.848  0.00  0.00    +0.000 C 
ATOM      9  C   UNL     1      44.383   4.049  12.346  0.00  0.00    +0.000 C 
BRANCH   8  10
ATOM     10  C   UNL     1      44.253   2.888  10.074  0.00  0.00    +0.000 C 
BRANCH  10  11
ATOM     11  N   UNL     1      44.704   2.927   8.692  0.00  0.00    +0.000 N 
ATOM     12  C   UNL     1      45.508   1.925   8.176  0.00  0.00    +0.000 C 
ATOM     13  O   UNL     1      45.865   0.957   8.843  0.00  0.00    +0.000 OA
ATOM     14  H   UNL     1      44.687   3.814   8.202  0.00  0.00    +0.000 HD
BRANCH  12  15
ATOM     15  C   UNL     1      45.914   2.140   6.698  0.00  0.00    +0.000 C 
ATOM     16  C   UNL     1      46.404   3.555   6.434  0.00  0.00    +0.000 C 
ATOM     17  C   UNL     1      47.861   3.506   6.854  0.00  0.00    +0.000 C 
ATOM     18  C   UNL     1      48.290   2.077   6.568  0.00  0.00    +0.000 C 
ATOM     19  N   UNL     1      47.070   1.299   6.318  0.00  0.00    +0.000 NA
ATOM     20  H   UNL     1      47.085   0.426   6.842  0.00  0.00    +0.000 HD
ENDBRANCH  12  15
ENDBRANCH  10  11
ENDBRANCH   8  10
ENDBRANCH   2   5
BRANCH   1  21
ATOM     21  C   UNL     1      48.018   5.837  13.244  0.00  0.00    +0.000 C 
BRANCH  21  22
ATOM     22  C   UNL     1      48.216   6.109  14.717  0.00  0.00    +0.000 A 
ATOM     23  C   UNL     1      48.641   7.324  15.234  0.00  0.00    +0.000 A 
ATOM     24  S   UNL     1      48.795   7.309  16.938  0.00  0.00    +0.000 S 
ATOM     25  C   UNL     1      48.292   5.685  17.035  0.00  0.00    +0.000 A 
ATOM     26  N   UNL     1      48.205   5.030  18.222  0.00  0.00    +0.000 NA
ATOM     27  C   UNL     1      47.760   3.819  18.131  0.00  0.00    +0.000 A 
ATOM     28  N   UNL     1      47.406   3.197  16.959  0.00  0.00    +0.000 N 
ATOM     29  C   UNL     1      47.575   3.783  15.729  0.00  0.00    +0.000 A 
ATOM     30  O   UNL     1      47.425   3.167  14.678  0.00  0.00    +0.000 OA
ATOM     31  C   UNL     1      48.009   5.166  15.788  0.00  0.00    +0.000 A 
ATOM     32  H   UNL     1      47.090   2.238  16.960  0.00  0.00    +0.000 HD
ENDBRANCH  21  22
BRANCH  21  34
ATOM     33  N   UNL     1      48.483   8.013  11.822  0.00  0.00    +0.000 NA
ATOM     34  C   UNL     1      48.290   7.056  12.443  0.00  0.00    +0.000 C 
ENDBRANCH  21  34
ENDBRANCH   1  21
TORSDOF 7
ENDMDL
MODEL 7
REMARK VINA RESULT:    -5.537      2.704      7.723
REMARK INTER + INTRA:          -9.589
REMARK INTER:                  -8.075
REMARK INTRA:                  -1.513
REMARK UNBOUND:                -1.786
REMARK  Name = 
REMARK  7 active torsions:
REMARK  status: ('A' for Active; 'I' for Inactive)
REMARK    1  A    between atoms: C_2  and  C_3
REMARK    2  A    between atoms: C_3  and  N_4
REMARK    3  A    between atoms: C_3  and  C_21
REMARK    4  A    between atoms: C_5  and  C_7
REMARK    5  A    between atoms: C_10  and  C_11
REMARK    6  A    between atoms: C_11  and  N_12
REMARK    7  A    between atoms: C_13  and  C_15
REMARK                            x       y       z     vdW  Elec       q    Type
REMARK                         _______ _______ _______ _____ _____    ______ ____
ROOT
ATOM      1  N   UNL     1      49.427   9.438  14.436  0.00  0.00    +0.000 N 
ATOM      2  C   UNL     1      49.816   8.815  13.277  0.00  0.00    +0.000 C 
ATOM      3  O   UNL     1      50.869   8.189  13.199  0.00  0.00    +0.000 OA
ATOM      4  H   UNL     1      48.464   9.738  14.561  0.00  0.00    +0.000 HD
ENDROOT
BRANCH   2   5
ATOM      5  C   UNL     1      48.840   8.946  12.108  0.00  0.00    +0.000 C 
ATOM      6  C   UNL     1      48.616   7.625  11.378  0.00  0.00    +0.000 C 
ATOM      7  C   UNL     1      47.536   6.899  12.177  0.00  0.00    +0.000 C 
ATOM      8  C   UNL     1      46.811   7.970  13.010  0.00  0.00    +0.000 C 
ATOM      9  C   UNL     1      47.424   9.308  12.569  0.00  0.00    +0.000 C 
BRANCH   8  10
ATOM     10  C   UNL     1      45.290   7.933  12.865  0.00  0.00    +0.000 C 
BRANCH  10  11
ATOM     11  N   UNL     1      44.876   6.994  11.835  0.00  0.00    +0.000 N 
ATOM     12  C   UNL     1      43.997   5.964  12.121  0.00  0.00    +0.000 C 
ATOM     13  O   UNL     1      43.514   5.801  13.239  0.00  0.00    +0.000 OA
ATOM     14  H   UNL     1      45.448   6.904  11.003  0.00  0.00    +0.000 HD
BRANCH  12  15
ATOM     15  C   UNL     1      43.686   5.046  10.914  0.00  0.00    +0.000 C 
ATOM     16  C   UNL     1      44.918   4.307  10.419  0.00  0.00    +0.000 C 
ATOM     17  C   UNL     1      45.004   3.108  11.343  0.00  0.00    +0.000 C 
ATOM     18  C   UNL     1      43.559   2.804  11.706  0.00  0.00    +0.000 C 
ATOM     19  N   UNL     1      42.754   3.956  11.279  0.00  0.00    +0.000 NA
ATOM     20  H   UNL     1      42.115   4.243  12.019  0.00  0.00    +0.000 HD
ENDBRANCH  12  15
ENDBRANCH  10  11
ENDBRANCH   8  10
ENDBRANCH   2   5
BRANCH   1  21
ATOM     21  C   UNL     1      50.242   9.335  15.638  0.00  0.00    +0.000 C 
BRANCH  21  22
ATOM     22  C   UNL     1      49.327   9.017  16.799  0.00  0.00    +0.000 A 
ATOM     23  C   UNL     1      48.833   9.964  17.682  0.00  0.00    +0.000 A 
ATOM     24  S   UNL     1      47.846   9.289  18.905  0.00  0.00    +0.000 S 
ATOM     25  C   UNL     1      48.044   7.715  18.286  0.00  0.00    +0.000 A 
ATOM     26  N   UNL     1      47.461   6.634  18.871  0.00  0.00    +0.000 NA
ATOM     27  C   UNL     1      47.667   5.518  18.251  0.00  0.00    +0.000 A 
ATOM     28  N   UNL     1      48.412   5.380  17.105  0.00  0.00    +0.000 N 
ATOM     29  C   UNL     1      49.101   6.424  16.539  0.00  0.00    +0.000 A 
ATOM     30  O   UNL     1      49.903   6.265  15.624  0.00  0.00    +0.000 OA
ATOM     31  C   UNL     1      48.847   7.708  17.164  0.00  0.00    +0.000 A 
ATOM     32  H   UNL     1      48.552   4.471  16.689  0.00  0.00    +0.000 HD
ENDBRANCH  21  22
BRANCH  21  34
ATOM     33  N   UNL     1      51.662  11.511  16.111  0.00  0.00    +0.000 NA
ATOM     34  C   UNL     1      51.033  10.559  15.913  0.00  0.00    +0.000 C 
ENDBRANCH  21  34
ENDBRANCH   1  21
TORSDOF 7
ENDMDL
MODEL 8
REMARK VINA RESULT:    -5.521      2.700      5.391
REMARK INTER + INTRA:          -9.567
REMARK INTER:                  -9.087
REMARK INTRA:                  -0.480
REMARK UNBOUND:                -1.786
REMARK  Name = 
REMARK  7 active torsions:
REMARK  status: ('A' for Active; 'I' for Inactive)
REMARK    1  A    between atoms: C_2  and  C_3
REMARK    2  A    between atoms: C_3  and  N_4
REMARK    3  A    between atoms: C_3  and  C_21
REMARK    4  A    between atoms: C_5  and  C_7
REMARK    5  A    between atoms: C_10  and  C_11
REMARK    6  A    between atoms: C_11  and  N_12
REMARK    7  A    between atoms: C_13  and  C_15
REMARK                            x       y       z     vdW  Elec       q    Type
REMARK                         _______ _______ _______ _____ _____    ______ ____
ROOT
ATOM      1  N   UNL     1      46.346   6.608  12.706  0.00  0.00    +0.000 N 
ATOM      2  C   UNL     1      46.991   7.731  13.159  0.00  0.00    +0.000 C 
ATOM      3  O   UNL     1      46.382   8.757  13.448  0.00  0.00    +0.000 OA
ATOM      4  H   UNL     1      46.819   5.708  12.703  0.00  0.00    +0.000 HD
ENDROOT
BRANCH   2   5
ATOM      5  C   UNL     1      48.509   7.603  13.290  0.00  0.00    +0.000 C 
ATOM      6  C   UNL     1      49.191   8.940  13.561  0.00  0.00    +0.000 C 
ATOM      7  C   UNL     1      49.094   9.144  15.072  0.00  0.00    +0.000 C 
ATOM      8  C   UNL     1      48.841   7.758  15.688  0.00  0.00    +0.000 C 
ATOM      9  C   UNL     1      48.920   6.773  14.512  0.00  0.00    +0.000 C 
BRANCH   8  10
ATOM     10  C   UNL     1      49.799   7.409  16.826  0.00  0.00    +0.000 C 
BRANCH  10  11
ATOM     11  N   UNL     1      49.385   6.199  17.517  0.00  0.00    +0.000 N 
ATOM     12  C   UNL     1      50.175   5.062  17.501  0.00  0.00    +0.000 C 
ATOM     13  O   UNL     1      51.259   5.021  16.924  0.00  0.00    +0.000 OA
ATOM     14  H   UNL     1      48.405   6.084  17.750  0.00  0.00    +0.000 HD
BRANCH  12  15
ATOM     15  C   UNL     1      49.569   3.861  18.266  0.00  0.00    +0.000 C 
ATOM     16  C   UNL     1      48.065   3.756  18.077  0.00  0.00    +0.000 C 
ATOM     17  C   UNL     1      47.927   3.019  16.758  0.00  0.00    +0.000 C 
ATOM     18  C   UNL     1      49.152   2.120  16.697  0.00  0.00    +0.000 C 
ATOM     19  N   UNL     1      50.072   2.569  17.749  0.00  0.00    +0.000 NA
ATOM     20  H   UNL     1      51.020   2.656  17.385  0.00  0.00    +0.000 HD
ENDBRANCH  12  15
ENDBRANCH  10  11
ENDBRANCH   8  10
ENDBRANCH   2   5
BRANCH   1  21
ATOM     21  C   UNL     1      44.894   6.585  12.596  0.00  0.00    +0.000 C 
BRANCH  21  22
ATOM     22  C   UNL     1      44.481   5.207  12.133  0.00  0.00    +0.000 A 
ATOM     23  C   UNL     1      43.716   4.330  12.885  0.00  0.00    +0.000 A 
ATOM     24  S   UNL     1      43.439   2.837  12.097  0.00  0.00    +0.000 S 
ATOM     25  C   UNL     1      44.325   3.323  10.726  0.00  0.00    +0.000 A 
ATOM     26  N   UNL     1      44.495   2.505   9.654  0.00  0.00    +0.000 NA
ATOM     27  C   UNL     1      45.149   3.039   8.674  0.00  0.00    +0.000 A 
ATOM     28  N   UNL     1      45.660   4.314   8.672  0.00  0.00    +0.000 N 
ATOM     29  C   UNL     1      45.602   5.137   9.770  0.00  0.00    +0.000 A 
ATOM     30  O   UNL     1      46.208   6.203   9.828  0.00  0.00    +0.000 OA
ATOM     31  C   UNL     1      44.820   4.603  10.868  0.00  0.00    +0.000 A 
ATOM     32  H   UNL     1      46.184   4.658   7.880  0.00  0.00    +0.000 HD
ENDBRANCH  21  22
BRANCH  21  34
ATOM     33  N   UNL     1      43.953   8.455  10.986  0.00  0.00    +0.000 NA
ATOM     34  C   UNL     1      44.362   7.628  11.685  0.00  0.00    +0.000 C 
ENDBRANCH  21  34
ENDBRANCH   1  21
TORSDOF 7
ENDMDL
MODEL 9
REMARK VINA RESULT:    -5.490      2.371      5.530
REMARK INTER + INTRA:          -9.523
REMARK INTER:                  -8.832
REMARK INTRA:                  -0.691
REMARK UNBOUND:                -1.786
REMARK  Name = 
REMARK  7 active torsions:
REMARK  status: ('A' for Active; 'I' for Inactive)
REMARK    1  A    between atoms: C_2  and  C_3
REMARK    2  A    between atoms: C_3  and  N_4
REMARK    3  A    between atoms: C_3  and  C_21
REMARK    4  A    between atoms: C_5  and  C_7
REMARK    5  A    between atoms: C_10  and  C_11
REMARK    6  A    between atoms: C_11  and  N_12
REMARK    7  A    between atoms: C_13  and  C_15
REMARK                            x       y       z     vdW  Elec       q    Type
REMARK                         _______ _______ _______ _____ _____    ______ ____
ROOT
ATOM      1  N   UNL     1      46.836   7.291  12.182  0.00  0.00    +0.000 N 
ATOM      2  C   UNL     1      47.287   8.270  13.031  0.00  0.00    +0.000 C 
ATOM      3  O   UNL     1      46.520   9.043  13.598  0.00  0.00    +0.000 OA
ATOM      4  H   UNL     1      47.443   6.520  11.917  0.00  0.00    +0.000 HD
ENDROOT
BRANCH   2   5
ATOM      5  C   UNL     1      48.802   8.314  13.229  0.00  0.00    +0.000 C 
ATOM      6  C   UNL     1      49.293   9.672  13.721  0.00  0.00    +0.000 C 
ATOM      7  C   UNL     1      49.113   9.641  15.238  0.00  0.00    +0.000 C 
ATOM      8  C   UNL     1      49.020   8.159  15.640  0.00  0.00    +0.000 C 
ATOM      9  C   UNL     1      49.272   7.373  14.344  0.00  0.00    +0.000 C 
BRANCH   8  10
ATOM     10  C   UNL     1      49.972   7.769  16.770  0.00  0.00    +0.000 C 
BRANCH  10  11
ATOM     11  N   UNL     1      49.438   6.673  17.561  0.00  0.00    +0.000 N 
ATOM     12  C   UNL     1      49.968   5.398  17.461  0.00  0.00    +0.000 C 
ATOM     13  O   UNL     1      50.914   5.132  16.724  0.00  0.00    +0.000 OA
ATOM     14  H   UNL     1      48.506   6.764  17.949  0.00  0.00    +0.000 HD
BRANCH  12  15
ATOM     15  C   UNL     1      49.263   4.350  18.356  0.00  0.00    +0.000 C 
ATOM     16  C   UNL     1      47.763   4.301  18.115  0.00  0.00    +0.000 C 
ATOM     17  C   UNL     1      47.631   3.396  16.904  0.00  0.00    +0.000 C 
ATOM     18  C   UNL     1      48.801   2.433  17.021  0.00  0.00    +0.000 C 
ATOM     19  N   UNL     1      49.707   2.973  18.043  0.00  0.00    +0.000 NA
ATOM     20  H   UNL     1      50.671   2.957  17.715  0.00  0.00    +0.000 HD
ENDBRANCH  12  15
ENDBRANCH  10  11
ENDBRANCH   8  10
ENDBRANCH   2   5
BRANCH   1  21
ATOM     21  C   UNL     1      45.408   7.108  11.961  0.00  0.00    +0.000 C 
BRANCH  21  22
ATOM     22  C   UNL     1      45.223   5.896  11.077  0.00  0.00    +0.000 A 
ATOM     23  C   UNL     1      45.707   5.796   9.782  0.00  0.00    +0.000 A 
ATOM     24  S   UNL     1      45.311   4.310   9.032  0.00  0.00    +0.000 S 
ATOM     25  C   UNL     1      44.489   3.756  10.417  0.00  0.00    +0.000 A 
ATOM     26  N   UNL     1      43.890   2.536  10.456  0.00  0.00    +0.000 NA
ATOM     27  C   UNL     1      43.353   2.244  11.595  0.00  0.00    +0.000 A 
ATOM     28  N   UNL     1      43.348   3.064  12.697  0.00  0.00    +0.000 N 
ATOM     29  C   UNL     1      43.849   4.342  12.671  0.00  0.00    +0.000 A 
ATOM     30  O   UNL     1      43.688   5.132  13.596  0.00  0.00    +0.000 OA
ATOM     31  C   UNL     1      44.521   4.688  11.433  0.00  0.00    +0.000 A 
ATOM     32  H   UNL     1      42.886   2.780  13.549  0.00  0.00    +0.000 HD
ENDBRANCH  21  22
BRANCH  21  34
ATOM     33  N   UNL     1      44.262   9.233  10.890  0.00  0.00    +0.000 NA
ATOM     34  C   UNL     1      44.754   8.299  11.364  0.00  0.00    +0.000 C 
ENDBRANCH  21  34
ENDBRANCH   1  21
TORSDOF 7
ENDMDL
