MODEL 1
REMARK VINA RESULT:    -8.066      0.000      0.000
REMARK INTER + INTRA:         -11.504
REMARK INTER:                 -10.895
REMARK INTRA:                  -0.609
REMARK UNBOUND:                -0.609
REMARK  Name = 
REMARK  9 active torsions:
REMARK  status: ('A' for Active; 'I' for Inactive)
REMARK    1  A    between atoms: C_1  and  C_2
REMARK    2  A    between atoms: C_2  and  N_3
REMARK    3  A    between atoms: C_2  and  C_10
REMARK    4  A    between atoms: N_3  and  C_4
REMARK    5  A    between atoms: N_7  and  C_8
REMARK    6  A    between atoms: C_13  and  N_14
REMARK    7  A    between atoms: N_14  and  C_15
REMARK    8  A    between atoms: C_15  and  C_16
REMARK    9  A    between atoms: C_15  and  C_17
REMARK                            x       y       z     vdW  Elec       q    Type
REMARK                         _______ _______ _______ _____ _____    ______ ____
ROOT
ATOM      1  C   UNL     1      44.590   5.641  10.866  0.00  0.00    +0.000 A 
ATOM      2  C   UNL     1      44.054   6.282  11.994  0.00  0.00    +0.000 A 
ATOM      3  C   UNL     1      44.887   6.947  12.908  0.00  0.00    +0.000 A 
ATOM      4  C   UNL     1      46.268   7.012  12.722  0.00  0.00    +0.000 A 
ATOM      5  C   UNL     1      46.773   6.538  11.513  0.00  0.00    +0.000 A 
ATOM      6  C   UNL     1      45.948   5.877  10.591  0.00  0.00    +0.000 A 
ENDROOT
BRANCH   1   8
ATOM      7  C   UNL     1      43.553   3.304  11.016  0.00  0.00    +0.000 C 
ATOM      8  C   UNL     1      43.772   4.551  10.143  0.00  0.00    +0.000 C 
BRANCH   8   9
ATOM      9  N   UNL     1      44.296   4.208   8.807  0.00  0.00    +0.000 NA
ATOM     10  H   UNL     1      43.624   3.600   8.341  0.00  0.00    +0.000 HD
BRANCH   9  11
ATOM     11  C   UNL     1      45.612   3.527   8.789  0.00  0.00    +0.000 C 
ATOM     12  C   UNL     1      46.397   3.932   7.533  0.00  0.00    +0.000 C 
ATOM     13  C   UNL     1      47.148   2.680   7.111  0.00  0.00    +0.000 C 
ATOM     14  N   UNL     1      46.228   1.602   7.470  0.00  0.00    +0.000 NA
ATOM     15  C   UNL     1      46.906   0.309   7.475  0.00  0.00    +0.000 C 
ATOM     16  C   UNL     1      45.666   1.974   8.776  0.00  0.00    +0.000 C 
ENDBRANCH   9  11
ENDBRANCH   8   9
ENDBRANCH   1   8
BRANCH   4  17
ATOM     17  N   UNL     1      47.142   7.430  13.704  0.00  0.00    +0.000 N 
ATOM     18  H   UNL     1      47.031   8.374  14.077  0.00  0.00    +0.000 HD
BRANCH  17  19
ATOM     19  C   UNL     1      48.425   6.798  13.999  0.00  0.00    +0.000 C 
ATOM     20  C   UNL     1      49.566   7.686  13.487  0.00  0.00    +0.000 C 
BRANCH  19  21
ATOM     21  C   UNL     1      48.622   6.470  15.462  0.00  0.00    +0.000 A 
ATOM     22  C   UNL     1      49.367   7.246  16.336  0.00  0.00    +0.000 A 
ATOM     23  S   UNL     1      49.523   6.543  17.885  0.00  0.00    +0.000 S 
ATOM     24  C   UNL     1      48.588   5.193  17.438  0.00  0.00    +0.000 A 
ATOM     25  N   UNL     1      48.385   4.154  18.296  0.00  0.00    +0.000 NA
ATOM     26  C   UNL     1      47.677   3.191  17.791  0.00  0.00    +0.000 A 
ATOM     27  N   UNL     1      47.127   3.193  16.534  0.00  0.00    +0.000 N 
ATOM     28  C   UNL     1      47.216   4.266  15.681  0.00  0.00    +0.000 A 
ATOM     29  O   UNL     1      46.542   4.309  14.650  0.00  0.00    +0.000 OA
ATOM     30  C   UNL     1      48.102   5.313  16.146  0.00  0.00    +0.000 A 
ATOM     31  H   UNL     1      46.532   2.441  16.247  0.00  0.00    +0.000 HD
ENDBRANCH  19  21
ENDBRANCH  17  19
ENDBRANCH   4  17
TORSDOF 6
ENDMDL
MODEL 2
REMARK VINA RESULT:    -7.641      1.090      1.537
REMARK INTER + INTRA:         -10.930
REMARK INTER:                  -9.678
REMARK INTRA:                  -1.252
REMARK UNBOUND:                -0.609
REMARK  Name = 
REMARK  9 active torsions:
REMARK  status: ('A' for Active; 'I' for Inactive)
REMARK    1  A    between atoms: C_1  and  C_2
REMARK    2  A    between atoms: C_2  and  N_3
REMARK    3  A    between atoms: C_2  and  C_10
REMARK    4  A    between atoms: N_3  and  C_4
REMARK    5  A    between atoms: N_7  and  C_8
REMARK    6  A    between atoms: C_13  and  N_14
REMARK    7  A    between atoms: N_14  and  C_15
REMARK    8  A    between atoms: C_15  and  C_16
REMARK    9  A    between atoms: C_15  and  C_17
REMARK                            x       y       z     vdW  Elec       q    Type
REMARK                         _______ _______ _______ _____ _____    ______ ____
ROOT
ATOM      1  C   UNL     1      45.170   6.560  11.397  0.00  0.00    +0.000 A 
ATOM      2  C   UNL     1      44.867   7.611  12.277  0.00  0.00    +0.000 A 
ATOM      3  C   UNL     1      45.866   8.196  13.070  0.00  0.00    +0.000 A 
ATOM      4  C   UNL     1      47.193   7.772  13.002  0.00  0.00    +0.000 A 
ATOM      5  C   UNL     1      47.522   6.862  11.999  0.00  0.00    +0.000 A 
ATOM      6  C   UNL     1      46.532   6.275  11.198  0.00  0.00    +0.000 A 
ENDROOT
BRANCH   1   8
ATOM      7  C   UNL     1      42.716   5.866  11.634  0.00  0.00    +0.000 C 
ATOM      8  C   UNL     1      44.044   5.633  10.893  0.00  0.00    +0.000 C 
BRANCH   8   9
ATOM      9  N   UNL     1      44.422   4.207  10.865  0.00  0.00    +0.000 NA
ATOM     10  H   UNL     1      45.369   4.116  11.230  0.00  0.00    +0.000 HD
BRANCH   9  11
ATOM     11  C   UNL     1      44.384   3.559   9.534  0.00  0.00    +0.000 C 
ATOM     12  C   UNL     1      44.974   2.143   9.621  0.00  0.00    +0.000 C 
ATOM     13  C   UNL     1      45.717   1.939   8.311  0.00  0.00    +0.000 C 
ATOM     14  N   UNL     1      46.232   3.273   8.008  0.00  0.00    +0.000 NA
ATOM     15  C   UNL     1      46.669   3.368   6.619  0.00  0.00    +0.000 C 
ATOM     16  C   UNL     1      45.150   4.207   8.348  0.00  0.00    +0.000 C 
ENDBRANCH   9  11
ENDBRANCH   8   9
ENDBRANCH   1   8
BRANCH   4  17
ATOM     17  N   UNL     1      48.150   8.138  13.926  0.00  0.00    +0.000 N 
ATOM     18  H   UNL     1      48.357   9.131  14.036  0.00  0.00    +0.000 HD
BRANCH  17  19
ATOM     19  C   UNL     1      49.146   7.232  14.493  0.00  0.00    +0.000 C 
ATOM     20  C   UNL     1      50.536   7.874  14.401  0.00  0.00    +0.000 C 
BRANCH  19  21
ATOM     21  C   UNL     1      48.849   6.811  15.915  0.00  0.00    +0.000 A 
ATOM     22  C   UNL     1      49.189   7.558  17.031  0.00  0.00    +0.000 A 
ATOM     23  S   UNL     1      48.851   6.755  18.501  0.00  0.00    +0.000 S 
ATOM     24  C   UNL     1      48.226   5.396  17.688  0.00  0.00    +0.000 A 
ATOM     25  N   UNL     1      47.813   4.289  18.368  0.00  0.00    +0.000 NA
ATOM     26  C   UNL     1      47.394   3.331  17.600  0.00  0.00    +0.000 A 
ATOM     27  N   UNL     1      47.313   3.396  16.232  0.00  0.00    +0.000 N 
ATOM     28  C   UNL     1      47.614   4.530  15.519  0.00  0.00    +0.000 A 
ATOM     29  O   UNL     1      47.336   4.615  14.321  0.00  0.00    +0.000 OA
ATOM     30  C   UNL     1      48.208   5.584  16.315  0.00  0.00    +0.000 A 
ATOM     31  H   UNL     1      46.908   2.638  15.718  0.00  0.00    +0.000 HD
ENDBRANCH  19  21
ENDBRANCH  17  19
ENDBRANCH   4  17
TORSDOF 6
ENDMDL
MODEL 3
REMARK VINA RESULT:    -7.191      2.294      3.400
REMARK INTER + INTRA:         -10.322
REMARK INTER:                  -9.207
REMARK INTRA:                  -1.115
REMARK UNBOUND:                -0.609
REMARK  Name = 
REMARK  9 active torsions:
REMARK  status: ('A' for Active; 'I' for Inactive)
REMARK    1  A    between atoms: C_1  and  C_2
REMARK    2  A    between atoms: C_2  and  N_3
REMARK    3  A    between atoms: C_2  and  C_10
REMARK    4  A    between atoms: N_3  and  C_4
REMARK    5  A    between atoms: N_7  and  C_8
REMARK    6  A    between atoms: C_13  and  N_14
REMARK    7  A    between atoms: N_14  and  C_15
REMARK    8  A    between atoms: C_15  and  C_16
REMARK    9  A    between atoms: C_15  and  C_17
REMARK                            x       y       z     vdW  Elec       q    Type
REMARK                         _______ _______ _______ _____ _____    ______ ____
ROOT
ATOM      1  C   UNL     1      46.350   5.397  12.484  0.00  0.00    +0.000 A 
ATOM      2  C   UNL     1      47.216   6.356  13.032  0.00  0.00    +0.000 A 
ATOM      3  C   UNL     1      47.772   6.180  14.309  0.00  0.00    +0.000 A 
ATOM      4  C   UNL     1      47.500   5.043  15.071  0.00  0.00    +0.000 A 
ATOM      5  C   UNL     1      46.793   4.013  14.453  0.00  0.00    +0.000 A 
ATOM      6  C   UNL     1      46.239   4.179  13.175  0.00  0.00    +0.000 A 
ENDROOT
BRANCH   1   8
ATOM      7  C   UNL     1      45.047   7.287  11.348  0.00  0.00    +0.000 C 
ATOM      8  C   UNL     1      45.401   5.790  11.332  0.00  0.00    +0.000 C 
BRANCH   8   9
ATOM      9  N   UNL     1      44.202   4.936  11.238  0.00  0.00    +0.000 NA
ATOM     10  H   UNL     1      44.225   4.259  12.000  0.00  0.00    +0.000 HD
BRANCH   9  11
ATOM     11  C   UNL     1      44.047   4.186   9.970  0.00  0.00    +0.000 C 
ATOM     12  C   UNL     1      44.217   2.680  10.225  0.00  0.00    +0.000 C 
ATOM     13  C   UNL     1      44.934   2.146   8.996  0.00  0.00    +0.000 C 
ATOM     14  N   UNL     1      45.812   3.251   8.615  0.00  0.00    +0.000 NA
ATOM     15  C   UNL     1      46.321   3.077   7.258  0.00  0.00    +0.000 C 
ATOM     16  C   UNL     1      45.016   4.474   8.790  0.00  0.00    +0.000 C 
ENDBRANCH   9  11
ENDBRANCH   8   9
ENDBRANCH   1   8
BRANCH   4  17
ATOM     17  N   UNL     1      47.815   4.941  16.410  0.00  0.00    +0.000 N 
ATOM     18  H   UNL     1      47.243   4.328  16.993  0.00  0.00    +0.000 HD
BRANCH  17  19
ATOM     19  C   UNL     1      48.645   5.893  17.144  0.00  0.00    +0.000 C 
ATOM     20  C   UNL     1      48.002   6.195  18.503  0.00  0.00    +0.000 C 
BRANCH  19  21
ATOM     21  C   UNL     1      50.077   5.442  17.322  0.00  0.00    +0.000 A 
ATOM     22  C   UNL     1      51.171   6.289  17.244  0.00  0.00    +0.000 A 
ATOM     23  S   UNL     1      52.664   5.463  17.346  0.00  0.00    +0.000 S 
ATOM     24  C   UNL     1      51.891   3.956  17.514  0.00  0.00    +0.000 A 
ATOM     25  N   UNL     1      52.604   2.796  17.581  0.00  0.00    +0.000 NA
ATOM     26  C   UNL     1      51.865   1.734  17.676  0.00  0.00    +0.000 A 
ATOM     27  N   UNL     1      50.494   1.732  17.751  0.00  0.00    +0.000 N 
ATOM     28  C   UNL     1      49.747   2.883  17.798  0.00  0.00    +0.000 A 
ATOM     29  O   UNL     1      48.545   2.844  18.069  0.00  0.00    +0.000 OA
ATOM     30  C   UNL     1      50.513   4.090  17.565  0.00  0.00    +0.000 A 
ATOM     31  H   UNL     1      50.003   0.872  17.897  0.00  0.00    +0.000 HD
ENDBRANCH  19  21
ENDBRANCH  17  19
ENDBRANCH   4  17
TORSDOF 6
ENDMDL
MODEL 4
REMARK VINA RESULT:    -6.949      2.316      3.726
REMARK INTER + INTRA:          -9.995
REMARK INTER:                  -8.764
REMARK INTRA:                  -1.231
REMARK UNBOUND:                -0.609
REMARK  Name = 
REMARK  9 active torsions:
REMARK  status: ('A' for Active; 'I' for Inactive)
REMARK    1  A    between atoms: C_1  and  C_2
REMARK    2  A    between atoms: C_2  and  N_3
REMARK    3  A    between atoms: C_2  and  C_10
REMARK    4  A    between atoms: N_3  and  C_4
REMARK    5  A    between atoms: N_7  and  C_8
REMARK    6  A    between atoms: C_13  and  N_14
REMARK    7  A    between atoms: N_14  and  C_15
REMARK    8  A    between atoms: C_15  and  C_16
REMARK    9  A    between atoms: C_15  and  C_17
REMARK                            x       y       z     vdW  Elec       q    Type
REMARK                         _______ _______ _______ _____ _____    ______ ____
ROOT
ATOM      1  C   UNL     1      46.492   6.844  12.397  0.00  0.00    +0.000 A 
ATOM      2  C   UNL     1      47.495   7.806  12.201  0.00  0.00    +0.000 A 
ATOM      3  C   UNL     1      48.581   7.905  13.083  0.00  0.00    +0.000 A 
ATOM      4  C   UNL     1      48.716   7.045  14.173  0.00  0.00    +0.000 A 
ATOM      5  C   UNL     1      47.823   5.978  14.259  0.00  0.00    +0.000 A 
ATOM      6  C   UNL     1      46.737   5.868  13.378  0.00  0.00    +0.000 A 
ENDROOT
BRANCH   1   8
ATOM      7  C   UNL     1      44.814   8.501  11.398  0.00  0.00    +0.000 C 
ATOM      8  C   UNL     1      45.111   7.030  11.736  0.00  0.00    +0.000 C 
BRANCH   8   9
ATOM      9  N   UNL     1      44.008   6.399  12.485  0.00  0.00    +0.000 NA
ATOM     10  H   UNL     1      44.370   6.067  13.378  0.00  0.00    +0.000 HD
BRANCH   9  11
ATOM     11  C   UNL     1      43.345   5.258  11.812  0.00  0.00    +0.000 C 
ATOM     12  C   UNL     1      43.357   4.026  12.731  0.00  0.00    +0.000 C 
ATOM     13  C   UNL     1      43.556   2.839  11.803  0.00  0.00    +0.000 C 
ATOM     14  N   UNL     1      44.424   3.374  10.756  0.00  0.00    +0.000 NA
ATOM     15  C   UNL     1      44.443   2.500   9.587  0.00  0.00    +0.000 C 
ATOM     16  C   UNL     1      43.920   4.725  10.470  0.00  0.00    +0.000 C 
ENDBRANCH   9  11
ENDBRANCH   8   9
ENDBRANCH   1   8
BRANCH   4  17
ATOM     17  N   UNL     1      49.617   7.258  15.196  0.00  0.00    +0.000 N 
ATOM     18  H   UNL     1      50.368   7.931  15.042  0.00  0.00    +0.000 HD
BRANCH  17  19
ATOM     19  C   UNL     1      49.817   6.357  16.328  0.00  0.00    +0.000 C 
ATOM     20  C   UNL     1      51.318   6.202  16.603  0.00  0.00    +0.000 C 
BRANCH  19  21
ATOM     21  C   UNL     1      49.089   6.783  17.583  0.00  0.00    +0.000 A 
ATOM     22  C   UNL     1      48.674   8.081  17.836  0.00  0.00    +0.000 A 
ATOM     23  S   UNL     1      48.008   8.278  19.396  0.00  0.00    +0.000 S 
ATOM     24  C   UNL     1      48.239   6.634  19.772  0.00  0.00    +0.000 A 
ATOM     25  N   UNL     1      47.939   6.138  21.006  0.00  0.00    +0.000 NA
ATOM     26  C   UNL     1      48.203   4.874  21.139  0.00  0.00    +0.000 A 
ATOM     27  N   UNL     1      48.696   4.064  20.147  0.00  0.00    +0.000 N 
ATOM     28  C   UNL     1      48.907   4.499  18.862  0.00  0.00    +0.000 A 
ATOM     29  O   UNL     1      49.153   3.699  17.958  0.00  0.00    +0.000 OA
ATOM     30  C   UNL     1      48.750   5.929  18.694  0.00  0.00    +0.000 A 
ATOM     31  H   UNL     1      48.802   3.081  20.311  0.00  0.00    +0.000 HD
ENDBRANCH  19  21
ENDBRANCH  17  19
ENDBRANCH   4  17
TORSDOF 6
ENDMDL
MODEL 5
REMARK VINA RESULT:    -6.896      3.087      5.571
REMARK INTER + INTRA:          -9.923
REMARK INTER:                  -8.168
REMARK INTRA:                  -1.755
REMARK UNBOUND:                -0.609
REMARK  Name = 
REMARK  9 active torsions:
REMARK  status: ('A' for Active; 'I' for Inactive)
REMARK    1  A    between atoms: C_1  and  C_2
REMARK    2  A    between atoms: C_2  and  N_3
REMARK    3  A    between atoms: C_2  and  C_10
REMARK    4  A    between atoms: N_3  and  C_4
REMARK    5  A    between atoms: N_7  and  C_8
REMARK    6  A    between atoms: C_13  and  N_14
REMARK    7  A    between atoms: N_14  and  C_15
REMARK    8  A    between atoms: C_15  and  C_16
REMARK    9  A    between atoms: C_15  and  C_17
REMARK                            x       y       z     vdW  Elec       q    Type
REMARK                         _______ _______ _______ _____ _____    ______ ____
ROOT
ATOM      1  C   UNL     1      49.651   7.840  14.569  0.00  0.00    +0.000 A 
ATOM      2  C   UNL     1      48.630   8.359  15.382  0.00  0.00    +0.000 A 
ATOM      3  C   UNL     1      48.675   8.211  16.777  0.00  0.00    +0.000 A 
ATOM      4  C   UNL     1      49.737   7.563  17.408  0.00  0.00    +0.000 A 
ATOM      5  C   UNL     1      50.833   7.215  16.619  0.00  0.00    +0.000 A 
ATOM      6  C   UNL     1      50.799   7.364  15.225  0.00  0.00    +0.000 A 
ENDROOT
BRANCH   1   8
ATOM      7  C   UNL     1      48.726   8.799  12.382  0.00  0.00    +0.000 C 
ATOM      8  C   UNL     1      49.385   7.591  13.070  0.00  0.00    +0.000 C 
BRANCH   8   9
ATOM      9  N   UNL     1      48.662   6.335  12.799  0.00  0.00    +0.000 NA
ATOM     10  H   UNL     1      48.927   6.001  11.873  0.00  0.00    +0.000 HD
BRANCH   9  11
ATOM     11  C   UNL     1      47.184   6.423  12.843  0.00  0.00    +0.000 C 
ATOM     12  C   UNL     1      46.618   5.322  13.753  0.00  0.00    +0.000 C 
ATOM     13  C   UNL     1      45.322   4.884  13.092  0.00  0.00    +0.000 C 
ATOM     14  N   UNL     1      45.613   5.018  11.665  0.00  0.00    +0.000 NA
ATOM     15  C   UNL     1      44.389   4.988  10.871  0.00  0.00    +0.000 C 
ATOM     16  C   UNL     1      46.371   6.270  11.528  0.00  0.00    +0.000 C 
ENDBRANCH   9  11
ENDBRANCH   8   9
ENDBRANCH   1   8
BRANCH   4  17
ATOM     17  N   UNL     1      49.706   7.178  18.732  0.00  0.00    +0.000 N 
ATOM     18  H   UNL     1      50.440   7.524  19.351  0.00  0.00    +0.000 HD
BRANCH  17  19
ATOM     19  C   UNL     1      48.948   6.041  19.249  0.00  0.00    +0.000 C 
ATOM     20  C   UNL     1      47.564   6.514  19.713  0.00  0.00    +0.000 C 
BRANCH  19  21
ATOM     21  C   UNL     1      48.816   4.899  18.267  0.00  0.00    +0.000 A 
ATOM     22  C   UNL     1      47.659   4.615  17.559  0.00  0.00    +0.000 A 
ATOM     23  S   UNL     1      47.774   3.180  16.639  0.00  0.00    +0.000 S 
ATOM     24  C   UNL     1      49.375   2.907  17.147  0.00  0.00    +0.000 A 
ATOM     25  N   UNL     1      50.057   1.787  16.774  0.00  0.00    +0.000 NA
ATOM     26  C   UNL     1      51.253   1.715  17.272  0.00  0.00    +0.000 A 
ATOM     27  N   UNL     1      51.835   2.670  18.066  0.00  0.00    +0.000 N 
ATOM     28  C   UNL     1      51.223   3.860  18.374  0.00  0.00    +0.000 A 
ATOM     29  O   UNL     1      51.852   4.772  18.914  0.00  0.00    +0.000 OA
ATOM     30  C   UNL     1      49.840   3.935  17.950  0.00  0.00    +0.000 A 
ATOM     31  H   UNL     1      52.791   2.572  18.349  0.00  0.00    +0.000 HD
ENDBRANCH  19  21
ENDBRANCH  17  19
ENDBRANCH   4  17
TORSDOF 6
ENDMDL
MODEL 6
REMARK VINA RESULT:    -6.845      2.711      7.840
REMARK INTER + INTRA:          -9.855
REMARK INTER:                  -8.896
REMARK INTRA:                  -0.959
REMARK UNBOUND:                -0.609
REMARK  Name = 
REMARK  9 active torsions:
REMARK  status: ('A' for Active; 'I' for Inactive)
REMARK    1  A    between atoms: C_1  and  C_2
REMARK    2  A    between atoms: C_2  and  N_3
REMARK    3  A    between atoms: C_2  and  C_10
REMARK    4  A    between atoms: N_3  and  C_4
REMARK    5  A    between atoms: N_7  and  C_8
REMARK    6  A    between atoms: C_13  and  N_14
REMARK    7  A    between atoms: N_14  and  C_15
REMARK    8  A    between atoms: C_15  and  C_16
REMARK    9  A    between atoms: C_15  and  C_17
REMARK                            x       y       z     vdW  Elec       q    Type
REMARK                         _______ _______ _______ _____ _____    ______ ____
ROOT
ATOM      1  C   UNL     1      49.303   8.057  14.216  0.00  0.00    +0.000 A 
ATOM      2  C   UNL     1      49.719   7.469  13.011  0.00  0.00    +0.000 A 
ATOM      3  C   UNL     1      48.784   7.064  12.046  0.00  0.00    +0.000 A 
ATOM      4  C   UNL     1      47.414   7.245  12.238  0.00  0.00    +0.000 A 
ATOM      5  C   UNL     1      47.017   7.992  13.345  0.00  0.00    +0.000 A 
ATOM      6  C   UNL     1      47.945   8.406  14.312  0.00  0.00    +0.000 A 
ENDROOT
BRANCH   1   8
ATOM      7  C   UNL     1      51.373   9.115  15.289  0.00  0.00    +0.000 C 
ATOM      8  C   UNL     1      50.253   8.070  15.431  0.00  0.00    +0.000 C 
BRANCH   8   9
ATOM      9  N   UNL     1      50.779   6.738  15.784  0.00  0.00    +0.000 NA
ATOM     10  H   UNL     1      50.737   6.143  14.957  0.00  0.00    +0.000 HD
BRANCH   9  11
ATOM     11  C   UNL     1      50.070   6.038  16.881  0.00  0.00    +0.000 C 
ATOM     12  C   UNL     1      50.880   4.815  17.336  0.00  0.00    +0.000 C 
ATOM     13  C   UNL     1      49.846   3.755  17.676  0.00  0.00    +0.000 C 
ATOM     14  N   UNL     1      48.780   4.005  16.708  0.00  0.00    +0.000 NA
ATOM     15  C   UNL     1      47.546   3.329  17.094  0.00  0.00    +0.000 C 
ATOM     16  C   UNL     1      48.647   5.467  16.627  0.00  0.00    +0.000 C 
ENDBRANCH   9  11
ENDBRANCH   8   9
ENDBRANCH   1   8
BRANCH   4  17
ATOM     17  N   UNL     1      46.456   6.646  11.445  0.00  0.00    +0.000 N 
ATOM     18  H   UNL     1      46.636   6.578  10.443  0.00  0.00    +0.000 HD
BRANCH  17  19
ATOM     19  C   UNL     1      45.065   6.436  11.839  0.00  0.00    +0.000 C 
ATOM     20  C   UNL     1      44.180   7.512  11.198  0.00  0.00    +0.000 C 
BRANCH  19  21
ATOM     21  C   UNL     1      44.542   5.055  11.512  0.00  0.00    +0.000 A 
ATOM     22  C   UNL     1      43.719   4.320  12.351  0.00  0.00    +0.000 A 
ATOM     23  S   UNL     1      43.412   2.743  11.772  0.00  0.00    +0.000 S 
ATOM     24  C   UNL     1      44.356   3.002  10.379  0.00  0.00    +0.000 A 
ATOM     25  N   UNL     1      44.573   2.007   9.472  0.00  0.00    +0.000 NA
ATOM     26  C   UNL     1      45.338   2.358   8.485  0.00  0.00    +0.000 A 
ATOM     27  N   UNL     1      45.866   3.612   8.305  0.00  0.00    +0.000 N 
ATOM     28  C   UNL     1      45.582   4.669   9.134  0.00  0.00    +0.000 A 
ATOM     29  O   UNL     1      45.907   5.817   8.827  0.00  0.00    +0.000 OA
ATOM     30  C   UNL     1      44.838   4.300  10.321  0.00  0.00    +0.000 A 
ATOM     31  H   UNL     1      46.387   3.821   7.476  0.00  0.00    +0.000 HD
ENDBRANCH  19  21
ENDBRANCH  17  19
ENDBRANCH   4  17
TORSDOF 6
ENDMDL
MODEL 7
REMARK VINA RESULT:    -6.657      2.153      2.673
REMARK INTER + INTRA:          -9.600
REMARK INTER:                  -8.852
REMARK INTRA:                  -0.748
REMARK UNBOUND:                -0.609
REMARK  Name = 
REMARK  9 active torsions:
REMARK  status: ('A' for Active; 'I' for Inactive)
REMARK    1  A    between atoms: C_1  and  C_2
REMARK    2  A    between atoms: C_2  and  N_3
REMARK    3  A    between atoms: C_2  and  C_10
REMARK    4  A    between atoms: N_3  and  C_4
REMARK    5  A    between atoms: N_7  and  C_8
REMARK    6  A    between atoms: C_13  and  N_14
REMARK    7  A    between atoms: N_14  and  C_15
REMARK    8  A    between atoms: C_15  and  C_16
REMARK    9  A    between atoms: C_15  and  C_17
REMARK                            x       y       z     vdW  Elec       q    Type
REMARK                         _______ _______ _______ _____ _____    ______ ____
ROOT
ATOM      1  C   UNL     1      45.282   4.644  11.712  0.00  0.00    +0.000 A 
ATOM      2  C   UNL     1      45.822   5.913  11.450  0.00  0.00    +0.000 A 
ATOM      3  C   UNL     1      46.748   6.497  12.328  0.00  0.00    +0.000 A 
ATOM      4  C   UNL     1      47.179   5.835  13.479  0.00  0.00    +0.000 A 
ATOM      5  C   UNL     1      46.785   4.508  13.638  0.00  0.00    +0.000 A 
ATOM      6  C   UNL     1      45.864   3.914  12.763  0.00  0.00    +0.000 A 
ENDROOT
BRANCH   1   8
ATOM      7  C   UNL     1      43.194   3.166  11.853  0.00  0.00    +0.000 C 
ATOM      8  C   UNL     1      43.964   4.216  11.033  0.00  0.00    +0.000 C 
BRANCH   8   9
ATOM      9  N   UNL     1      44.131   3.808   9.625  0.00  0.00    +0.000 NA
ATOM     10  H   UNL     1      43.560   2.981   9.457  0.00  0.00    +0.000 HD
BRANCH   9  11
ATOM     11  C   UNL     1      45.518   3.493   9.209  0.00  0.00    +0.000 C 
ATOM     12  C   UNL     1      45.927   4.384   8.026  0.00  0.00    +0.000 C 
ATOM     13  C   UNL     1      46.794   3.502   7.143  0.00  0.00    +0.000 C 
ATOM     14  N   UNL     1      46.193   2.179   7.300  0.00  0.00    +0.000 NA
ATOM     15  C   UNL     1      47.089   1.132   6.818  0.00  0.00    +0.000 C 
ATOM     16  C   UNL     1      45.861   2.056   8.726  0.00  0.00    +0.000 C 
ENDBRANCH   9  11
ENDBRANCH   8   9
ENDBRANCH   1   8
BRANCH   4  17
ATOM     17  N   UNL     1      47.884   6.459  14.487  0.00  0.00    +0.000 N 
ATOM     18  H   UNL     1      47.702   6.172  15.449  0.00  0.00    +0.000 HD
BRANCH  17  19
ATOM     19  C   UNL     1      48.589   7.730  14.345  0.00  0.00    +0.000 C 
ATOM     20  C   UNL     1      47.844   8.822  15.124  0.00  0.00    +0.000 C 
BRANCH  19  21
ATOM     21  C   UNL     1      50.040   7.674  14.766  0.00  0.00    +0.000 A 
ATOM     22  C   UNL     1      51.061   8.357  14.124  0.00  0.00    +0.000 A 
ATOM     23  S   UNL     1      52.609   7.981  14.742  0.00  0.00    +0.000 S 
ATOM     24  C   UNL     1      51.959   6.909  15.893  0.00  0.00    +0.000 A 
ATOM     25  N   UNL     1      52.763   6.181  16.720  0.00  0.00    +0.000 NA
ATOM     26  C   UNL     1      52.112   5.390  17.516  0.00  0.00    +0.000 A 
ATOM     27  N   UNL     1      50.746   5.292  17.587  0.00  0.00    +0.000 N 
ATOM     28  C   UNL     1      49.900   6.086  16.850  0.00  0.00    +0.000 A 
ATOM     29  O   UNL     1      48.692   6.111  17.089  0.00  0.00    +0.000 OA
ATOM     30  C   UNL     1      50.574   6.894  15.855  0.00  0.00    +0.000 A 
ATOM     31  H   UNL     1      50.321   4.709  18.281  0.00  0.00    +0.000 HD
ENDBRANCH  19  21
ENDBRANCH  17  19
ENDBRANCH   4  17
TORSDOF 6
ENDMDL
MODEL 8
REMARK VINA RESULT:    -6.575      3.196      8.141
REMARK INTER + INTRA:          -9.490
REMARK INTER:                  -8.837
REMARK INTRA:                  -0.654
REMARK UNBOUND:                -0.609
REMARK  Name = 
REMARK  9 active torsions:
REMARK  status: ('A' for Active; 'I' for Inactive)
REMARK    1  A    between atoms: C_1  and  C_2
REMARK    2  A    between atoms: C_2  and  N_3
REMARK    3  A    between atoms: C_2  and  C_10
REMARK    4  A    between atoms: N_3  and  C_4
REMARK    5  A    between atoms: N_7  and  C_8
REMARK    6  A    between atoms: C_13  and  N_14
REMARK    7  A    between atoms: N_14  and  C_15
REMARK    8  A    between atoms: C_15  and  C_16
REMARK    9  A    between atoms: C_15  and  C_17
REMARK                            x       y       z     vdW  Elec       q    Type
REMARK                         _______ _______ _______ _____ _____    ______ ____
ROOT
ATOM      1  C   UNL     1      48.852   5.681  17.288  0.00  0.00    +0.000 A 
ATOM      2  C   UNL     1      49.152   6.835  16.547  0.00  0.00    +0.000 A 
ATOM      3  C   UNL     1      48.707   6.976  15.224  0.00  0.00    +0.000 A 
ATOM      4  C   UNL     1      47.941   5.990  14.602  0.00  0.00    +0.000 A 
ATOM      5  C   UNL     1      47.491   4.936  15.396  0.00  0.00    +0.000 A 
ATOM      6  C   UNL     1      47.925   4.789  16.721  0.00  0.00    +0.000 A 
ENDROOT
BRANCH   1   8
ATOM      7  C   UNL     1      50.986   6.162  18.620  0.00  0.00    +0.000 C 
ATOM      8  C   UNL     1      49.700   5.323  18.527  0.00  0.00    +0.000 C 
BRANCH   8   9
ATOM      9  N   UNL     1      49.968   3.879  18.662  0.00  0.00    +0.000 NA
ATOM     10  H   UNL     1      50.224   3.686  19.629  0.00  0.00    +0.000 HD
BRANCH   9  11
ATOM     11  C   UNL     1      51.040   3.341  17.792  0.00  0.00    +0.000 C 
ATOM     12  C   UNL     1      50.670   1.929  17.312  0.00  0.00    +0.000 C 
ATOM     13  C   UNL     1      51.981   1.163  17.279  0.00  0.00    +0.000 C 
ATOM     14  N   UNL     1      52.726   1.725  18.404  0.00  0.00    +0.000 NA
ATOM     15  C   UNL     1      54.142   1.378  18.326  0.00  0.00    +0.000 C 
ATOM     16  C   UNL     1      52.474   3.173  18.366  0.00  0.00    +0.000 C 
ENDBRANCH   9  11
ENDBRANCH   8   9
ENDBRANCH   1   8
BRANCH   4  17
ATOM     17  N   UNL     1      47.696   5.969  13.245  0.00  0.00    +0.000 N 
ATOM     18  H   UNL     1      48.481   5.795  12.617  0.00  0.00    +0.000 HD
BRANCH  17  19
ATOM     19  C   UNL     1      46.508   6.530  12.606  0.00  0.00    +0.000 C 
ATOM     20  C   UNL     1      46.818   7.941  12.092  0.00  0.00    +0.000 C 
BRANCH  19  21
ATOM     21  C   UNL     1      45.950   5.670  11.494  0.00  0.00    +0.000 A 
ATOM     22  C   UNL     1      46.126   5.937  10.146  0.00  0.00    +0.000 A 
ATOM     23  S   UNL     1      45.258   4.868   9.134  0.00  0.00    +0.000 S 
ATOM     24  C   UNL     1      44.636   4.011  10.467  0.00  0.00    +0.000 A 
ATOM     25  N   UNL     1      43.748   2.990  10.303  0.00  0.00    +0.000 NA
ATOM     26  C   UNL     1      43.348   2.462  11.418  0.00  0.00    +0.000 A 
ATOM     27  N   UNL     1      43.782   2.832  12.666  0.00  0.00    +0.000 N 
ATOM     28  C   UNL     1      44.756   3.779  12.867  0.00  0.00    +0.000 A 
ATOM     29  O   UNL     1      45.262   3.937  13.980  0.00  0.00    +0.000 OA
ATOM     30  C   UNL     1      45.143   4.488  11.665  0.00  0.00    +0.000 A 
ATOM     31  H   UNL     1      43.478   2.324  13.473  0.00  0.00    +0.000 HD
ENDBRANCH  19  21
ENDBRANCH  17  19
ENDBRANCH   4  17
TORSDOF 6
ENDMDL
MODEL 9
REMARK VINA RESULT:    -6.471      2.843      4.431
REMARK INTER + INTRA:          -9.349
REMARK INTER:                  -8.638
REMARK INTRA:                  -0.711
REMARK UNBOUND:                -0.609
REMARK  Name = 
REMARK  9 active torsions:
REMARK  status: ('A' for Active; 'I' for Inactive)
REMARK    1  A    between atoms: C_1  and  C_2
REMARK    2  A    between atoms: C_2  and  N_3
REMARK    3  A    between atoms: C_2  and  C_10
REMARK    4  A    between atoms: N_3  and  C_4
REMARK    5  A    between atoms: N_7  and  C_8
REMARK    6  A    between atoms: C_13  and  N_14
REMARK    7  A    between atoms: N_14  and  C_15
REMARK    8  A    between atoms: C_15  and  C_16
REMARK    9  A    between atoms: C_15  and  C_17
REMARK                            x       y       z     vdW  Elec       q    Type
REMARK                         _______ _______ _______ _____ _____    ______ ____
ROOT
ATOM      1  C   UNL     1      45.206   4.838  11.855  0.00  0.00    +0.000 A 
ATOM      2  C   UNL     1      45.726   6.039  11.347  0.00  0.00    +0.000 A 
ATOM      3  C   UNL     1      46.637   6.802  12.094  0.00  0.00    +0.000 A 
ATOM      4  C   UNL     1      47.072   6.391  13.354  0.00  0.00    +0.000 A 
ATOM      5  C   UNL     1      46.700   5.115  13.773  0.00  0.00    +0.000 A 
ATOM      6  C   UNL     1      45.794   4.343  13.031  0.00  0.00    +0.000 A 
ENDROOT
BRANCH   1   8
ATOM      7  C   UNL     1      43.374   3.062  12.080  0.00  0.00    +0.000 C 
ATOM      8  C   UNL     1      43.900   4.261  11.271  0.00  0.00    +0.000 C 
BRANCH   8   9
ATOM      9  N   UNL     1      43.979   3.965   9.828  0.00  0.00    +0.000 NA
ATOM     10  H   UNL     1      43.346   3.193   9.620  0.00  0.00    +0.000 HD
BRANCH   9  11
ATOM     11  C   UNL     1      45.321   3.599   9.320  0.00  0.00    +0.000 C 
ATOM     12  C   UNL     1      45.486   4.082   7.871  0.00  0.00    +0.000 C 
ATOM     13  C   UNL     1      46.308   3.006   7.183  0.00  0.00    +0.000 C 
ATOM     14  N   UNL     1      45.861   1.776   7.833  0.00  0.00    +0.000 NA
ATOM     15  C   UNL     1      46.780   0.673   7.568  0.00  0.00    +0.000 C 
ATOM     16  C   UNL     1      45.733   2.102   9.261  0.00  0.00    +0.000 C 
ENDBRANCH   9  11
ENDBRANCH   8   9
ENDBRANCH   1   8
BRANCH   4  17
ATOM     17  N   UNL     1      47.761   7.214  14.220  0.00  0.00    +0.000 N 
ATOM     18  H   UNL     1      48.189   6.794  15.045  0.00  0.00    +0.000 HD
BRANCH  17  19
ATOM     19  C   UNL     1      47.627   8.668  14.267  0.00  0.00    +0.000 C 
ATOM     20  C   UNL     1      48.086   9.183  15.637  0.00  0.00    +0.000 C 
BRANCH  19  21
ATOM     21  C   UNL     1      48.363   9.385  13.157  0.00  0.00    +0.000 A 
ATOM     22  C   UNL     1      47.809  10.394  12.386  0.00  0.00    +0.000 A 
ATOM     23  S   UNL     1      48.835  10.908  11.120  0.00  0.00    +0.000 S 
ATOM     24  C   UNL     1      50.052   9.809  11.576  0.00  0.00    +0.000 A 
ATOM     25  N   UNL     1      51.201   9.681  10.853  0.00  0.00    +0.000 NA
ATOM     26  C   UNL     1      52.011   8.780  11.315  0.00  0.00    +0.000 A 
ATOM     27  N   UNL     1      51.797   8.033  12.447  0.00  0.00    +0.000 N 
ATOM     28  C   UNL     1      50.707   8.210  13.263  0.00  0.00    +0.000 A 
ATOM     29  O   UNL     1      50.652   7.669  14.369  0.00  0.00    +0.000 OA
ATOM     30  C   UNL     1      49.710   9.112  12.724  0.00  0.00    +0.000 A 
ATOM     31  H   UNL     1      52.507   7.409  12.777  0.00  0.00    +0.000 HD
ENDBRANCH  19  21
ENDBRANCH  17  19
ENDBRANCH   4  17
TORSDOF 6
ENDMDL
