MODEL 1
REMARK VINA RESULT:    -7.723      0.000      0.000
REMARK INTER + INTRA:         -13.243
REMARK INTER:                 -12.012
REMARK INTRA:                  -1.231
REMARK UNBOUND:                -1.231
REMARK  Name = 
REMARK  11 active torsions:
REMARK  status: ('A' for Active; 'I' for Inactive)
REMARK    1  A    between atoms: C_1  and  C_2
REMARK    2  A    between atoms: C_2  and  C_3
REMARK    3  A    between atoms: C_3  and  N_4
REMARK    4  A    between atoms: C_3  and  C_21
REMARK    5  A    between atoms: N_4  and  C_5
REMARK    6  A    between atoms: C_5  and  C_6
REMARK    7  A    between atoms: C_9  and  C_10
REMARK    8  A    between atoms: C_10  and  O_11
REMARK    9  A    between atoms: C_10  and  C_12
REMARK   10  A    between atoms: C_12  and  N_13
REMARK   11  A    between atoms: N_13  and  C_14
REMARK                            x       y       z     vdW  Elec       q    Type
REMARK                         _______ _______ _______ _____ _____    ______ ____
ROOT
ATOM      1  C   UNL     1      46.841   5.580  13.834  0.00  0.00    +0.000 A 
ATOM      2  C   UNL     1      46.358   6.456  12.861  0.00  0.00    +0.000 A 
ATOM      3  C   UNL     1      45.318   6.056  12.035  0.00  0.00    +0.000 A 
ATOM      4  C   UNL     1      44.793   4.775  12.197  0.00  0.00    +0.000 A 
ATOM      5  N   UNL     1      45.273   3.884  13.106  0.00  0.00    +0.000 NA
ATOM      6  C   UNL     1      46.278   4.311  13.900  0.00  0.00    +0.000 A 
ENDROOT
BRANCH   1   7
ATOM      7  C   UNL     1      47.974   5.981  14.732  0.00  0.00    +0.000 C 
BRANCH   7   8
ATOM      8  N   UNL     1      48.357   4.898  15.650  0.00  0.00    +0.000 NA
ATOM      9  H   UNL     1      49.214   4.473  15.286  0.00  0.00    +0.000 HD
BRANCH   8  10
ATOM     10  C   UNL     1      48.629   5.389  17.014  0.00  0.00    +0.000 C 
BRANCH  10  11
ATOM     11  C   UNL     1      50.073   5.046  17.383  0.00  0.00    +0.000 A 
ATOM     12  C   UNL     1      51.054   5.971  17.714  0.00  0.00    +0.000 A 
ATOM     13  S   UNL     1      52.566   5.268  18.094  0.00  0.00    +0.000 S 
ATOM     14  C   UNL     1      51.960   3.691  17.848  0.00  0.00    +0.000 A 
ATOM     15  N   UNL     1      52.744   2.598  18.050  0.00  0.00    +0.000 NA
ATOM     16  C   UNL     1      52.131   1.468  17.862  0.00  0.00    +0.000 A 
ATOM     17  N   UNL     1      50.829   1.351  17.440  0.00  0.00    +0.000 N 
ATOM     18  C   UNL     1      50.058   2.434  17.083  0.00  0.00    +0.000 A 
ATOM     19  O   UNL     1      49.006   2.296  16.470  0.00  0.00    +0.000 OA
ATOM     20  C   UNL     1      50.641   3.719  17.422  0.00  0.00    +0.000 A 
ATOM     21  H   UNL     1      50.447   0.443  17.231  0.00  0.00    +0.000 HD
ENDBRANCH  10  11
BRANCH  10  23
ATOM     22  C   UNL     1      47.278   5.881  19.211  0.00  0.00    +0.000 C 
ATOM     23  C   UNL     1      47.609   4.917  18.075  0.00  0.00    +0.000 C 
ENDBRANCH  10  23
ENDBRANCH   8  10
ENDBRANCH   7   8
ENDBRANCH   1   7
BRANCH   4  24
ATOM     24  C   UNL     1      43.613   4.324  11.366  0.00  0.00    +0.000 C 
BRANCH  24  25
ATOM     25  O   UNL     1      43.500   5.145  10.191  0.00  0.00    +0.000 OA
ATOM     26  H   UNL     1      43.289   4.513   9.473  0.00  0.00    +0.000 HD
ENDBRANCH  24  25
BRANCH  24  27
ATOM     27  C   UNL     1      43.779   2.867  10.898  0.00  0.00    +0.000 C 
BRANCH  27  28
ATOM     28  N   UNL     1      44.978   2.624  10.091  0.00  0.00    +0.000 NA
ATOM     29  H   UNL     1      45.633   2.019  10.573  0.00  0.00    +0.000 HD
BRANCH  28  30
ATOM     30  C   UNL     1      44.685   2.110   8.771  0.00  0.00    +0.000 C 
ATOM     31  C   UNL     1      44.883   3.180   7.705  0.00  0.00    +0.000 C 
ATOM     32  C   UNL     1      46.389   3.216   7.507  0.00  0.00    +0.000 C 
ATOM     33  C   UNL     1      46.839   1.799   7.828  0.00  0.00    +0.000 C 
ATOM     34  N   UNL     1      45.683   1.124   8.405  0.00  0.00    +0.000 NA
ATOM     35  H   UNL     1      45.951   0.550   9.197  0.00  0.00    +0.000 HD
ENDBRANCH  28  30
ENDBRANCH  27  28
ENDBRANCH  24  27
ENDBRANCH   4  24
TORSDOF 10
ENDMDL
MODEL 2
REMARK VINA RESULT:    -7.485      1.162      1.401
REMARK INTER + INTRA:         -12.874
REMARK INTER:                 -11.862
REMARK INTRA:                  -1.012
REMARK UNBOUND:                -1.231
REMARK  Name = 
REMARK  11 active torsions:
REMARK  status: ('A' for Active; 'I' for Inactive)
REMARK    1  A    between atoms: C_1  and  C_2
REMARK    2  A    between atoms: C_2  and  C_3
REMARK    3  A    between atoms: C_3  and  N_4
REMARK    4  A    between atoms: C_3  and  C_21
REMARK    5  A    between atoms: N_4  and  C_5
REMARK    6  A    between atoms: C_5  and  C_6
REMARK    7  A    between atoms: C_9  and  C_10
REMARK    8  A    between atoms: C_10  and  O_11
REMARK    9  A    between atoms: C_10  and  C_12
REMARK   10  A    between atoms: C_12  and  N_13
REMARK   11  A    between atoms: N_13  and  C_14
REMARK                            x       y       z     vdW  Elec       q    Type
REMARK                         _______ _______ _______ _____ _____    ______ ____
ROOT
ATOM      1  C   UNL     1      46.903   6.054  13.929  0.00  0.00    +0.000 A 
ATOM      2  C   UNL     1      46.520   7.164  13.175  0.00  0.00    +0.000 A 
ATOM      3  C   UNL     1      45.319   7.140  12.482  0.00  0.00    +0.000 A 
ATOM      4  C   UNL     1      44.532   5.992  12.551  0.00  0.00    +0.000 A 
ATOM      5  N   UNL     1      44.900   4.879  13.242  0.00  0.00    +0.000 NA
ATOM      6  C   UNL     1      46.070   4.941  13.913  0.00  0.00    +0.000 A 
ENDROOT
BRANCH   1   7
ATOM      7  C   UNL     1      48.203   6.046  14.678  0.00  0.00    +0.000 C 
BRANCH   7   8
ATOM      8  N   UNL     1      48.314   4.886  15.575  0.00  0.00    +0.000 NA
ATOM      9  H   UNL     1      49.128   4.343  15.276  0.00  0.00    +0.000 HD
BRANCH   8  10
ATOM     10  C   UNL     1      48.514   5.281  16.982  0.00  0.00    +0.000 C 
BRANCH  10  11
ATOM     11  C   UNL     1      49.939   4.919  17.398  0.00  0.00    +0.000 A 
ATOM     12  C   UNL     1      50.888   5.819  17.866  0.00  0.00    +0.000 A 
ATOM     13  S   UNL     1      52.386   5.098  18.265  0.00  0.00    +0.000 S 
ATOM     14  C   UNL     1      51.816   3.544  17.844  0.00  0.00    +0.000 A 
ATOM     15  N   UNL     1      52.603   2.445  17.991  0.00  0.00    +0.000 NA
ATOM     16  C   UNL     1      52.017   1.330  17.667  0.00  0.00    +0.000 A 
ATOM     17  N   UNL     1      50.742   1.240  17.165  0.00  0.00    +0.000 N 
ATOM     18  C   UNL     1      49.977   2.345  16.864  0.00  0.00    +0.000 A 
ATOM     19  O   UNL     1      48.962   2.254  16.183  0.00  0.00    +0.000 OA
ATOM     20  C   UNL     1      50.523   3.599  17.350  0.00  0.00    +0.000 A 
ATOM     21  H   UNL     1      50.385   0.352  16.853  0.00  0.00    +0.000 HD
ENDBRANCH  10  11
BRANCH  10  23
ATOM     22  C   UNL     1      46.899   5.687  19.012  0.00  0.00    +0.000 C 
ATOM     23  C   UNL     1      47.444   4.732  17.954  0.00  0.00    +0.000 C 
ENDBRANCH  10  23
ENDBRANCH   8  10
ENDBRANCH   7   8
ENDBRANCH   1   7
BRANCH   4  24
ATOM     24  C   UNL     1      43.183   5.950  11.869  0.00  0.00    +0.000 C 
BRANCH  24  25
ATOM     25  O   UNL     1      43.003   7.132  11.070  0.00  0.00    +0.000 OA
ATOM     26  H   UNL     1      43.183   6.835  10.154  0.00  0.00    +0.000 HD
ENDBRANCH  24  25
BRANCH  24  27
ATOM     27  C   UNL     1      43.065   4.735  10.932  0.00  0.00    +0.000 C 
BRANCH  27  28
ATOM     28  N   UNL     1      43.707   4.914   9.626  0.00  0.00    +0.000 NA
ATOM     29  H   UNL     1      43.585   5.857   9.279  0.00  0.00    +0.000 HD
BRANCH  28  30
ATOM     30  C   UNL     1      45.107   4.546   9.623  0.00  0.00    +0.000 C 
ATOM     31  C   UNL     1      45.290   3.064   9.923  0.00  0.00    +0.000 C 
ATOM     32  C   UNL     1      44.966   2.387   8.602  0.00  0.00    +0.000 C 
ATOM     33  C   UNL     1      45.357   3.416   7.553  0.00  0.00    +0.000 C 
ATOM     34  N   UNL     1      45.629   4.653   8.275  0.00  0.00    +0.000 NA
ATOM     35  H   UNL     1      45.246   5.455   7.787  0.00  0.00    +0.000 HD
ENDBRANCH  28  30
ENDBRANCH  27  28
ENDBRANCH  24  27
ENDBRANCH   4  24
TORSDOF 10
ENDMDL
MODEL 3
REMARK VINA RESULT:    -7.319      2.467      3.569
REMARK INTER + INTRA:         -12.615
REMARK INTER:                 -10.831
REMARK INTRA:                  -1.784
REMARK UNBOUND:                -1.231
REMARK  Name = 
REMARK  11 active torsions:
REMARK  status: ('A' for Active; 'I' for Inactive)
REMARK    1  A    between atoms: C_1  and  C_2
REMARK    2  A    between atoms: C_2  and  C_3
REMARK    3  A    between atoms: C_3  and  N_4
REMARK    4  A    between atoms: C_3  and  C_21
REMARK    5  A    between atoms: N_4  and  C_5
REMARK    6  A    between atoms: C_5  and  C_6
REMARK    7  A    between atoms: C_9  and  C_10
REMARK    8  A    between atoms: C_10  and  O_11
REMARK    9  A    between atoms: C_10  and  C_12
REMARK   10  A    between atoms: C_12  and  N_13
REMARK   11  A    between atoms: N_13  and  C_14
REMARK                            x       y       z     vdW  Elec       q    Type
REMARK                         _______ _______ _______ _____ _____    ______ ____
ROOT
ATOM      1  C   UNL     1      45.376   6.844  12.124  0.00  0.00    +0.000 A 
ATOM      2  C   UNL     1      44.488   6.152  12.948  0.00  0.00    +0.000 A 
ATOM      3  C   UNL     1      44.098   4.865  12.607  0.00  0.00    +0.000 A 
ATOM      4  C   UNL     1      44.603   4.305  11.435  0.00  0.00    +0.000 A 
ATOM      5  N   UNL     1      45.435   4.972  10.590  0.00  0.00    +0.000 NA
ATOM      6  C   UNL     1      45.801   6.218  10.958  0.00  0.00    +0.000 A 
ENDROOT
BRANCH   1   7
ATOM      7  C   UNL     1      45.804   8.242  12.461  0.00  0.00    +0.000 C 
BRANCH   7   8
ATOM      8  N   UNL     1      46.600   8.291  13.697  0.00  0.00    +0.000 NA
ATOM      9  H   UNL     1      46.037   7.873  14.443  0.00  0.00    +0.000 HD
BRANCH   8  10
ATOM     10  C   UNL     1      47.858   7.529  13.585  0.00  0.00    +0.000 C 
BRANCH  10  11
ATOM     11  C   UNL     1      48.263   7.040  14.975  0.00  0.00    +0.000 A 
ATOM     12  C   UNL     1      48.896   7.812  15.941  0.00  0.00    +0.000 A 
ATOM     13  S   UNL     1      49.201   6.976  17.401  0.00  0.00    +0.000 S 
ATOM     14  C   UNL     1      48.480   5.549  16.804  0.00  0.00    +0.000 A 
ATOM     15  N   UNL     1      48.373   4.438  17.581  0.00  0.00    +0.000 NA
ATOM     16  C   UNL     1      47.765   3.446  17.001  0.00  0.00    +0.000 A 
ATOM     17  N   UNL     1      47.312   3.463  15.705  0.00  0.00    +0.000 N 
ATOM     18  C   UNL     1      47.539   4.516  14.847  0.00  0.00    +0.000 A 
ATOM     19  O   UNL     1      47.362   4.406  13.639  0.00  0.00    +0.000 OA
ATOM     20  C   UNL     1      48.073   5.703  15.488  0.00  0.00    +0.000 A 
ATOM     21  H   UNL     1      46.929   2.627  15.294  0.00  0.00    +0.000 HD
ENDBRANCH  10  11
BRANCH  10  23
ATOM     22  C   UNL     1      49.720   7.545  11.734  0.00  0.00    +0.000 C 
ATOM     23  C   UNL     1      48.994   8.282  12.856  0.00  0.00    +0.000 C 
ENDBRANCH  10  23
ENDBRANCH   8  10
ENDBRANCH   7   8
ENDBRANCH   1   7
BRANCH   4  24
ATOM     24  C   UNL     1      44.260   2.880  11.062  0.00  0.00    +0.000 C 
BRANCH  24  25
ATOM     25  O   UNL     1      42.917   2.575  11.477  0.00  0.00    +0.000 OA
ATOM     26  H   UNL     1      42.672   1.790  10.945  0.00  0.00    +0.000 HD
ENDBRANCH  24  25
BRANCH  24  27
ATOM     27  C   UNL     1      44.334   2.663   9.540  0.00  0.00    +0.000 C 
BRANCH  27  28
ATOM     28  N   UNL     1      45.675   2.349   9.039  0.00  0.00    +0.000 NA
ATOM     29  H   UNL     1      46.144   1.674   9.631  0.00  0.00    +0.000 HD
BRANCH  28  30
ATOM     30  C   UNL     1      45.682   1.910   7.660  0.00  0.00    +0.000 C 
ATOM     31  C   UNL     1      46.029   3.054   6.717  0.00  0.00    +0.000 C 
ATOM     32  C   UNL     1      47.540   3.169   6.832  0.00  0.00    +0.000 C 
ATOM     33  C   UNL     1      47.995   1.755   7.160  0.00  0.00    +0.000 C 
ATOM     34  N   UNL     1      46.787   0.994   7.452  0.00  0.00    +0.000 NA
ATOM     35  H   UNL     1      46.922   0.382   8.250  0.00  0.00    +0.000 HD
ENDBRANCH  28  30
ENDBRANCH  27  28
ENDBRANCH  24  27
ENDBRANCH   4  24
TORSDOF 10
ENDMDL
MODEL 4
REMARK VINA RESULT:    -7.154      2.251      3.003
REMARK INTER + INTRA:         -12.358
REMARK INTER:                 -10.816
REMARK INTRA:                  -1.542
REMARK UNBOUND:                -1.231
REMARK  Name = 
REMARK  11 active torsions:
REMARK  status: ('A' for Active; 'I' for Inactive)
REMARK    1  A    between atoms: C_1  and  C_2
REMARK    2  A    between atoms: C_2  and  C_3
REMARK    3  A    between atoms: C_3  and  N_4
REMARK    4  A    between atoms: C_3  and  C_21
REMARK    5  A    between atoms: N_4  and  C_5
REMARK    6  A    between atoms: C_5  and  C_6
REMARK    7  A    between atoms: C_9  and  C_10
REMARK    8  A    between atoms: C_10  and  O_11
REMARK    9  A    between atoms: C_10  and  C_12
REMARK   10  A    between atoms: C_12  and  N_13
REMARK   11  A    between atoms: N_13  and  C_14
REMARK                            x       y       z     vdW  Elec       q    Type
REMARK                         _______ _______ _______ _____ _____    ______ ____
ROOT
ATOM      1  C   UNL     1      46.996   6.243  13.437  0.00  0.00    +0.000 A 
ATOM      2  C   UNL     1      45.978   6.862  12.711  0.00  0.00    +0.000 A 
ATOM      3  C   UNL     1      44.797   6.176  12.465  0.00  0.00    +0.000 A 
ATOM      4  C   UNL     1      44.671   4.874  12.945  0.00  0.00    +0.000 A 
ATOM      5  N   UNL     1      45.663   4.229  13.618  0.00  0.00    +0.000 NA
ATOM      6  C   UNL     1      46.794   4.931  13.848  0.00  0.00    +0.000 A 
ENDROOT
BRANCH   1   7
ATOM      7  C   UNL     1      48.288   6.956  13.706  0.00  0.00    +0.000 C 
BRANCH   7   8
ATOM      8  N   UNL     1      49.088   6.274  14.734  0.00  0.00    +0.000 NA
ATOM      9  H   UNL     1      49.771   5.683  14.253  0.00  0.00    +0.000 HD
BRANCH   8  10
ATOM     10  C   UNL     1      49.824   7.221  15.593  0.00  0.00    +0.000 C 
BRANCH  10  11
ATOM     11  C   UNL     1      49.178   7.235  16.979  0.00  0.00    +0.000 A 
ATOM     12  C   UNL     1      48.496   8.311  17.532  0.00  0.00    +0.000 A 
ATOM     13  S   UNL     1      47.875   8.005  19.095  0.00  0.00    +0.000 S 
ATOM     14  C   UNL     1      48.479   6.407  19.086  0.00  0.00    +0.000 A 
ATOM     15  N   UNL     1      48.256   5.567  20.131  0.00  0.00    +0.000 NA
ATOM     16  C   UNL     1      48.743   4.374  19.960  0.00  0.00    +0.000 A 
ATOM     17  N   UNL     1      49.471   3.981  18.865  0.00  0.00    +0.000 N 
ATOM     18  C   UNL     1      49.842   4.850  17.862  0.00  0.00    +0.000 A 
ATOM     19  O   UNL     1      50.699   4.549  17.040  0.00  0.00    +0.000 OA
ATOM     20  C   UNL     1      49.195   6.147  17.928  0.00  0.00    +0.000 A 
ATOM     21  H   UNL     1      49.892   3.067  18.840  0.00  0.00    +0.000 HD
ENDBRANCH  10  11
BRANCH  10  23
ATOM     22  C   UNL     1      51.284   8.944  14.252  0.00  0.00    +0.000 C 
ATOM     23  C   UNL     1      49.983   8.636  14.989  0.00  0.00    +0.000 C 
ENDBRANCH  10  23
ENDBRANCH   8  10
ENDBRANCH   7   8
ENDBRANCH   1   7
BRANCH   4  24
ATOM     24  C   UNL     1      43.376   4.116  12.761  0.00  0.00    +0.000 C 
BRANCH  24  25
ATOM     25  O   UNL     1      42.468   4.887  11.954  0.00  0.00    +0.000 OA
ATOM     26  H   UNL     1      42.466   5.773  12.372  0.00  0.00    +0.000 HD
ENDBRANCH  24  25
BRANCH  24  27
ATOM     27  C   UNL     1      43.606   2.773  12.044  0.00  0.00    +0.000 C 
BRANCH  27  28
ATOM     28  N   UNL     1      44.636   2.814  11.002  0.00  0.00    +0.000 NA
ATOM     29  H   UNL     1      45.370   2.138  11.178  0.00  0.00    +0.000 HD
BRANCH  28  30
ATOM     30  C   UNL     1      44.104   2.653   9.666  0.00  0.00    +0.000 C 
ATOM     31  C   UNL     1      44.449   3.847   8.785  0.00  0.00    +0.000 C 
ATOM     32  C   UNL     1      45.894   3.596   8.389  0.00  0.00    +0.000 C 
ATOM     33  C   UNL     1      46.022   2.081   8.393  0.00  0.00    +0.000 C 
ATOM     34  N   UNL     1      44.799   1.569   8.999  0.00  0.00    +0.000 NA
ATOM     35  H   UNL     1      44.996   0.803   9.634  0.00  0.00    +0.000 HD
ENDBRANCH  28  30
ENDBRANCH  27  28
ENDBRANCH  24  27
ENDBRANCH   4  24
TORSDOF 10
ENDMDL
MODEL 5
REMARK VINA RESULT:    -7.063      1.765      2.141
REMARK INTER + INTRA:         -12.216
REMARK INTER:                 -11.169
REMARK INTRA:                  -1.047
REMARK UNBOUND:                -1.231
REMARK  Name = 
REMARK  11 active torsions:
REMARK  status: ('A' for Active; 'I' for Inactive)
REMARK    1  A    between atoms: C_1  and  C_2
REMARK    2  A    between atoms: C_2  and  C_3
REMARK    3  A    between atoms: C_3  and  N_4
REMARK    4  A    between atoms: C_3  and  C_21
REMARK    5  A    between atoms: N_4  and  C_5
REMARK    6  A    between atoms: C_5  and  C_6
REMARK    7  A    between atoms: C_9  and  C_10
REMARK    8  A    between atoms: C_10  and  O_11
REMARK    9  A    between atoms: C_10  and  C_12
REMARK   10  A    between atoms: C_12  and  N_13
REMARK   11  A    between atoms: N_13  and  C_14
REMARK                            x       y       z     vdW  Elec       q    Type
REMARK                         _______ _______ _______ _____ _____    ______ ____
ROOT
ATOM      1  C   UNL     1      47.107   5.914  13.327  0.00  0.00    +0.000 A 
ATOM      2  C   UNL     1      46.683   6.532  12.149  0.00  0.00    +0.000 A 
ATOM      3  C   UNL     1      45.569   6.043  11.483  0.00  0.00    +0.000 A 
ATOM      4  C   UNL     1      44.911   4.933  12.009  0.00  0.00    +0.000 A 
ATOM      5  N   UNL     1      45.327   4.283  13.130  0.00  0.00    +0.000 NA
ATOM      6  C   UNL     1      46.409   4.792  13.759  0.00  0.00    +0.000 A 
ENDROOT
BRANCH   1   7
ATOM      7  C   UNL     1      48.317   6.412  14.061  0.00  0.00    +0.000 C 
BRANCH   7   8
ATOM      8  N   UNL     1      47.954   7.182  15.261  0.00  0.00    +0.000 NA
ATOM      9  H   UNL     1      47.019   6.881  15.549  0.00  0.00    +0.000 HD
BRANCH   8  10
ATOM     10  C   UNL     1      48.881   6.945  16.382  0.00  0.00    +0.000 C 
BRANCH  10  11
ATOM     11  C   UNL     1      48.779   5.479  16.806  0.00  0.00    +0.000 A 
ATOM     12  C   UNL     1      47.595   4.763  16.924  0.00  0.00    +0.000 A 
ATOM     13  S   UNL     1      47.818   3.136  17.403  0.00  0.00    +0.000 S 
ATOM     14  C   UNL     1      49.515   3.322  17.453  0.00  0.00    +0.000 A 
ATOM     15  N   UNL     1      50.326   2.275  17.760  0.00  0.00    +0.000 NA
ATOM     16  C   UNL     1      51.594   2.562  17.718  0.00  0.00    +0.000 A 
ATOM     17  N   UNL     1      52.100   3.810  17.450  0.00  0.00    +0.000 N 
ATOM     18  C   UNL     1      51.303   4.921  17.284  0.00  0.00    +0.000 A 
ATOM     19  O   UNL     1      51.771   6.053  17.307  0.00  0.00    +0.000 OA
ATOM     20  C   UNL     1      49.887   4.626  17.168  0.00  0.00    +0.000 A 
ATOM     21  H   UNL     1      53.090   3.978  17.521  0.00  0.00    +0.000 HD
ENDBRANCH  10  11
BRANCH  10  23
ATOM     22  C   UNL     1      48.857   9.417  17.268  0.00  0.00    +0.000 C 
ATOM     23  C   UNL     1      48.714   7.927  17.565  0.00  0.00    +0.000 C 
ENDBRANCH  10  23
ENDBRANCH   8  10
ENDBRANCH   7   8
ENDBRANCH   1   7
BRANCH   4  24
ATOM     24  C   UNL     1      43.652   4.411  11.354  0.00  0.00    +0.000 C 
BRANCH  24  25
ATOM     25  O   UNL     1      43.387   5.149  10.148  0.00  0.00    +0.000 OA
ATOM     26  H   UNL     1      42.538   4.784   9.823  0.00  0.00    +0.000 HD
ENDBRANCH  24  25
BRANCH  24  27
ATOM     27  C   UNL     1      43.792   2.928  10.967  0.00  0.00    +0.000 C 
BRANCH  27  28
ATOM     28  N   UNL     1      44.983   2.622  10.168  0.00  0.00    +0.000 NA
ATOM     29  H   UNL     1      45.606   1.991  10.658  0.00  0.00    +0.000 HD
BRANCH  28  30
ATOM     30  C   UNL     1      44.671   2.109   8.851  0.00  0.00    +0.000 C 
ATOM     31  C   UNL     1      44.825   3.189   7.787  0.00  0.00    +0.000 C 
ATOM     32  C   UNL     1      46.326   3.255   7.558  0.00  0.00    +0.000 C 
ATOM     33  C   UNL     1      46.810   1.846   7.861  0.00  0.00    +0.000 C 
ATOM     34  N   UNL     1      45.680   1.145   8.459  0.00  0.00    +0.000 NA
ATOM     35  H   UNL     1      45.976   0.572   9.242  0.00  0.00    +0.000 HD
ENDBRANCH  28  30
ENDBRANCH  27  28
ENDBRANCH  24  27
ENDBRANCH   4  24
TORSDOF 10
ENDMDL
MODEL 6
REMARK VINA RESULT:    -6.811      2.613      3.711
REMARK INTER + INTRA:         -11.825
REMARK INTER:                 -10.384
REMARK INTRA:                  -1.441
REMARK UNBOUND:                -1.231
REMARK  Name = 
REMARK  11 active torsions:
REMARK  status: ('A' for Active; 'I' for Inactive)
REMARK    1  A    between atoms: C_1  and  C_2
REMARK    2  A    between atoms: C_2  and  C_3
REMARK    3  A    between atoms: C_3  and  N_4
REMARK    4  A    between atoms: C_3  and  C_21
REMARK    5  A    between atoms: N_4  and  C_5
REMARK    6  A    between atoms: C_5  and  C_6
REMARK    7  A    between atoms: C_9  and  C_10
REMARK    8  A    between atoms: C_10  and  O_11
REMARK    9  A    between atoms: C_10  and  C_12
REMARK   10  A    between atoms: C_12  and  N_13
REMARK   11  A    between atoms: N_13  and  C_14
REMARK                            x       y       z     vdW  Elec       q    Type
REMARK                         _______ _______ _______ _____ _____    ______ ____
ROOT
ATOM      1  C   UNL     1      47.494   6.249  12.770  0.00  0.00    +0.000 A 
ATOM      2  C   UNL     1      46.855   5.367  13.643  0.00  0.00    +0.000 A 
ATOM      3  C   UNL     1      45.596   4.880  13.324  0.00  0.00    +0.000 A 
ATOM      4  C   UNL     1      44.999   5.303  12.138  0.00  0.00    +0.000 A 
ATOM      5  N   UNL     1      45.578   6.196  11.290  0.00  0.00    +0.000 NA
ATOM      6  C   UNL     1      46.808   6.640  11.626  0.00  0.00    +0.000 A 
ENDROOT
BRANCH   1   7
ATOM      7  C   UNL     1      48.850   6.802  13.096  0.00  0.00    +0.000 C 
BRANCH   7   8
ATOM      8  N   UNL     1      48.766   8.006  13.936  0.00  0.00    +0.000 NA
ATOM      9  H   UNL     1      47.865   7.981  14.421  0.00  0.00    +0.000 HD
BRANCH   8  10
ATOM     10  C   UNL     1      49.834   8.057  14.952  0.00  0.00    +0.000 C 
BRANCH  10  11
ATOM     11  C   UNL     1      49.201   8.302  16.322  0.00  0.00    +0.000 A 
ATOM     12  C   UNL     1      49.078   9.542  16.935  0.00  0.00    +0.000 A 
ATOM     13  S   UNL     1      48.307   9.484  18.461  0.00  0.00    +0.000 S 
ATOM     14  C   UNL     1      48.089   7.794  18.351  0.00  0.00    +0.000 A 
ATOM     15  N   UNL     1      47.444   7.105  19.330  0.00  0.00    +0.000 NA
ATOM     16  C   UNL     1      47.320   5.834  19.086  0.00  0.00    +0.000 A 
ATOM     17  N   UNL     1      47.833   5.202  17.981  0.00  0.00    +0.000 N 
ATOM     18  C   UNL     1      48.619   5.843  17.049  0.00  0.00    +0.000 A 
ATOM     19  O   UNL     1      49.275   5.216  16.225  0.00  0.00    +0.000 OA
ATOM     20  C   UNL     1      48.656   7.287  17.193  0.00  0.00    +0.000 A 
ATOM     21  H   UNL     1      47.775   4.200  17.901  0.00  0.00    +0.000 HD
ENDBRANCH  10  11
BRANCH  10  23
ATOM     22  C   UNL     1      52.221   8.495  13.949  0.00  0.00    +0.000 C 
ATOM     23  C   UNL     1      50.972   9.051  14.628  0.00  0.00    +0.000 C 
ENDBRANCH  10  23
ENDBRANCH   8  10
ENDBRANCH   7   8
ENDBRANCH   1   7
BRANCH   4  24
ATOM     24  C   UNL     1      43.659   4.743  11.717  0.00  0.00    +0.000 C 
BRANCH  24  25
ATOM     25  O   UNL     1      43.172   5.453  10.564  0.00  0.00    +0.000 OA
ATOM     26  H   UNL     1      43.420   6.386  10.732  0.00  0.00    +0.000 HD
ENDBRANCH  24  25
BRANCH  24  27
ATOM     27  C   UNL     1      43.765   3.256  11.334  0.00  0.00    +0.000 C 
BRANCH  27  28
ATOM     28  N   UNL     1      44.868   2.945  10.420  0.00  0.00    +0.000 NA
ATOM     29  H   UNL     1      45.552   2.340  10.858  0.00  0.00    +0.000 HD
BRANCH  28  30
ATOM     30  C   UNL     1      44.426   2.387   9.160  0.00  0.00    +0.000 C 
ATOM     31  C   UNL     1      44.614   3.380   8.020  0.00  0.00    +0.000 C 
ATOM     32  C   UNL     1      46.097   3.283   7.702  0.00  0.00    +0.000 C 
ATOM     33  C   UNL     1      46.463   1.854   8.069  0.00  0.00    +0.000 C 
ATOM     34  N   UNL     1      45.312   1.306   8.776  0.00  0.00    +0.000 NA
ATOM     35  H   UNL     1      45.601   0.754   9.577  0.00  0.00    +0.000 HD
ENDBRANCH  28  30
ENDBRANCH  27  28
ENDBRANCH  24  27
ENDBRANCH   4  24
TORSDOF 10
ENDMDL
MODEL 7
REMARK VINA RESULT:    -6.685      3.011      4.023
REMARK INTER + INTRA:         -11.628
REMARK INTER:                 -10.628
REMARK INTRA:                  -1.000
REMARK UNBOUND:                -1.231
REMARK  Name = 
REMARK  11 active torsions:
REMARK  status: ('A' for Active; 'I' for Inactive)
REMARK    1  A    between atoms: C_1  and  C_2
REMARK    2  A    between atoms: C_2  and  C_3
REMARK    3  A    between atoms: C_3  and  N_4
REMARK    4  A    between atoms: C_3  and  C_21
REMARK    5  A    between atoms: N_4  and  C_5
REMARK    6  A    between atoms: C_5  and  C_6
REMARK    7  A    between atoms: C_9  and  C_10
REMARK    8  A    between atoms: C_10  and  O_11
REMARK    9  A    between atoms: C_10  and  C_12
REMARK   10  A    between atoms: C_12  and  N_13
REMARK   11  A    between atoms: N_13  and  C_14
REMARK                            x       y       z     vdW  Elec       q    Type
REMARK                         _______ _______ _______ _____ _____    ______ ____
ROOT
ATOM      1  C   UNL     1      47.410   6.830  13.419  0.00  0.00    +0.000 A 
ATOM      2  C   UNL     1      47.201   5.469  13.650  0.00  0.00    +0.000 A 
ATOM      3  C   UNL     1      45.957   4.914  13.385  0.00  0.00    +0.000 A 
ATOM      4  C   UNL     1      44.946   5.743  12.904  0.00  0.00    +0.000 A 
ATOM      5  N   UNL     1      45.108   7.080  12.712  0.00  0.00    +0.000 NA
ATOM      6  C   UNL     1      46.333   7.585  12.970  0.00  0.00    +0.000 A 
ENDROOT
BRANCH   1   7
ATOM      7  C   UNL     1      48.740   7.461  13.710  0.00  0.00    +0.000 C 
BRANCH   7   8
ATOM      8  N   UNL     1      48.933   7.699  15.148  0.00  0.00    +0.000 NA
ATOM      9  H   UNL     1      48.018   7.620  15.599  0.00  0.00    +0.000 HD
BRANCH   8  10
ATOM     10  C   UNL     1      49.838   6.710  15.764  0.00  0.00    +0.000 C 
BRANCH  10  11
ATOM     11  C   UNL     1      49.094   5.998  16.895  0.00  0.00    +0.000 A 
ATOM     12  C   UNL     1      48.823   4.636  16.940  0.00  0.00    +0.000 A 
ATOM     13  S   UNL     1      47.988   4.145  18.349  0.00  0.00    +0.000 S 
ATOM     14  C   UNL     1      47.971   5.738  18.965  0.00  0.00    +0.000 A 
ATOM     15  N   UNL     1      47.431   6.014  20.182  0.00  0.00    +0.000 NA
ATOM     16  C   UNL     1      47.529   7.262  20.531  0.00  0.00    +0.000 A 
ATOM     17  N   UNL     1      48.070   8.249  19.744  0.00  0.00    +0.000 N 
ATOM     18  C   UNL     1      48.488   8.029  18.450  0.00  0.00    +0.000 A 
ATOM     19  O   UNL     1      48.719   8.959  17.686  0.00  0.00    +0.000 OA
ATOM     20  C   UNL     1      48.542   6.629  18.070  0.00  0.00    +0.000 A 
ATOM     21  H   UNL     1      48.033   9.209  20.044  0.00  0.00    +0.000 HD
ENDBRANCH  10  11
BRANCH  10  23
ATOM     22  C   UNL     1      52.253   6.300  16.709  0.00  0.00    +0.000 C 
ATOM     23  C   UNL     1      51.201   7.286  16.210  0.00  0.00    +0.000 C 
ENDBRANCH  10  23
ENDBRANCH   8  10
ENDBRANCH   7   8
ENDBRANCH   1   7
BRANCH   4  24
ATOM     24  C   UNL     1      43.598   5.165  12.536  0.00  0.00    +0.000 C 
BRANCH  24  25
ATOM     25  O   UNL     1      42.630   5.499  13.546  0.00  0.00    +0.000 OA
ATOM     26  H   UNL     1      42.952   6.345  13.920  0.00  0.00    +0.000 HD
ENDBRANCH  24  25
BRANCH  24  27
ATOM     27  C   UNL     1      43.087   5.736  11.200  0.00  0.00    +0.000 C 
BRANCH  27  28
ATOM     28  N   UNL     1      43.428   4.926  10.027  0.00  0.00    +0.000 NA
ATOM     29  H   UNL     1      43.162   5.390   9.167  0.00  0.00    +0.000 HD
BRANCH  28  30
ATOM     30  C   UNL     1      44.821   4.535   9.987  0.00  0.00    +0.000 C 
ATOM     31  C   UNL     1      44.977   3.029  10.145  0.00  0.00    +0.000 C 
ATOM     32  C   UNL     1      44.642   2.487   8.765  0.00  0.00    +0.000 C 
ATOM     33  C   UNL     1      45.052   3.604   7.819  0.00  0.00    +0.000 C 
ATOM     34  N   UNL     1      45.346   4.761   8.655  0.00  0.00    +0.000 NA
ATOM     35  H   UNL     1      44.977   5.613   8.246  0.00  0.00    +0.000 HD
ENDBRANCH  28  30
ENDBRANCH  27  28
ENDBRANCH  24  27
ENDBRANCH   4  24
TORSDOF 10
ENDMDL
MODEL 8
REMARK VINA RESULT:    -6.608      2.596      9.052
REMARK INTER + INTRA:         -11.509
REMARK INTER:                 -10.708
REMARK INTRA:                  -0.801
REMARK UNBOUND:                -1.231
REMARK  Name = 
REMARK  11 active torsions:
REMARK  status: ('A' for Active; 'I' for Inactive)
REMARK    1  A    between atoms: C_1  and  C_2
REMARK    2  A    between atoms: C_2  and  C_3
REMARK    3  A    between atoms: C_3  and  N_4
REMARK    4  A    between atoms: C_3  and  C_21
REMARK    5  A    between atoms: N_4  and  C_5
REMARK    6  A    between atoms: C_5  and  C_6
REMARK    7  A    between atoms: C_9  and  C_10
REMARK    8  A    between atoms: C_10  and  O_11
REMARK    9  A    between atoms: C_10  and  C_12
REMARK   10  A    between atoms: C_12  and  N_13
REMARK   11  A    between atoms: N_13  and  C_14
REMARK                            x       y       z     vdW  Elec       q    Type
REMARK                         _______ _______ _______ _____ _____    ______ ____
ROOT
ATOM      1  C   UNL     1      47.346   4.411  15.636  0.00  0.00    +0.000 A 
ATOM      2  C   UNL     1      48.032   5.585  15.952  0.00  0.00    +0.000 A 
ATOM      3  C   UNL     1      48.530   5.763  17.234  0.00  0.00    +0.000 A 
ATOM      4  C   UNL     1      48.316   4.760  18.178  0.00  0.00    +0.000 A 
ATOM      5  N   UNL     1      47.614   3.626  17.911  0.00  0.00    +0.000 NA
ATOM      6  C   UNL     1      47.152   3.481  16.650  0.00  0.00    +0.000 A 
ENDROOT
BRANCH   1   7
ATOM      7  C   UNL     1      46.785   4.197  14.261  0.00  0.00    +0.000 C 
BRANCH   7   8
ATOM      8  N   UNL     1      45.581   5.009  14.027  0.00  0.00    +0.000 NA
ATOM      9  H   UNL     1      45.888   5.929  13.700  0.00  0.00    +0.000 HD
BRANCH   8  10
ATOM     10  C   UNL     1      44.702   4.425  12.997  0.00  0.00    +0.000 C 
BRANCH  10  11
ATOM     11  C   UNL     1      45.178   4.888  11.620  0.00  0.00    +0.000 A 
ATOM     12  C   UNL     1      45.892   6.053  11.372  0.00  0.00    +0.000 A 
ATOM     13  S   UNL     1      46.292   6.280   9.725  0.00  0.00    +0.000 S 
ATOM     14  C   UNL     1      45.540   4.813   9.280  0.00  0.00    +0.000 A 
ATOM     15  N   UNL     1      45.555   4.380   7.991  0.00  0.00    +0.000 NA
ATOM     16  C   UNL     1      44.978   3.228   7.816  0.00  0.00    +0.000 A 
ATOM     17  N   UNL     1      44.348   2.516   8.807  0.00  0.00    +0.000 N 
ATOM     18  C   UNL     1      44.185   2.997  10.087  0.00  0.00    +0.000 A 
ATOM     19  O   UNL     1      43.405   2.473  10.873  0.00  0.00    +0.000 OA
ATOM     20  C   UNL     1      44.943   4.202  10.371  0.00  0.00    +0.000 A 
ATOM     21  H   UNL     1      43.846   1.673   8.580  0.00  0.00    +0.000 HD
ENDBRANCH  10  11
BRANCH  10  23
ATOM     22  C   UNL     1      42.453   5.515  12.191  0.00  0.00    +0.000 C 
ATOM     23  C   UNL     1      43.194   4.678  13.230  0.00  0.00    +0.000 C 
ENDBRANCH  10  23
ENDBRANCH   8  10
ENDBRANCH   7   8
ENDBRANCH   1   7
BRANCH   4  24
ATOM     24  C   UNL     1      48.902   4.882  19.566  0.00  0.00    +0.000 C 
BRANCH  24  25
ATOM     25  O   UNL     1      48.621   3.691  20.322  0.00  0.00    +0.000 OA
ATOM     26  H   UNL     1      48.215   3.081  19.671  0.00  0.00    +0.000 HD
ENDBRANCH  24  25
BRANCH  24  27
ATOM     27  C   UNL     1      50.432   5.048  19.519  0.00  0.00    +0.000 C 
BRANCH  27  28
ATOM     28  N   UNL     1      51.166   3.809  19.246  0.00  0.00    +0.000 NA
ATOM     29  H   UNL     1      50.611   2.992  19.469  0.00  0.00    +0.000 HD
BRANCH  28  30
ATOM     30  C   UNL     1      51.671   3.729  17.892  0.00  0.00    +0.000 C 
ATOM     31  C   UNL     1      53.032   3.047  17.848  0.00  0.00    +0.000 C 
ATOM     32  C   UNL     1      52.696   1.569  17.958  0.00  0.00    +0.000 C 
ATOM     33  C   UNL     1      51.319   1.454  17.324  0.00  0.00    +0.000 C 
ATOM     34  N   UNL     1      50.845   2.818  17.124  0.00  0.00    +0.000 NA
ATOM     35  H   UNL     1      49.864   2.906  17.367  0.00  0.00    +0.000 HD
ENDBRANCH  28  30
ENDBRANCH  27  28
ENDBRANCH  24  27
ENDBRANCH   4  24
TORSDOF 10
ENDMDL
MODEL 9
REMARK VINA RESULT:    -6.564      3.307      8.548
REMARK INTER + INTRA:         -11.441
REMARK INTER:                  -9.588
REMARK INTRA:                  -1.853
REMARK UNBOUND:                -1.231
REMARK  Name = 
REMARK  11 active torsions:
REMARK  status: ('A' for Active; 'I' for Inactive)
REMARK    1  A    between atoms: C_1  and  C_2
REMARK    2  A    between atoms: C_2  and  C_3
REMARK    3  A    between atoms: C_3  and  N_4
REMARK    4  A    between atoms: C_3  and  C_21
REMARK    5  A    between atoms: N_4  and  C_5
REMARK    6  A    between atoms: C_5  and  C_6
REMARK    7  A    between atoms: C_9  and  C_10
REMARK    8  A    between atoms: C_10  and  O_11
REMARK    9  A    between atoms: C_10  and  C_12
REMARK   10  A    between atoms: C_12  and  N_13
REMARK   11  A    between atoms: N_13  and  C_14
REMARK                            x       y       z     vdW  Elec       q    Type
REMARK                         _______ _______ _______ _____ _____    ______ ____
ROOT
ATOM      1  C   UNL     1      49.353   8.119  15.826  0.00  0.00    +0.000 A 
ATOM      2  C   UNL     1      48.696   7.885  17.034  0.00  0.00    +0.000 A 
ATOM      3  C   UNL     1      49.270   7.041  17.974  0.00  0.00    +0.000 A 
ATOM      4  C   UNL     1      50.489   6.439  17.672  0.00  0.00    +0.000 A 
ATOM      5  N   UNL     1      51.132   6.613  16.485  0.00  0.00    +0.000 NA
ATOM      6  C   UNL     1      50.550   7.449  15.598  0.00  0.00    +0.000 A 
ENDROOT
BRANCH   1   7
ATOM      7  C   UNL     1      48.750   9.016  14.786  0.00  0.00    +0.000 C 
BRANCH   7   8
ATOM      8  N   UNL     1      47.336   8.696  14.537  0.00  0.00    +0.000 NA
ATOM      9  H   UNL     1      46.782   9.509  14.819  0.00  0.00    +0.000 HD
BRANCH   8  10
ATOM     10  C   UNL     1      47.064   8.424  13.113  0.00  0.00    +0.000 C 
BRANCH  10  11
ATOM     11  C   UNL     1      46.437   7.036  12.987  0.00  0.00    +0.000 A 
ATOM     12  C   UNL     1      46.978   5.865  13.500  0.00  0.00    +0.000 A 
ATOM     13  S   UNL     1      46.024   4.476  13.205  0.00  0.00    +0.000 S 
ATOM     14  C   UNL     1      44.836   5.394  12.392  0.00  0.00    +0.000 A 
ATOM     15  N   UNL     1      43.706   4.810  11.911  0.00  0.00    +0.000 NA
ATOM     16  C   UNL     1      42.879   5.643  11.353  0.00  0.00    +0.000 A 
ATOM     17  N   UNL     1      43.117   6.986  11.195  0.00  0.00    +0.000 N 
ATOM     18  C   UNL     1      44.313   7.579  11.536  0.00  0.00    +0.000 A 
ATOM     19  O   UNL     1      44.599   8.707  11.152  0.00  0.00    +0.000 OA
ATOM     20  C   UNL     1      45.205   6.727  12.300  0.00  0.00    +0.000 A 
ATOM     21  H   UNL     1      42.469   7.555  10.675  0.00  0.00    +0.000 HD
ENDBRANCH  10  11
BRANCH  10  23
ATOM     22  C   UNL     1      48.413   9.960  11.464  0.00  0.00    +0.000 C 
ATOM     23  C   UNL     1      48.284   8.620  12.184  0.00  0.00    +0.000 C 
ENDBRANCH  10  23
ENDBRANCH   8  10
ENDBRANCH   7   8
ENDBRANCH   1   7
BRANCH   4  24
ATOM     24  C   UNL     1      51.184   5.568  18.695  0.00  0.00    +0.000 C 
BRANCH  24  25
ATOM     25  O   UNL     1      50.352   5.423  19.859  0.00  0.00    +0.000 OA
ATOM     26  H   UNL     1      50.969   5.526  20.612  0.00  0.00    +0.000 HD
ENDBRANCH  24  25
BRANCH  24  27
ATOM     27  C   UNL     1      51.455   4.157  18.142  0.00  0.00    +0.000 C 
BRANCH  27  28
ATOM     28  N   UNL     1      50.545   3.743  17.070  0.00  0.00    +0.000 NA
ATOM     29  H   UNL     1      51.043   3.577  16.204  0.00  0.00    +0.000 HD
BRANCH  28  30
ATOM     30  C   UNL     1      49.735   2.596  17.420  0.00  0.00    +0.000 C 
ATOM     31  C   UNL     1      48.476   3.015  18.168  0.00  0.00    +0.000 C 
ATOM     32  C   UNL     1      47.551   3.507  17.067  0.00  0.00    +0.000 C 
ATOM     33  C   UNL     1      47.962   2.694  15.848  0.00  0.00    +0.000 C 
ATOM     34  N   UNL     1      49.192   2.004  16.213  0.00  0.00    +0.000 NA
ATOM     35  H   UNL     1      49.864   2.021  15.453  0.00  0.00    +0.000 HD
ENDBRANCH  28  30
ENDBRANCH  27  28
ENDBRANCH  24  27
ENDBRANCH   4  24
TORSDOF 10
ENDMDL
