MODEL 1
REMARK VINA RESULT:    -7.030      0.000      0.000
REMARK INTER + INTRA:          -9.294
REMARK INTER:                  -9.085
REMARK INTRA:                  -0.210
REMARK UNBOUND:                -0.210
REMARK  Name = 
REMARK  5 active torsions:
REMARK  status: ('A' for Active; 'I' for Inactive)
REMARK    1  A    between atoms: C_2  and  C_20
REMARK    2  A    between atoms: N_3  and  C_4
REMARK    3  A    between atoms: C_4  and  C_5
REMARK    4  A    between atoms: C_8  and  C_9
REMARK    5  A    between atoms: C_10  and  C_11
REMARK                            x       y       z     vdW  Elec       q    Type
REMARK                         _______ _______ _______ _____ _____    ______ ____
ROOT
ATOM      1  C   UNL     1      48.720   4.221  18.075  0.00  0.00    +0.000 C 
ENDROOT
BRANCH   1   2
ATOM      2  C   UNL     1      48.170   4.563  16.705  0.00  0.00    +0.000 A 
ATOM      3  N   UNL     1      47.324   3.688  16.132  0.00  0.00    +0.000 NA
ATOM      4  C   UNL     1      46.862   4.008  14.905  0.00  0.00    +0.000 A 
ATOM      5  C   UNL     1      47.184   5.168  14.223  0.00  0.00    +0.000 A 
ATOM      6  C   UNL     1      48.108   5.961  14.877  0.00  0.00    +0.000 A 
ATOM      7  N   UNL     1      48.621   5.684  16.099  0.00  0.00    +0.000 NA
BRANCH   5   8
ATOM      8  C   UNL     1      46.634   5.525  12.912  0.00  0.00    +0.000 C 
ATOM      9  C   UNL     1      45.594   4.874  12.374  0.00  0.00    +0.000 C 
BRANCH   9  10
ATOM     10  C   UNL     1      45.085   5.248  11.023  0.00  0.00    +0.000 C 
ATOM     11  O   UNL     1      44.860   6.424  10.750  0.00  0.00    +0.000 OA
ATOM     12  N   UNL     1      44.959   4.212  10.132  0.00  0.00    +0.000 N 
ATOM     13  C   UNL     1      44.969   2.785  10.404  0.00  0.00    +0.000 C 
ATOM     14  C   UNL     1      45.374   2.188   9.071  0.00  0.00    +0.000 C 
ATOM     15  C   UNL     1      44.684   3.101   8.058  0.00  0.00    +0.000 C 
ATOM     16  C   UNL     1      44.633   4.465   8.741  0.00  0.00    +0.000 C 
ENDBRANCH   9  10
ENDBRANCH   5   8
ENDBRANCH   1   2
BRANCH   1  19
ATOM     17  O   UNL     1      50.383   2.362  16.681  0.00  0.00    +0.000 OA
ATOM     18  C   UNL     1      50.875   3.200  17.427  0.00  0.00    +0.000 C 
ATOM     19  N   UNL     1      50.165   4.185  18.072  0.00  0.00    +0.000 N 
ATOM     20  H   UNL     1      50.610   4.681  18.830  0.00  0.00    +0.000 HD
BRANCH  18  21
ATOM     21  C   UNL     1      52.253   3.151  17.900  0.00  0.00    +0.000 A 
ATOM     22  C   UNL     1      52.977   4.286  18.219  0.00  0.00    +0.000 A 
ATOM     23  S   UNL     1      54.666   3.983  18.214  0.00  0.00    +0.000 S 
ATOM     24  C   UNL     1      54.425   2.320  17.919  0.00  0.00    +0.000 A 
ATOM     25  N   UNL     1      55.451   1.466  17.657  0.00  0.00    +0.000 NA
ATOM     26  C   UNL     1      55.087   0.233  17.511  0.00  0.00    +0.000 A 
ATOM     27  N   UNL     1      53.802  -0.234  17.655  0.00  0.00    +0.000 N 
ATOM     28  C   UNL     1      52.736   0.587  17.941  0.00  0.00    +0.000 A 
ATOM     29  O   UNL     1      51.613   0.147  18.159  0.00  0.00    +0.000 OA
ATOM     30  C   UNL     1      53.090   1.993  17.978  0.00  0.00    +0.000 A 
ATOM     31  H   UNL     1      53.600  -1.222  17.620  0.00  0.00    +0.000 HD
ENDBRANCH  18  21
ENDBRANCH   1  19
TORSDOF 5
ENDMDL
MODEL 2
REMARK VINA RESULT:    -7.011      1.443      2.414
REMARK INTER + INTRA:          -9.270
REMARK INTER:                  -8.720
REMARK INTRA:                  -0.551
REMARK UNBOUND:                -0.210
REMARK  Name = 
REMARK  5 active torsions:
REMARK  status: ('A' for Active; 'I' for Inactive)
REMARK    1  A    between atoms: C_2  and  C_20
REMARK    2  A    between atoms: N_3  and  C_4
REMARK    3  A    between atoms: C_4  and  C_5
REMARK    4  A    between atoms: C_8  and  C_9
REMARK    5  A    between atoms: C_10  and  C_11
REMARK                            x       y       z     vdW  Elec       q    Type
REMARK                         _______ _______ _______ _____ _____    ______ ____
ROOT
ATOM      1  C   UNL     1      48.881   3.609  18.069  0.00  0.00    +0.000 C 
ENDROOT
BRANCH   1   2
ATOM      2  C   UNL     1      48.305   4.077  16.747  0.00  0.00    +0.000 A 
ATOM      3  N   UNL     1      48.616   5.319  16.332  0.00  0.00    +0.000 NA
ATOM      4  C   UNL     1      48.075   5.717  15.161  0.00  0.00    +0.000 A 
ATOM      5  C   UNL     1      47.255   4.936  14.369  0.00  0.00    +0.000 A 
ATOM      6  C   UNL     1      46.952   3.706  14.922  0.00  0.00    +0.000 A 
ATOM      7  N   UNL     1      47.447   3.257  16.100  0.00  0.00    +0.000 NA
BRANCH   5   8
ATOM      8  C   UNL     1      46.717   5.366  13.075  0.00  0.00    +0.000 C 
ATOM      9  C   UNL     1      45.683   4.747  12.491  0.00  0.00    +0.000 C 
BRANCH   9  10
ATOM     10  C   UNL     1      45.186   5.195  11.158  0.00  0.00    +0.000 C 
ATOM     11  O   UNL     1      45.016   6.390  10.932  0.00  0.00    +0.000 OA
ATOM     12  N   UNL     1      45.007   4.202  10.230  0.00  0.00    +0.000 N 
ATOM     13  C   UNL     1      44.950   2.766  10.447  0.00  0.00    +0.000 C 
ATOM     14  C   UNL     1      45.320   2.202   9.089  0.00  0.00    +0.000 C 
ATOM     15  C   UNL     1      44.670   3.185   8.116  0.00  0.00    +0.000 C 
ATOM     16  C   UNL     1      44.687   4.523   8.851  0.00  0.00    +0.000 C 
ENDBRANCH   9  10
ENDBRANCH   5   8
ENDBRANCH   1   2
BRANCH   1  19
ATOM     17  O   UNL     1      50.417   1.707  16.588  0.00  0.00    +0.000 OA
ATOM     18  C   UNL     1      50.968   2.511  17.328  0.00  0.00    +0.000 C 
ATOM     19  N   UNL     1      50.323   3.514  18.013  0.00  0.00    +0.000 N 
ATOM     20  H   UNL     1      50.814   3.978  18.762  0.00  0.00    +0.000 HD
BRANCH  18  21
ATOM     21  C   UNL     1      52.358   2.398  17.751  0.00  0.00    +0.000 A 
ATOM     22  C   UNL     1      52.977   1.182  17.978  0.00  0.00    +0.000 A 
ATOM     23  S   UNL     1      54.377   1.356  18.956  0.00  0.00    +0.000 S 
ATOM     24  C   UNL     1      54.231   3.056  18.963  0.00  0.00    +0.000 A 
ATOM     25  N   UNL     1      55.021   3.856  19.730  0.00  0.00    +0.000 NA
ATOM     26  C   UNL     1      54.805   5.121  19.567  0.00  0.00    +0.000 A 
ATOM     27  N   UNL     1      53.913   5.663  18.672  0.00  0.00    +0.000 N 
ATOM     28  C   UNL     1      53.109   4.895  17.861  0.00  0.00    +0.000 A 
ATOM     29  O   UNL     1      52.387   5.389  17.003  0.00  0.00    +0.000 OA
ATOM     30  C   UNL     1      53.231   3.473  18.115  0.00  0.00    +0.000 A 
ATOM     31  H   UNL     1      53.859   6.660  18.529  0.00  0.00    +0.000 HD
ENDBRANCH  18  21
ENDBRANCH   1  19
TORSDOF 5
ENDMDL
MODEL 3
REMARK VINA RESULT:    -7.006      3.068      9.811
REMARK INTER + INTRA:          -9.264
REMARK INTER:                  -8.733
REMARK INTRA:                  -0.531
REMARK UNBOUND:                -0.210
REMARK  Name = 
REMARK  5 active torsions:
REMARK  status: ('A' for Active; 'I' for Inactive)
REMARK    1  A    between atoms: C_2  and  C_20
REMARK    2  A    between atoms: N_3  and  C_4
REMARK    3  A    between atoms: C_4  and  C_5
REMARK    4  A    between atoms: C_8  and  C_9
REMARK    5  A    between atoms: C_10  and  C_11
REMARK                            x       y       z     vdW  Elec       q    Type
REMARK                         _______ _______ _______ _____ _____    ______ ____
ROOT
ATOM      1  C   UNL     1      47.820   4.729  17.266  0.00  0.00    +0.000 C 
ENDROOT
BRANCH   1   2
ATOM      2  C   UNL     1      49.125   3.971  17.405  0.00  0.00    +0.000 A 
ATOM      3  N   UNL     1      49.186   2.728  16.894  0.00  0.00    +0.000 NA
ATOM      4  C   UNL     1      50.354   2.069  17.047  0.00  0.00    +0.000 A 
ATOM      5  C   UNL     1      51.474   2.590  17.667  0.00  0.00    +0.000 A 
ATOM      6  C   UNL     1      51.278   3.846  18.210  0.00  0.00    +0.000 A 
ATOM      7  N   UNL     1      50.126   4.550  18.105  0.00  0.00    +0.000 NA
BRANCH   5   8
ATOM      8  C   UNL     1      52.751   1.879  17.780  0.00  0.00    +0.000 C 
ATOM      9  C   UNL     1      52.823   0.542  17.803  0.00  0.00    +0.000 C 
BRANCH   9  10
ATOM     10  C   UNL     1      54.140  -0.143  17.951  0.00  0.00    +0.000 C 
ATOM     11  O   UNL     1      55.155   0.357  17.472  0.00  0.00    +0.000 OA
ATOM     12  N   UNL     1      54.125  -1.295  18.694  0.00  0.00    +0.000 N 
ATOM     13  C   UNL     1      52.979  -2.089  19.102  0.00  0.00    +0.000 C 
ATOM     14  C   UNL     1      53.496  -2.836  20.316  0.00  0.00    +0.000 C 
ATOM     15  C   UNL     1      54.951  -3.127  19.950  0.00  0.00    +0.000 C 
ATOM     16  C   UNL     1      55.363  -1.964  19.051  0.00  0.00    +0.000 C 
ENDBRANCH   9  10
ENDBRANCH   5   8
ENDBRANCH   1   2
BRANCH   1  19
ATOM     17  O   UNL     1      49.089   6.419  15.342  0.00  0.00    +0.000 OA
ATOM     18  C   UNL     1      48.079   5.792  15.050  0.00  0.00    +0.000 C 
ATOM     19  N   UNL     1      47.449   4.894  15.878  0.00  0.00    +0.000 N 
ATOM     20  H   UNL     1      46.512   4.599  15.645  0.00  0.00    +0.000 HD
BRANCH  18  21
ATOM     21  C   UNL     1      47.280   6.057  13.860  0.00  0.00    +0.000 A 
ATOM     22  C   UNL     1      47.149   7.319  13.309  0.00  0.00    +0.000 A 
ATOM     23  S   UNL     1      45.771   7.427  12.292  0.00  0.00    +0.000 S 
ATOM     24  C   UNL     1      45.431   5.765  12.480  0.00  0.00    +0.000 A 
ATOM     25  N   UNL     1      44.298   5.191  11.993  0.00  0.00    +0.000 NA
ATOM     26  C   UNL     1      44.233   3.912  12.183  0.00  0.00    +0.000 A 
ATOM     27  N   UNL     1      45.217   3.147  12.764  0.00  0.00    +0.000 N 
ATOM     28  C   UNL     1      46.387   3.681  13.251  0.00  0.00    +0.000 A 
ATOM     29  O   UNL     1      47.295   2.979  13.682  0.00  0.00    +0.000 OA
ATOM     30  C   UNL     1      46.432   5.129  13.176  0.00  0.00    +0.000 A 
ATOM     31  H   UNL     1      45.143   2.142  12.798  0.00  0.00    +0.000 HD
ENDBRANCH  18  21
ENDBRANCH   1  19
TORSDOF 5
ENDMDL
MODEL 4
REMARK VINA RESULT:    -6.887      3.985     10.030
REMARK INTER + INTRA:          -9.110
REMARK INTER:                  -8.306
REMARK INTRA:                  -0.804
REMARK UNBOUND:                -0.210
REMARK  Name = 
REMARK  5 active torsions:
REMARK  status: ('A' for Active; 'I' for Inactive)
REMARK    1  A    between atoms: C_2  and  C_20
REMARK    2  A    between atoms: N_3  and  C_4
REMARK    3  A    between atoms: C_4  and  C_5
REMARK    4  A    between atoms: C_8  and  C_9
REMARK    5  A    between atoms: C_10  and  C_11
REMARK                            x       y       z     vdW  Elec       q    Type
REMARK                         _______ _______ _______ _____ _____    ______ ____
ROOT
ATOM      1  C   UNL     1      47.177   3.998  16.682  0.00  0.00    +0.000 C 
ENDROOT
BRANCH   1   2
ATOM      2  C   UNL     1      48.587   4.530  16.844  0.00  0.00    +0.000 A 
ATOM      3  N   UNL     1      48.813   5.816  16.519  0.00  0.00    +0.000 NA
ATOM      4  C   UNL     1      50.081   6.260  16.656  0.00  0.00    +0.000 A 
ATOM      5  C   UNL     1      51.135   5.495  17.120  0.00  0.00    +0.000 A 
ATOM      6  C   UNL     1      50.802   4.175  17.361  0.00  0.00    +0.000 A 
ATOM      7  N   UNL     1      49.554   3.666  17.225  0.00  0.00    +0.000 NA
BRANCH   5   8
ATOM      8  C   UNL     1      52.495   6.006  17.310  0.00  0.00    +0.000 C 
ATOM      9  C   UNL     1      52.799   6.880  18.278  0.00  0.00    +0.000 C 
BRANCH   9  10
ATOM     10  C   UNL     1      54.190   7.401  18.419  0.00  0.00    +0.000 C 
ATOM     11  O   UNL     1      55.059   6.710  18.943  0.00  0.00    +0.000 OA
ATOM     12  N   UNL     1      54.414   8.640  17.874  0.00  0.00    +0.000 N 
ATOM     13  C   UNL     1      53.436   9.627  17.450  0.00  0.00    +0.000 C 
ATOM     14  C   UNL     1      54.211  10.465  16.451  0.00  0.00    +0.000 C 
ATOM     15  C   UNL     1      55.616  10.508  17.050  0.00  0.00    +0.000 C 
ATOM     16  C   UNL     1      55.757   9.185  17.798  0.00  0.00    +0.000 C 
ENDBRANCH   9  10
ENDBRANCH   5   8
ENDBRANCH   1   2
BRANCH   1  19
ATOM     17  O   UNL     1      47.325   2.926  14.037  0.00  0.00    +0.000 OA
ATOM     18  C   UNL     1      46.739   3.980  14.250  0.00  0.00    +0.000 C 
ATOM     19  N   UNL     1      46.544   4.529  15.495  0.00  0.00    +0.000 N 
ATOM     20  H   UNL     1      46.255   5.493  15.556  0.00  0.00    +0.000 HD
BRANCH  18  21
ATOM     21  C   UNL     1      46.340   4.908  13.200  0.00  0.00    +0.000 A 
ATOM     22  C   UNL     1      47.095   6.014  12.848  0.00  0.00    +0.000 A 
ATOM     23  S   UNL     1      46.157   7.180  12.009  0.00  0.00    +0.000 S 
ATOM     24  C   UNL     1      44.790   6.158  11.997  0.00  0.00    +0.000 A 
ATOM     25  N   UNL     1      43.571   6.572  11.558  0.00  0.00    +0.000 NA
ATOM     26  C   UNL     1      42.665   5.648  11.573  0.00  0.00    +0.000 A 
ATOM     27  N   UNL     1      42.876   4.338  11.935  0.00  0.00    +0.000 N 
ATOM     28  C   UNL     1      44.097   3.870  12.364  0.00  0.00    +0.000 A 
ATOM     29  O   UNL     1      44.296   2.682  12.593  0.00  0.00    +0.000 OA
ATOM     30  C   UNL     1      45.099   4.910  12.487  0.00  0.00    +0.000 A 
ATOM     31  H   UNL     1      42.149   3.647  11.835  0.00  0.00    +0.000 HD
ENDBRANCH  18  21
ENDBRANCH   1  19
TORSDOF 5
ENDMDL
MODEL 5
REMARK VINA RESULT:    -6.809      3.565      9.888
REMARK INTER + INTRA:          -9.009
REMARK INTER:                  -8.207
REMARK INTRA:                  -0.802
REMARK UNBOUND:                -0.210
REMARK  Name = 
REMARK  5 active torsions:
REMARK  status: ('A' for Active; 'I' for Inactive)
REMARK    1  A    between atoms: C_2  and  C_20
REMARK    2  A    between atoms: N_3  and  C_4
REMARK    3  A    between atoms: C_4  and  C_5
REMARK    4  A    between atoms: C_8  and  C_9
REMARK    5  A    between atoms: C_10  and  C_11
REMARK                            x       y       z     vdW  Elec       q    Type
REMARK                         _______ _______ _______ _____ _____    ______ ____
ROOT
ATOM      1  C   UNL     1      47.334   8.351  12.720  0.00  0.00    +0.000 C 
ENDROOT
BRANCH   1   2
ATOM      2  C   UNL     1      47.942   7.794  13.991  0.00  0.00    +0.000 A 
ATOM      3  N   UNL     1      47.980   6.457  14.136  0.00  0.00    +0.000 NA
ATOM      4  C   UNL     1      48.510   5.987  15.285  0.00  0.00    +0.000 A 
ATOM      5  C   UNL     1      49.026   6.781  16.293  0.00  0.00    +0.000 A 
ATOM      6  C   UNL     1      48.877   8.136  16.067  0.00  0.00    +0.000 A 
ATOM      7  N   UNL     1      48.338   8.667  14.944  0.00  0.00    +0.000 NA
BRANCH   5   8
ATOM      8  C   UNL     1      49.645   6.254  17.513  0.00  0.00    +0.000 C 
ATOM      9  C   UNL     1      50.610   5.326  17.479  0.00  0.00    +0.000 C 
BRANCH   9  10
ATOM     10  C   UNL     1      51.192   4.793  18.745  0.00  0.00    +0.000 C 
ATOM     11  O   UNL     1      50.497   4.694  19.752  0.00  0.00    +0.000 OA
ATOM     12  N   UNL     1      52.498   4.379  18.665  0.00  0.00    +0.000 N 
ATOM     13  C   UNL     1      53.468   4.657  17.620  0.00  0.00    +0.000 C 
ATOM     14  C   UNL     1      54.462   3.521  17.769  0.00  0.00    +0.000 C 
ATOM     15  C   UNL     1      54.518   3.305  19.281  0.00  0.00    +0.000 C 
ATOM     16  C   UNL     1      53.127   3.690  19.777  0.00  0.00    +0.000 C 
ENDBRANCH   9  10
ENDBRANCH   5   8
ENDBRANCH   1   2
BRANCH   1  19
ATOM     17  O   UNL     1      44.768   7.826  11.577  0.00  0.00    +0.000 OA
ATOM     18  C   UNL     1      45.714   7.081  11.353  0.00  0.00    +0.000 C 
ATOM     19  N   UNL     1      47.000   7.297  11.787  0.00  0.00    +0.000 N 
ATOM     20  H   UNL     1      47.656   6.532  11.750  0.00  0.00    +0.000 HD
BRANCH  18  21
ATOM     21  C   UNL     1      45.575   5.755  10.765  0.00  0.00    +0.000 A 
ATOM     22  C   UNL     1      45.891   5.482   9.445  0.00  0.00    +0.000 A 
ATOM     23  S   UNL     1      45.140   4.038   8.900  0.00  0.00    +0.000 S 
ATOM     24  C   UNL     1      44.510   3.711  10.451  0.00  0.00    +0.000 A 
ATOM     25  N   UNL     1      43.639   2.693  10.688  0.00  0.00    +0.000 NA
ATOM     26  C   UNL     1      43.308   2.562  11.932  0.00  0.00    +0.000 A 
ATOM     27  N   UNL     1      43.806   3.318  12.968  0.00  0.00    +0.000 N 
ATOM     28  C   UNL     1      44.704   4.343  12.779  0.00  0.00    +0.000 A 
ATOM     29  O   UNL     1      45.211   4.947  13.717  0.00  0.00    +0.000 OA
ATOM     30  C   UNL     1      44.991   4.603  11.382  0.00  0.00    +0.000 A 
ATOM     31  H   UNL     1      43.577   3.103  13.926  0.00  0.00    +0.000 HD
ENDBRANCH  18  21
ENDBRANCH   1  19
TORSDOF 5
ENDMDL
MODEL 6
REMARK VINA RESULT:    -6.807      3.164     10.219
REMARK INTER + INTRA:          -9.006
REMARK INTER:                  -8.328
REMARK INTRA:                  -0.679
REMARK UNBOUND:                -0.210
REMARK  Name = 
REMARK  5 active torsions:
REMARK  status: ('A' for Active; 'I' for Inactive)
REMARK    1  A    between atoms: C_2  and  C_20
REMARK    2  A    between atoms: N_3  and  C_4
REMARK    3  A    between atoms: C_4  and  C_5
REMARK    4  A    between atoms: C_8  and  C_9
REMARK    5  A    between atoms: C_10  and  C_11
REMARK                            x       y       z     vdW  Elec       q    Type
REMARK                         _______ _______ _______ _____ _____    ______ ____
ROOT
ATOM      1  C   UNL     1      46.914   4.002  15.930  0.00  0.00    +0.000 C 
ENDROOT
BRANCH   1   2
ATOM      2  C   UNL     1      48.292   3.797  16.529  0.00  0.00    +0.000 A 
ATOM      3  N   UNL     1      48.999   4.891  16.863  0.00  0.00    +0.000 NA
ATOM      4  C   UNL     1      50.229   4.681  17.378  0.00  0.00    +0.000 A 
ATOM      5  C   UNL     1      50.787   3.435  17.596  0.00  0.00    +0.000 A 
ATOM      6  C   UNL     1      50.000   2.387  17.157  0.00  0.00    +0.000 A 
ATOM      7  N   UNL     1      48.766   2.534  16.617  0.00  0.00    +0.000 NA
BRANCH   5   8
ATOM      8  C   UNL     1      52.104   3.223  18.203  0.00  0.00    +0.000 C 
ATOM      9  C   UNL     1      52.850   2.145  17.930  0.00  0.00    +0.000 C 
BRANCH   9  10
ATOM     10  C   UNL     1      54.172   1.951  18.593  0.00  0.00    +0.000 C 
ATOM     11  O   UNL     1      54.815   2.920  18.986  0.00  0.00    +0.000 OA
ATOM     12  N   UNL     1      54.555   0.646  18.774  0.00  0.00    +0.000 N 
ATOM     13  C   UNL     1      54.004  -0.548  18.157  0.00  0.00    +0.000 C 
ATOM     14  C   UNL     1      54.394  -1.644  19.130  0.00  0.00    +0.000 C 
ATOM     15  C   UNL     1      55.775  -1.203  19.614  0.00  0.00    +0.000 C 
ATOM     16  C   UNL     1      55.737   0.321  19.552  0.00  0.00    +0.000 C 
ENDBRANCH   9  10
ENDBRANCH   5   8
ENDBRANCH   1   2
BRANCH   1  19
ATOM     17  O   UNL     1      46.303   3.928  13.139  0.00  0.00    +0.000 OA
ATOM     18  C   UNL     1      46.662   4.971  13.671  0.00  0.00    +0.000 C 
ATOM     19  N   UNL     1      46.895   5.123  15.017  0.00  0.00    +0.000 N 
ATOM     20  H   UNL     1      47.397   5.940  15.330  0.00  0.00    +0.000 HD
BRANCH  18  21
ATOM     21  C   UNL     1      47.089   6.150  12.929  0.00  0.00    +0.000 A 
ATOM     22  C   UNL     1      48.414   6.538  12.834  0.00  0.00    +0.000 A 
ATOM     23  S   UNL     1      48.560   8.190  12.391  0.00  0.00    +0.000 S 
ATOM     24  C   UNL     1      46.872   8.347  12.197  0.00  0.00    +0.000 A 
ATOM     25  N   UNL     1      46.271   9.545  11.959  0.00  0.00    +0.000 NA
ATOM     26  C   UNL     1      44.991   9.466  11.787  0.00  0.00    +0.000 A 
ATOM     27  N   UNL     1      44.264   8.299  11.777  0.00  0.00    +0.000 N 
ATOM     28  C   UNL     1      44.831   7.064  11.991  0.00  0.00    +0.000 A 
ATOM     29  O   UNL     1      44.190   6.025  11.888  0.00  0.00    +0.000 OA
ATOM     30  C   UNL     1      46.242   7.131  12.321  0.00  0.00    +0.000 A 
ATOM     31  H   UNL     1      43.283   8.299  11.545  0.00  0.00    +0.000 HD
ENDBRANCH  18  21
ENDBRANCH   1  19
TORSDOF 5
ENDMDL
MODEL 7
REMARK VINA RESULT:    -6.609      5.836      9.290
REMARK INTER + INTRA:          -8.750
REMARK INTER:                  -7.658
REMARK INTRA:                  -1.092
REMARK UNBOUND:                -0.210
REMARK  Name = 
REMARK  5 active torsions:
REMARK  status: ('A' for Active; 'I' for Inactive)
REMARK    1  A    between atoms: C_2  and  C_20
REMARK    2  A    between atoms: N_3  and  C_4
REMARK    3  A    between atoms: C_4  and  C_5
REMARK    4  A    between atoms: C_8  and  C_9
REMARK    5  A    between atoms: C_10  and  C_11
REMARK                            x       y       z     vdW  Elec       q    Type
REMARK                         _______ _______ _______ _____ _____    ______ ____
ROOT
ATOM      1  C   UNL     1      47.517   6.257  14.673  0.00  0.00    +0.000 C 
ENDROOT
BRANCH   1   2
ATOM      2  C   UNL     1      48.247   7.155  13.694  0.00  0.00    +0.000 A 
ATOM      3  N   UNL     1      47.778   8.403  13.518  0.00  0.00    +0.000 NA
ATOM      4  C   UNL     1      48.436   9.176  12.628  0.00  0.00    +0.000 A 
ATOM      5  C   UNL     1      49.553   8.778  11.917  0.00  0.00    +0.000 A 
ATOM      6  C   UNL     1      49.908   7.459  12.129  0.00  0.00    +0.000 A 
ATOM      7  N   UNL     1      49.277   6.629  12.994  0.00  0.00    +0.000 NA
BRANCH   5   8
ATOM      8  C   UNL     1      50.287   9.647  10.993  0.00  0.00    +0.000 C 
ATOM      9  C   UNL     1      51.537   9.374  10.598  0.00  0.00    +0.000 C 
BRANCH   9  10
ATOM     10  C   UNL     1      52.260  10.301   9.680  0.00  0.00    +0.000 C 
ATOM     11  O   UNL     1      52.187  11.515   9.843  0.00  0.00    +0.000 OA
ATOM     12  N   UNL     1      53.034   9.697   8.722  0.00  0.00    +0.000 N 
ATOM     13  C   UNL     1      53.016   8.309   8.292  0.00  0.00    +0.000 C 
ATOM     14  C   UNL     1      54.396   8.120   7.694  0.00  0.00    +0.000 C 
ATOM     15  C   UNL     1      54.672   9.466   7.025  0.00  0.00    +0.000 C 
ATOM     16  C   UNL     1      53.915  10.482   7.876  0.00  0.00    +0.000 C 
ENDBRANCH   9  10
ENDBRANCH   5   8
ENDBRANCH   1   2
BRANCH   1  19
ATOM     17  O   UNL     1      47.348   3.593  13.651  0.00  0.00    +0.000 OA
ATOM     18  C   UNL     1      46.407   4.367  13.530  0.00  0.00    +0.000 C 
ATOM     19  N   UNL     1      46.364   5.635  14.061  0.00  0.00    +0.000 N 
ATOM     20  H   UNL     1      45.658   6.273  13.727  0.00  0.00    +0.000 HD
BRANCH  18  21
ATOM     21  C   UNL     1      45.280   4.134  12.637  0.00  0.00    +0.000 A 
ATOM     22  C   UNL     1      44.190   3.357  12.989  0.00  0.00    +0.000 A 
ATOM     23  S   UNL     1      43.318   2.825  11.611  0.00  0.00    +0.000 S 
ATOM     24  C   UNL     1      44.309   3.736  10.561  0.00  0.00    +0.000 A 
ATOM     25  N   UNL     1      44.220   3.643   9.207  0.00  0.00    +0.000 NA
ATOM     26  C   UNL     1      45.012   4.446   8.571  0.00  0.00    +0.000 A 
ATOM     27  N   UNL     1      45.844   5.368   9.161  0.00  0.00    +0.000 N 
ATOM     28  C   UNL     1      45.951   5.512  10.525  0.00  0.00    +0.000 A 
ATOM     29  O   UNL     1      46.625   6.399  11.036  0.00  0.00    +0.000 OA
ATOM     30  C   UNL     1      45.177   4.536  11.267  0.00  0.00    +0.000 A 
ATOM     31  H   UNL     1      46.367   6.027   8.605  0.00  0.00    +0.000 HD
ENDBRANCH  18  21
ENDBRANCH   1  19
TORSDOF 5
ENDMDL
MODEL 8
REMARK VINA RESULT:    -6.134      4.622      5.969
REMARK INTER + INTRA:          -8.137
REMARK INTER:                  -7.419
REMARK INTRA:                  -0.719
REMARK UNBOUND:                -0.210
REMARK  Name = 
REMARK  5 active torsions:
REMARK  status: ('A' for Active; 'I' for Inactive)
REMARK    1  A    between atoms: C_2  and  C_20
REMARK    2  A    between atoms: N_3  and  C_4
REMARK    3  A    between atoms: C_4  and  C_5
REMARK    4  A    between atoms: C_8  and  C_9
REMARK    5  A    between atoms: C_10  and  C_11
REMARK                            x       y       z     vdW  Elec       q    Type
REMARK                         _______ _______ _______ _____ _____    ______ ____
ROOT
ATOM      1  C   UNL     1      47.023   4.696  14.819  0.00  0.00    +0.000 C 
ENDROOT
BRANCH   1   2
ATOM      2  C   UNL     1      47.565   5.802  13.935  0.00  0.00    +0.000 A 
ATOM      3  N   UNL     1      48.669   6.450  14.348  0.00  0.00    +0.000 NA
ATOM      4  C   UNL     1      49.121   7.442  13.552  0.00  0.00    +0.000 A 
ATOM      5  C   UNL     1      48.542   7.811  12.352  0.00  0.00    +0.000 A 
ATOM      6  C   UNL     1      47.379   7.124  12.059  0.00  0.00    +0.000 A 
ATOM      7  N   UNL     1      46.866   6.132  12.826  0.00  0.00    +0.000 NA
BRANCH   5   8
ATOM      8  C   UNL     1      49.074   8.857  11.474  0.00  0.00    +0.000 C 
ATOM      9  C   UNL     1      50.325   9.321  11.595  0.00  0.00    +0.000 C 
BRANCH   9  10
ATOM     10  C   UNL     1      50.819  10.409  10.701  0.00  0.00    +0.000 C 
ATOM     11  O   UNL     1      50.242  11.492  10.670  0.00  0.00    +0.000 OA
ATOM     12  N   UNL     1      51.963  10.123  10.001  0.00  0.00    +0.000 N 
ATOM     13  C   UNL     1      52.585   8.828   9.782  0.00  0.00    +0.000 C 
ATOM     14  C   UNL     1      54.026   9.190   9.483  0.00  0.00    +0.000 C 
ATOM     15  C   UNL     1      53.901  10.489   8.687  0.00  0.00    +0.000 C 
ATOM     16  C   UNL     1      52.636  11.151   9.227  0.00  0.00    +0.000 C 
ENDBRANCH   9  10
ENDBRANCH   5   8
ENDBRANCH   1   2
BRANCH   1  19
ATOM     17  O   UNL     1      46.389   3.274  17.215  0.00  0.00    +0.000 OA
ATOM     18  C   UNL     1      47.493   3.784  17.067  0.00  0.00    +0.000 C 
ATOM     19  N   UNL     1      47.916   4.412  15.919  0.00  0.00    +0.000 N 
ATOM     20  H   UNL     1      48.741   4.990  15.964  0.00  0.00    +0.000 HD
BRANCH  18  21
ATOM     21  C   UNL     1      48.446   3.977  18.152  0.00  0.00    +0.000 A 
ATOM     22  C   UNL     1      48.155   4.718  19.284  0.00  0.00    +0.000 A 
ATOM     23  S   UNL     1      49.580   5.218  20.098  0.00  0.00    +0.000 S 
ATOM     24  C   UNL     1      50.572   4.339  19.023  0.00  0.00    +0.000 A 
ATOM     25  N   UNL     1      51.930   4.426  19.042  0.00  0.00    +0.000 NA
ATOM     26  C   UNL     1      52.519   3.649  18.192  0.00  0.00    +0.000 A 
ATOM     27  N   UNL     1      51.882   2.756  17.362  0.00  0.00    +0.000 N 
ATOM     28  C   UNL     1      50.514   2.618  17.323  0.00  0.00    +0.000 A 
ATOM     29  O   UNL     1      49.964   1.755  16.649  0.00  0.00    +0.000 OA
ATOM     30  C   UNL     1      49.818   3.569  18.168  0.00  0.00    +0.000 A 
ATOM     31  H   UNL     1      52.407   2.113  16.788  0.00  0.00    +0.000 HD
ENDBRANCH  18  21
ENDBRANCH   1  19
TORSDOF 5
ENDMDL
MODEL 9
REMARK VINA RESULT:    -6.032      2.136      3.073
REMARK INTER + INTRA:          -8.005
REMARK INTER:                  -6.884
REMARK INTRA:                  -1.121
REMARK UNBOUND:                -0.210
REMARK  Name = 
REMARK  5 active torsions:
REMARK  status: ('A' for Active; 'I' for Inactive)
REMARK    1  A    between atoms: C_2  and  C_20
REMARK    2  A    between atoms: N_3  and  C_4
REMARK    3  A    between atoms: C_4  and  C_5
REMARK    4  A    between atoms: C_8  and  C_9
REMARK    5  A    between atoms: C_10  and  C_11
REMARK                            x       y       z     vdW  Elec       q    Type
REMARK                         _______ _______ _______ _____ _____    ______ ____
ROOT
ATOM      1  C   UNL     1      50.283   6.015  19.984  0.00  0.00    +0.000 C 
ENDROOT
BRANCH   1   2
ATOM      2  C   UNL     1      49.480   5.470  18.820  0.00  0.00    +0.000 A 
ATOM      3  N   UNL     1      48.685   4.409  19.049  0.00  0.00    +0.000 NA
ATOM      4  C   UNL     1      47.994   3.932  17.992  0.00  0.00    +0.000 A 
ATOM      5  C   UNL     1      48.036   4.471  16.719  0.00  0.00    +0.000 A 
ATOM      6  C   UNL     1      48.931   5.515  16.585  0.00  0.00    +0.000 A 
ATOM      7  N   UNL     1      49.666   6.026  17.602  0.00  0.00    +0.000 NA
BRANCH   5   8
ATOM      8  C   UNL     1      47.240   3.973  15.594  0.00  0.00    +0.000 C 
ATOM      9  C   UNL     1      47.098   4.668  14.458  0.00  0.00    +0.000 C 
BRANCH   9  10
ATOM     10  C   UNL     1      46.253   4.140  13.348  0.00  0.00    +0.000 C 
ATOM     11  O   UNL     1      46.077   2.932  13.225  0.00  0.00    +0.000 OA
ATOM     12  N   UNL     1      45.664   5.090  12.552  0.00  0.00    +0.000 N 
ATOM     13  C   UNL     1      45.978   6.505  12.456  0.00  0.00    +0.000 C 
ATOM     14  C   UNL     1      44.695   7.102  11.912  0.00  0.00    +0.000 C 
ATOM     15  C   UNL     1      44.193   6.028  10.948  0.00  0.00    +0.000 C 
ATOM     16  C   UNL     1      44.689   4.713  11.544  0.00  0.00    +0.000 C 
ENDBRANCH   9  10
ENDBRANCH   5   8
ENDBRANCH   1   2
BRANCH   1  19
ATOM     17  O   UNL     1      52.982   6.018  19.042  0.00  0.00    +0.000 OA
ATOM     18  C   UNL     1      52.588   5.142  19.802  0.00  0.00    +0.000 C 
ATOM     19  N   UNL     1      51.337   5.104  20.372  0.00  0.00    +0.000 N 
ATOM     20  H   UNL     1      51.027   4.243  20.796  0.00  0.00    +0.000 HD
BRANCH  18  21
ATOM     21  C   UNL     1      53.316   3.905  20.054  0.00  0.00    +0.000 A 
ATOM     22  C   UNL     1      54.159   3.737  21.139  0.00  0.00    +0.000 A 
ATOM     23  S   UNL     1      55.259   2.444  20.892  0.00  0.00    +0.000 S 
ATOM     24  C   UNL     1      54.527   2.027  19.409  0.00  0.00    +0.000 A 
ATOM     25  N   UNL     1      55.047   1.086  18.574  0.00  0.00    +0.000 NA
ATOM     26  C   UNL     1      54.330   0.863  17.520  0.00  0.00    +0.000 A 
ATOM     27  N   UNL     1      53.118   1.453  17.248  0.00  0.00    +0.000 N 
ATOM     28  C   UNL     1      52.543   2.392  18.073  0.00  0.00    +0.000 A 
ATOM     29  O   UNL     1      51.421   2.841  17.868  0.00  0.00    +0.000 OA
ATOM     30  C   UNL     1      53.385   2.763  19.194  0.00  0.00    +0.000 A 
ATOM     31  H   UNL     1      52.566   1.166  16.454  0.00  0.00    +0.000 HD
ENDBRANCH  18  21
ENDBRANCH   1  19
TORSDOF 5
ENDMDL
