MODEL 1
REMARK VINA RESULT:    -8.935      0.000      0.000
REMARK INTER + INTRA:         -13.275
REMARK INTER:                 -12.330
REMARK INTRA:                  -0.945
REMARK UNBOUND:                -0.945
REMARK  Name = 
REMARK  8 active torsions:
REMARK  status: ('A' for Active; 'I' for Inactive)
REMARK    1  A    between atoms: C_1  and  C_2
REMARK    2  A    between atoms: C_2  and  O_3
REMARK    3  A    between atoms: C_5  and  O_6
REMARK    4  A    between atoms: O_6  and  C_7
REMARK    5  A    between atoms: C_9  and  C_10
REMARK    6  A    between atoms: C_10  and  C_11
REMARK    7  A    between atoms: C_11  and  N_12
REMARK    8  A    between atoms: C_16  and  C_17
REMARK                            x       y       z     vdW  Elec       q    Type
REMARK                         _______ _______ _______ _____ _____    ______ ____
ROOT
ATOM      1  C   UNL     1      46.760   4.928  13.846  0.00  0.00    +0.000 A 
ATOM      2  C   UNL     1      45.444   4.628  13.480  0.00  0.00    +0.000 A 
ATOM      3  C   UNL     1      44.641   5.576  12.821  0.00  0.00    +0.000 A 
ATOM      4  C   UNL     1      45.190   6.841  12.551  0.00  0.00    +0.000 A 
ATOM      5  C   UNL     1      46.511   7.135  12.889  0.00  0.00    +0.000 A 
ATOM      6  C   UNL     1      47.291   6.171  13.520  0.00  0.00    +0.000 A 
ATOM      7  F   UNL     1      48.566   6.475  13.814  0.00  0.00    +0.000 F 
ENDROOT
BRANCH   1   8
ATOM      8  O   UNL     1      47.574   4.043  14.517  0.00  0.00    +0.000 OA
BRANCH   8  12
ATOM      9  C   UNL     1      49.012   4.132  18.788  0.00  0.00    +0.000 C 
ATOM     10  C   UNL     1      48.715   4.158  17.298  0.00  0.00    +0.000 C 
ATOM     11  C   UNL     1      47.319   4.740  16.963  0.00  0.00    +0.000 C 
ATOM     12  C   UNL     1      47.188   3.658  15.859  0.00  0.00    +0.000 C 
ATOM     13  C   UNL     1      48.226   2.831  16.657  0.00  0.00    +0.000 C 
BRANCH  10  14
ATOM     14  O   UNL     1      49.833   4.762  16.613  0.00  0.00    +0.000 OA
ATOM     15  H   UNL     1      49.498   5.600  16.249  0.00  0.00    +0.000 HD
ENDBRANCH  10  14
ENDBRANCH   8  12
ENDBRANCH   1   8
BRANCH   3  16
ATOM     16  C   UNL     1      43.236   5.166  12.415  0.00  0.00    +0.000 C 
BRANCH  16  17
ATOM     17  C   UNL     1      43.170   4.394  11.097  0.00  0.00    +0.000 C 
BRANCH  17  18
ATOM     18  N   UNL     1      43.987   4.996  10.041  0.00  0.00    +0.000 N 
ATOM     19  C   UNL     1      44.734   4.007   9.362  0.00  0.00    +0.000 A 
ATOM     20  C   UNL     1      45.569   4.385   8.319  0.00  0.00    +0.000 A 
ATOM     21  C   UNL     1      46.317   3.407   7.654  0.00  0.00    +0.000 A 
ATOM     22  C   UNL     1      46.216   2.070   8.042  0.00  0.00    +0.000 A 
ATOM     23  C   UNL     1      45.350   1.783   9.076  0.00  0.00    +0.000 A 
ATOM     24  N   UNL     1      44.614   2.713   9.729  0.00  0.00    +0.000 NA
ATOM     25  H   UNL     1      44.636   5.691  10.399  0.00  0.00    +0.000 HD
BRANCH  22  26
ATOM     26  C   UNL     1      47.025   1.042   7.358  0.00  0.00    +0.000 C 
ATOM     27  N   UNL     1      46.827  -0.282   7.650  0.00  0.00    +0.000 N 
ATOM     28  O   UNL     1      47.878   1.357   6.534  0.00  0.00    +0.000 OA
ATOM     29  H   UNL     1      46.162  -0.650   8.310  0.00  0.00    +0.000 HD
ATOM     30  H   UNL     1      47.412  -0.942   7.160  0.00  0.00    +0.000 HD
ENDBRANCH  22  26
ENDBRANCH  17  18
ENDBRANCH  16  17
ENDBRANCH   3  16
TORSDOF 7
ENDMDL
MODEL 2
REMARK VINA RESULT:    -8.208      2.156      3.629
REMARK INTER + INTRA:         -12.271
REMARK INTER:                 -11.152
REMARK INTRA:                  -1.120
REMARK UNBOUND:                -0.945
REMARK  Name = 
REMARK  8 active torsions:
REMARK  status: ('A' for Active; 'I' for Inactive)
REMARK    1  A    between atoms: C_1  and  C_2
REMARK    2  A    between atoms: C_2  and  O_3
REMARK    3  A    between atoms: C_5  and  O_6
REMARK    4  A    between atoms: O_6  and  C_7
REMARK    5  A    between atoms: C_9  and  C_10
REMARK    6  A    between atoms: C_10  and  C_11
REMARK    7  A    between atoms: C_11  and  N_12
REMARK    8  A    between atoms: C_16  and  C_17
REMARK                            x       y       z     vdW  Elec       q    Type
REMARK                         _______ _______ _______ _____ _____    ______ ____
ROOT
ATOM      1  C   UNL     1      46.452   6.808  13.270  0.00  0.00    +0.000 A 
ATOM      2  C   UNL     1      45.153   6.598  12.796  0.00  0.00    +0.000 A 
ATOM      3  C   UNL     1      44.596   5.307  12.758  0.00  0.00    +0.000 A 
ATOM      4  C   UNL     1      45.382   4.229  13.196  0.00  0.00    +0.000 A 
ATOM      5  C   UNL     1      46.668   4.437  13.696  0.00  0.00    +0.000 A 
ATOM      6  C   UNL     1      47.188   5.727  13.743  0.00  0.00    +0.000 A 
ATOM      7  F   UNL     1      48.420   5.900  14.250  0.00  0.00    +0.000 F 
ENDROOT
BRANCH   1   8
ATOM      8  O   UNL     1      47.050   8.048  13.299  0.00  0.00    +0.000 OA
BRANCH   8  12
ATOM      9  C   UNL     1      51.004   9.025  11.368  0.00  0.00    +0.000 C 
ATOM     10  C   UNL     1      49.775   8.679  12.192  0.00  0.00    +0.000 C 
ATOM     11  C   UNL     1      48.795   7.730  11.458  0.00  0.00    +0.000 C 
ATOM     12  C   UNL     1      47.625   8.547  12.068  0.00  0.00    +0.000 C 
ATOM     13  C   UNL     1      48.624   9.722  12.208  0.00  0.00    +0.000 C 
BRANCH  10  14
ATOM     14  O   UNL     1      50.202   8.257  13.505  0.00  0.00    +0.000 OA
ATOM     15  H   UNL     1      49.603   7.533  13.757  0.00  0.00    +0.000 HD
ENDBRANCH  10  14
ENDBRANCH   8  12
ENDBRANCH   1   8
BRANCH   3  16
ATOM     16  C   UNL     1      43.164   5.160  12.272  0.00  0.00    +0.000 C 
BRANCH  16  17
ATOM     17  C   UNL     1      43.038   4.476  10.911  0.00  0.00    +0.000 C 
BRANCH  17  18
ATOM     18  N   UNL     1      43.922   5.055   9.896  0.00  0.00    +0.000 N 
ATOM     19  C   UNL     1      44.687   4.048   9.268  0.00  0.00    +0.000 A 
ATOM     20  C   UNL     1      45.585   4.403   8.269  0.00  0.00    +0.000 A 
ATOM     21  C   UNL     1      46.352   3.407   7.654  0.00  0.00    +0.000 A 
ATOM     22  C   UNL     1      46.207   2.075   8.047  0.00  0.00    +0.000 A 
ATOM     23  C   UNL     1      45.280   1.811   9.033  0.00  0.00    +0.000 A 
ATOM     24  N   UNL     1      44.526   2.759   9.638  0.00  0.00    +0.000 NA
ATOM     25  H   UNL     1      44.561   5.743  10.284  0.00  0.00    +0.000 HD
BRANCH  22  26
ATOM     26  C   UNL     1      47.035   1.029   7.415  0.00  0.00    +0.000 C 
ATOM     27  N   UNL     1      46.768  -0.291   7.669  0.00  0.00    +0.000 N 
ATOM     28  O   UNL     1      47.965   1.323   6.672  0.00  0.00    +0.000 OA
ATOM     29  H   UNL     1      46.037  -0.644   8.265  0.00  0.00    +0.000 HD
ATOM     30  H   UNL     1      47.369  -0.966   7.219  0.00  0.00    +0.000 HD
ENDBRANCH  22  26
ENDBRANCH  17  18
ENDBRANCH  16  17
ENDBRANCH   3  16
TORSDOF 7
ENDMDL
MODEL 3
REMARK VINA RESULT:    -7.157      3.229      4.049
REMARK INTER + INTRA:         -10.821
REMARK INTER:                  -9.998
REMARK INTRA:                  -0.823
REMARK UNBOUND:                -0.945
REMARK  Name = 
REMARK  8 active torsions:
REMARK  status: ('A' for Active; 'I' for Inactive)
REMARK    1  A    between atoms: C_1  and  C_2
REMARK    2  A    between atoms: C_2  and  O_3
REMARK    3  A    between atoms: C_5  and  O_6
REMARK    4  A    between atoms: O_6  and  C_7
REMARK    5  A    between atoms: C_9  and  C_10
REMARK    6  A    between atoms: C_10  and  C_11
REMARK    7  A    between atoms: C_11  and  N_12
REMARK    8  A    between atoms: C_16  and  C_17
REMARK                            x       y       z     vdW  Elec       q    Type
REMARK                         _______ _______ _______ _____ _____    ______ ____
ROOT
ATOM      1  C   UNL     1      46.253   8.280  12.901  0.00  0.00    +0.000 A 
ATOM      2  C   UNL     1      45.717   6.989  12.865  0.00  0.00    +0.000 A 
ATOM      3  C   UNL     1      44.584   6.697  12.086  0.00  0.00    +0.000 A 
ATOM      4  C   UNL     1      43.992   7.739  11.353  0.00  0.00    +0.000 A 
ATOM      5  C   UNL     1      44.541   9.021  11.362  0.00  0.00    +0.000 A 
ATOM      6  C   UNL     1      45.676   9.280  12.124  0.00  0.00    +0.000 A 
ATOM      7  F   UNL     1      46.195  10.518  12.096  0.00  0.00    +0.000 F 
ENDROOT
BRANCH   1   8
ATOM      8  O   UNL     1      47.343   8.621  13.670  0.00  0.00    +0.000 OA
BRANCH   8  12
ATOM      9  C   UNL     1      51.197   8.502  11.336  0.00  0.00    +0.000 C 
ATOM     10  C   UNL     1      49.840   8.687  11.993  0.00  0.00    +0.000 C 
ATOM     11  C   UNL     1      49.896   8.619  13.541  0.00  0.00    +0.000 C 
ATOM     12  C   UNL     1      48.553   7.843  13.505  0.00  0.00    +0.000 C 
ATOM     13  C   UNL     1      48.914   7.441  12.054  0.00  0.00    +0.000 C 
BRANCH  10  14
ATOM     14  O   UNL     1      49.210   9.859  11.434  0.00  0.00    +0.000 OA
ATOM     15  H   UNL     1      49.862  10.576  11.521  0.00  0.00    +0.000 HD
ENDBRANCH  10  14
ENDBRANCH   8  12
ENDBRANCH   1   8
BRANCH   3  16
ATOM     16  C   UNL     1      44.082   5.263  12.063  0.00  0.00    +0.000 C 
BRANCH  16  17
ATOM     17  C   UNL     1      43.568   4.807  10.697  0.00  0.00    +0.000 C 
BRANCH  17  18
ATOM     18  N   UNL     1      43.741   3.370  10.473  0.00  0.00    +0.000 N 
ATOM     19  C   UNL     1      44.708   3.134   9.470  0.00  0.00    +0.000 A 
ATOM     20  C   UNL     1      45.016   1.826   9.118  0.00  0.00    +0.000 A 
ATOM     21  C   UNL     1      45.965   1.592   8.117  0.00  0.00    +0.000 A 
ATOM     22  C   UNL     1      46.591   2.669   7.487  0.00  0.00    +0.000 A 
ATOM     23  C   UNL     1      46.238   3.933   7.911  0.00  0.00    +0.000 A 
ATOM     24  N   UNL     1      45.325   4.180   8.880  0.00  0.00    +0.000 NA
ATOM     25  H   UNL     1      42.878   2.912  10.192  0.00  0.00    +0.000 HD
BRANCH  22  26
ATOM     26  C   UNL     1      47.573   2.423   6.413  0.00  0.00    +0.000 C 
ATOM     27  N   UNL     1      47.405   3.018   5.190  0.00  0.00    +0.000 N 
ATOM     28  O   UNL     1      48.536   1.686   6.597  0.00  0.00    +0.000 OA
ATOM     29  H   UNL     1      46.651   3.633   4.930  0.00  0.00    +0.000 HD
ATOM     30  H   UNL     1      48.100   2.809   4.489  0.00  0.00    +0.000 HD
ENDBRANCH  22  26
ENDBRANCH  17  18
ENDBRANCH  16  17
ENDBRANCH   3  16
TORSDOF 7
ENDMDL
MODEL 4
REMARK VINA RESULT:    -7.156      2.005      2.508
REMARK INTER + INTRA:         -10.820
REMARK INTER:                 -10.224
REMARK INTRA:                  -0.596
REMARK UNBOUND:                -0.945
REMARK  Name = 
REMARK  8 active torsions:
REMARK  status: ('A' for Active; 'I' for Inactive)
REMARK    1  A    between atoms: C_1  and  C_2
REMARK    2  A    between atoms: C_2  and  O_3
REMARK    3  A    between atoms: C_5  and  O_6
REMARK    4  A    between atoms: O_6  and  C_7
REMARK    5  A    between atoms: C_9  and  C_10
REMARK    6  A    between atoms: C_10  and  C_11
REMARK    7  A    between atoms: C_11  and  N_12
REMARK    8  A    between atoms: C_16  and  C_17
REMARK                            x       y       z     vdW  Elec       q    Type
REMARK                         _______ _______ _______ _____ _____    ______ ____
ROOT
ATOM      1  C   UNL     1      47.532   6.621  12.843  0.00  0.00    +0.000 A 
ATOM      2  C   UNL     1      46.482   5.699  12.895  0.00  0.00    +0.000 A 
ATOM      3  C   UNL     1      45.215   6.015  12.373  0.00  0.00    +0.000 A 
ATOM      4  C   UNL     1      45.024   7.288  11.810  0.00  0.00    +0.000 A 
ATOM      5  C   UNL     1      46.077   8.200  11.730  0.00  0.00    +0.000 A 
ATOM      6  C   UNL     1      47.327   7.854  12.234  0.00  0.00    +0.000 A 
ATOM      7  F   UNL     1      48.327   8.745  12.124  0.00  0.00    +0.000 F 
ENDROOT
BRANCH   1   8
ATOM      8  O   UNL     1      48.781   6.368  13.366  0.00  0.00    +0.000 OA
BRANCH   8  12
ATOM      9  C   UNL     1      48.884   7.105  17.811  0.00  0.00    +0.000 C 
ATOM     10  C   UNL     1      48.708   6.717  16.353  0.00  0.00    +0.000 C 
ATOM     11  C   UNL     1      50.044   6.672  15.567  0.00  0.00    +0.000 C 
ATOM     12  C   UNL     1      49.295   7.290  14.357  0.00  0.00    +0.000 C 
ATOM     13  C   UNL     1      48.266   7.840  15.375  0.00  0.00    +0.000 C 
BRANCH  10  14
ATOM     14  O   UNL     1      47.894   5.527  16.285  0.00  0.00    +0.000 OA
ATOM     15  H   UNL     1      47.921   5.137  17.176  0.00  0.00    +0.000 HD
ENDBRANCH  10  14
ENDBRANCH   8  12
ENDBRANCH   1   8
BRANCH   3  16
ATOM     16  C   UNL     1      44.133   4.949  12.425  0.00  0.00    +0.000 C 
BRANCH  16  17
ATOM     17  C   UNL     1      43.605   4.533  11.052  0.00  0.00    +0.000 C 
BRANCH  17  18
ATOM     18  N   UNL     1      43.889   3.132  10.732  0.00  0.00    +0.000 N 
ATOM     19  C   UNL     1      44.755   3.040   9.619  0.00  0.00    +0.000 A 
ATOM     20  C   UNL     1      45.144   1.786   9.165  0.00  0.00    +0.000 A 
ATOM     21  C   UNL     1      45.992   1.693   8.057  0.00  0.00    +0.000 A 
ATOM     22  C   UNL     1      46.437   2.855   7.422  0.00  0.00    +0.000 A 
ATOM     23  C   UNL     1      46.015   4.057   7.950  0.00  0.00    +0.000 A 
ATOM     24  N   UNL     1      45.198   4.168   9.024  0.00  0.00    +0.000 NA
ATOM     25  H   UNL     1      43.047   2.602  10.522  0.00  0.00    +0.000 HD
BRANCH  22  26
ATOM     26  C   UNL     1      47.311   2.757   6.237  0.00  0.00    +0.000 C 
ATOM     27  N   UNL     1      48.651   2.518   6.400  0.00  0.00    +0.000 N 
ATOM     28  O   UNL     1      46.857   2.892   5.106  0.00  0.00    +0.000 OA
ATOM     29  H   UNL     1      49.128   2.397   7.279  0.00  0.00    +0.000 HD
ATOM     30  H   UNL     1      49.204   2.468   5.558  0.00  0.00    +0.000 HD
ENDBRANCH  22  26
ENDBRANCH  17  18
ENDBRANCH  16  17
ENDBRANCH   3  16
TORSDOF 7
ENDMDL
MODEL 5
REMARK VINA RESULT:    -6.706      3.889      7.811
REMARK INTER + INTRA:         -10.200
REMARK INTER:                  -9.226
REMARK INTRA:                  -0.974
REMARK UNBOUND:                -0.945
REMARK  Name = 
REMARK  8 active torsions:
REMARK  status: ('A' for Active; 'I' for Inactive)
REMARK    1  A    between atoms: C_1  and  C_2
REMARK    2  A    between atoms: C_2  and  O_3
REMARK    3  A    between atoms: C_5  and  O_6
REMARK    4  A    between atoms: O_6  and  C_7
REMARK    5  A    between atoms: C_9  and  C_10
REMARK    6  A    between atoms: C_10  and  C_11
REMARK    7  A    between atoms: C_11  and  N_12
REMARK    8  A    between atoms: C_16  and  C_17
REMARK                            x       y       z     vdW  Elec       q    Type
REMARK                         _______ _______ _______ _____ _____    ______ ____
ROOT
ATOM      1  C   UNL     1      45.395   7.616  11.742  0.00  0.00    +0.000 A 
ATOM      2  C   UNL     1      46.688   7.732  12.263  0.00  0.00    +0.000 A 
ATOM      3  C   UNL     1      47.275   8.993  12.468  0.00  0.00    +0.000 A 
ATOM      4  C   UNL     1      46.536  10.137  12.124  0.00  0.00    +0.000 A 
ATOM      5  C   UNL     1      45.236  10.026  11.631  0.00  0.00    +0.000 A 
ATOM      6  C   UNL     1      44.669   8.767  11.458  0.00  0.00    +0.000 A 
ATOM      7  F   UNL     1      43.408   8.693  11.002  0.00  0.00    +0.000 F 
ENDROOT
BRANCH   1   8
ATOM      8  O   UNL     1      44.789   6.404  11.497  0.00  0.00    +0.000 OA
BRANCH   8  12
ATOM      9  C   UNL     1      44.925   3.114   8.419  0.00  0.00    +0.000 C 
ATOM     10  C   UNL     1      44.684   4.245   9.405  0.00  0.00    +0.000 C 
ATOM     11  C   UNL     1      45.870   5.239   9.495  0.00  0.00    +0.000 C 
ATOM     12  C   UNL     1      45.622   5.318  11.025  0.00  0.00    +0.000 C 
ATOM     13  C   UNL     1      44.937   3.934  10.906  0.00  0.00    +0.000 C 
BRANCH  10  14
ATOM     14  O   UNL     1      43.391   4.826   9.137  0.00  0.00    +0.000 OA
ATOM     15  H   UNL     1      43.294   5.559   9.770  0.00  0.00    +0.000 HD
ENDBRANCH  10  14
ENDBRANCH   8  12
ENDBRANCH   1   8
BRANCH   3  16
ATOM     16  C   UNL     1      48.666   9.044  13.078  0.00  0.00    +0.000 C 
BRANCH  16  17
ATOM     17  C   UNL     1      49.282   7.670  13.337  0.00  0.00    +0.000 C 
BRANCH  17  18
ATOM     18  N   UNL     1      49.938   7.575  14.643  0.00  0.00    +0.000 N 
ATOM     19  C   UNL     1      49.358   6.546  15.419  0.00  0.00    +0.000 A 
ATOM     20  C   UNL     1      49.851   6.299  16.694  0.00  0.00    +0.000 A 
ATOM     21  C   UNL     1      49.270   5.289  17.468  0.00  0.00    +0.000 A 
ATOM     22  C   UNL     1      48.208   4.543  16.953  0.00  0.00    +0.000 A 
ATOM     23  C   UNL     1      47.794   4.844  15.673  0.00  0.00    +0.000 A 
ATOM     24  N   UNL     1      48.345   5.815  14.907  0.00  0.00    +0.000 NA
ATOM     25  H   UNL     1      49.880   8.440  15.172  0.00  0.00    +0.000 HD
BRANCH  22  26
ATOM     26  C   UNL     1      47.578   3.494  17.780  0.00  0.00    +0.000 C 
ATOM     27  N   UNL     1      48.195   3.076  18.930  0.00  0.00    +0.000 N 
ATOM     28  O   UNL     1      46.512   2.985  17.448  0.00  0.00    +0.000 OA
ATOM     29  H   UNL     1      49.071   3.419  19.291  0.00  0.00    +0.000 HD
ATOM     30  H   UNL     1      47.726   2.351  19.453  0.00  0.00    +0.000 HD
ENDBRANCH  22  26
ENDBRANCH  17  18
ENDBRANCH  16  17
ENDBRANCH   3  16
TORSDOF 7
ENDMDL
MODEL 6
REMARK VINA RESULT:    -6.510      4.631      7.626
REMARK INTER + INTRA:          -9.929
REMARK INTER:                  -8.667
REMARK INTRA:                  -1.262
REMARK UNBOUND:                -0.945
REMARK  Name = 
REMARK  8 active torsions:
REMARK  status: ('A' for Active; 'I' for Inactive)
REMARK    1  A    between atoms: C_1  and  C_2
REMARK    2  A    between atoms: C_2  and  O_3
REMARK    3  A    between atoms: C_5  and  O_6
REMARK    4  A    between atoms: O_6  and  C_7
REMARK    5  A    between atoms: C_9  and  C_10
REMARK    6  A    between atoms: C_10  and  C_11
REMARK    7  A    between atoms: C_11  and  N_12
REMARK    8  A    between atoms: C_16  and  C_17
REMARK                            x       y       z     vdW  Elec       q    Type
REMARK                         _______ _______ _______ _____ _____    ______ ____
ROOT
ATOM      1  C   UNL     1      47.950   7.999  13.259  0.00  0.00    +0.000 A 
ATOM      2  C   UNL     1      47.641   8.448  14.547  0.00  0.00    +0.000 A 
ATOM      3  C   UNL     1      48.656   8.781  15.461  0.00  0.00    +0.000 A 
ATOM      4  C   UNL     1      49.993   8.640  15.053  0.00  0.00    +0.000 A 
ATOM      5  C   UNL     1      50.306   8.220  13.760  0.00  0.00    +0.000 A 
ATOM      6  C   UNL     1      49.282   7.917  12.867  0.00  0.00    +0.000 A 
ATOM      7  F   UNL     1      49.613   7.537  11.623  0.00  0.00    +0.000 F 
ENDROOT
BRANCH   1   8
ATOM      8  O   UNL     1      46.992   7.633  12.340  0.00  0.00    +0.000 OA
BRANCH   8  12
ATOM      9  C   UNL     1      44.158   4.154  12.752  0.00  0.00    +0.000 C 
ATOM     10  C   UNL     1      44.991   5.424  12.741  0.00  0.00    +0.000 C 
ATOM     11  C   UNL     1      45.546   5.779  11.338  0.00  0.00    +0.000 C 
ATOM     12  C   UNL     1      46.862   6.226  12.027  0.00  0.00    +0.000 C 
ATOM     13  C   UNL     1      46.468   5.299  13.204  0.00  0.00    +0.000 C 
BRANCH  10  14
ATOM     14  O   UNL     1      44.253   6.468  13.412  0.00  0.00    +0.000 OA
ATOM     15  H   UNL     1      43.315   6.293  13.221  0.00  0.00    +0.000 HD
ENDBRANCH  10  14
ENDBRANCH   8  12
ENDBRANCH   1   8
BRANCH   3  16
ATOM     16  C   UNL     1      48.246   9.303  16.828  0.00  0.00    +0.000 C 
BRANCH  16  17
ATOM     17  C   UNL     1      48.602   8.367  17.983  0.00  0.00    +0.000 C 
BRANCH  17  18
ATOM     18  N   UNL     1      47.630   7.286  18.163  0.00  0.00    +0.000 N 
ATOM     19  C   UNL     1      48.224   6.032  17.897  0.00  0.00    +0.000 A 
ATOM     20  C   UNL     1      47.457   4.880  18.019  0.00  0.00    +0.000 A 
ATOM     21  C   UNL     1      48.040   3.638  17.745  0.00  0.00    +0.000 A 
ATOM     22  C   UNL     1      49.379   3.570  17.354  0.00  0.00    +0.000 A 
ATOM     23  C   UNL     1      50.069   4.761  17.275  0.00  0.00    +0.000 A 
ATOM     24  N   UNL     1      49.524   5.972  17.540  0.00  0.00    +0.000 NA
ATOM     25  H   UNL     1      46.819   7.387  17.559  0.00  0.00    +0.000 HD
BRANCH  22  26
ATOM     26  C   UNL     1      49.987   2.262  17.040  0.00  0.00    +0.000 C 
ATOM     27  N   UNL     1      50.904   1.717  17.900  0.00  0.00    +0.000 N 
ATOM     28  O   UNL     1      49.689   1.658  16.015  0.00  0.00    +0.000 OA
ATOM     29  H   UNL     1      51.225   2.127  18.762  0.00  0.00    +0.000 HD
ATOM     30  H   UNL     1      51.295   0.825  17.634  0.00  0.00    +0.000 HD
ENDBRANCH  22  26
ENDBRANCH  17  18
ENDBRANCH  16  17
ENDBRANCH   3  16
TORSDOF 7
ENDMDL
MODEL 7
REMARK VINA RESULT:    -6.445      4.006      6.507
REMARK INTER + INTRA:          -9.840
REMARK INTER:                  -8.368
REMARK INTRA:                  -1.471
REMARK UNBOUND:                -0.945
REMARK  Name = 
REMARK  8 active torsions:
REMARK  status: ('A' for Active; 'I' for Inactive)
REMARK    1  A    between atoms: C_1  and  C_2
REMARK    2  A    between atoms: C_2  and  O_3
REMARK    3  A    between atoms: C_5  and  O_6
REMARK    4  A    between atoms: O_6  and  C_7
REMARK    5  A    between atoms: C_9  and  C_10
REMARK    6  A    between atoms: C_10  and  C_11
REMARK    7  A    between atoms: C_11  and  N_12
REMARK    8  A    between atoms: C_16  and  C_17
REMARK                            x       y       z     vdW  Elec       q    Type
REMARK                         _______ _______ _______ _____ _____    ______ ____
ROOT
ATOM      1  C   UNL     1      45.748   4.659  13.458  0.00  0.00    +0.000 A 
ATOM      2  C   UNL     1      45.762   6.050  13.320  0.00  0.00    +0.000 A 
ATOM      3  C   UNL     1      45.436   6.661  12.096  0.00  0.00    +0.000 A 
ATOM      4  C   UNL     1      45.109   5.836  11.007  0.00  0.00    +0.000 A 
ATOM      5  C   UNL     1      45.065   4.449  11.148  0.00  0.00    +0.000 A 
ATOM      6  C   UNL     1      45.371   3.871  12.376  0.00  0.00    +0.000 A 
ATOM      7  F   UNL     1      45.300   2.534  12.487  0.00  0.00    +0.000 F 
ENDROOT
BRANCH   1   8
ATOM      8  O   UNL     1      46.086   4.015  14.627  0.00  0.00    +0.000 OA
BRANCH   8  12
ATOM      9  C   UNL     1      48.630   3.243  18.267  0.00  0.00    +0.000 C 
ATOM     10  C   UNL     1      47.616   3.442  17.153  0.00  0.00    +0.000 C 
ATOM     11  C   UNL     1      48.145   3.011  15.761  0.00  0.00    +0.000 C 
ATOM     12  C   UNL     1      47.414   4.239  15.159  0.00  0.00    +0.000 C 
ATOM     13  C   UNL     1      47.486   4.875  16.569  0.00  0.00    +0.000 C 
BRANCH  10  14
ATOM     14  O   UNL     1      46.360   2.858  17.560  0.00  0.00    +0.000 OA
ATOM     15  H   UNL     1      45.866   2.695  16.738  0.00  0.00    +0.000 HD
ENDBRANCH  10  14
ENDBRANCH   8  12
ENDBRANCH   1   8
BRANCH   3  16
ATOM     16  C   UNL     1      45.430   8.179  12.032  0.00  0.00    +0.000 C 
BRANCH  16  17
ATOM     17  C   UNL     1      46.791   8.817  12.310  0.00  0.00    +0.000 C 
BRANCH  17  18
ATOM     18  N   UNL     1      46.909   9.340  13.673  0.00  0.00    +0.000 N 
ATOM     19  C   UNL     1      47.951   8.688  14.369  0.00  0.00    +0.000 A 
ATOM     20  C   UNL     1      48.221   9.052  15.682  0.00  0.00    +0.000 A 
ATOM     21  C   UNL     1      49.245   8.399  16.377  0.00  0.00    +0.000 A 
ATOM     22  C   UNL     1      49.982   7.395  15.745  0.00  0.00    +0.000 A 
ATOM     23  C   UNL     1      49.658   7.110  14.436  0.00  0.00    +0.000 A 
ATOM     24  N   UNL     1      48.674   7.733  13.746  0.00  0.00    +0.000 NA
ATOM     25  H   UNL     1      46.053   9.228  14.209  0.00  0.00    +0.000 HD
BRANCH  22  26
ATOM     26  C   UNL     1      51.046   6.688  16.486  0.00  0.00    +0.000 C 
ATOM     27  N   UNL     1      52.124   7.390  16.959  0.00  0.00    +0.000 N 
ATOM     28  O   UNL     1      50.982   5.479  16.680  0.00  0.00    +0.000 OA
ATOM     29  H   UNL     1      52.280   8.380  16.852  0.00  0.00    +0.000 HD
ATOM     30  H   UNL     1      52.826   6.858  17.451  0.00  0.00    +0.000 HD
ENDBRANCH  22  26
ENDBRANCH  17  18
ENDBRANCH  16  17
ENDBRANCH   3  16
TORSDOF 7
ENDMDL
MODEL 8
REMARK VINA RESULT:    -6.203      2.269      3.596
REMARK INTER + INTRA:          -9.505
REMARK INTER:                  -8.899
REMARK INTRA:                  -0.606
REMARK UNBOUND:                -0.945
REMARK  Name = 
REMARK  8 active torsions:
REMARK  status: ('A' for Active; 'I' for Inactive)
REMARK    1  A    between atoms: C_1  and  C_2
REMARK    2  A    between atoms: C_2  and  O_3
REMARK    3  A    between atoms: C_5  and  O_6
REMARK    4  A    between atoms: O_6  and  C_7
REMARK    5  A    between atoms: C_9  and  C_10
REMARK    6  A    between atoms: C_10  and  C_11
REMARK    7  A    between atoms: C_11  and  N_12
REMARK    8  A    between atoms: C_16  and  C_17
REMARK                            x       y       z     vdW  Elec       q    Type
REMARK                         _______ _______ _______ _____ _____    ______ ____
ROOT
ATOM      1  C   UNL     1      49.438   6.991  15.461  0.00  0.00    +0.000 A 
ATOM      2  C   UNL     1      48.627   6.909  14.325  0.00  0.00    +0.000 A 
ATOM      3  C   UNL     1      47.990   8.049  13.805  0.00  0.00    +0.000 A 
ATOM      4  C   UNL     1      48.177   9.275  14.464  0.00  0.00    +0.000 A 
ATOM      5  C   UNL     1      49.008   9.368  15.581  0.00  0.00    +0.000 A 
ATOM      6  C   UNL     1      49.644   8.228  16.063  0.00  0.00    +0.000 A 
ATOM      7  F   UNL     1      50.455   8.352  17.126  0.00  0.00    +0.000 F 
ENDROOT
BRANCH   1   8
ATOM      8  O   UNL     1      50.059   5.899  16.023  0.00  0.00    +0.000 OA
BRANCH   8  12
ATOM      9  C   UNL     1      47.261   2.765  17.655  0.00  0.00    +0.000 C 
ATOM     10  C   UNL     1      48.128   3.775  16.923  0.00  0.00    +0.000 C 
ATOM     11  C   UNL     1      49.576   3.848  17.470  0.00  0.00    +0.000 C 
ATOM     12  C   UNL     1      49.523   5.385  17.266  0.00  0.00    +0.000 C 
ATOM     13  C   UNL     1      47.981   5.263  17.345  0.00  0.00    +0.000 C 
BRANCH  10  14
ATOM     14  O   UNL     1      48.000   3.553  15.502  0.00  0.00    +0.000 OA
ATOM     15  H   UNL     1      47.065   3.721  15.293  0.00  0.00    +0.000 HD
ENDBRANCH  10  14
ENDBRANCH   8  12
ENDBRANCH   1   8
BRANCH   3  16
ATOM     16  C   UNL     1      47.159   7.893  12.543  0.00  0.00    +0.000 C 
BRANCH  16  17
ATOM     17  C   UNL     1      45.657   7.776  12.798  0.00  0.00    +0.000 C 
BRANCH  17  18
ATOM     18  N   UNL     1      45.257   6.442  13.252  0.00  0.00    +0.000 N 
ATOM     19  C   UNL     1      45.168   5.549  12.161  0.00  0.00    +0.000 A 
ATOM     20  C   UNL     1      44.804   4.229  12.393  0.00  0.00    +0.000 A 
ATOM     21  C   UNL     1      44.705   3.347  11.311  0.00  0.00    +0.000 A 
ATOM     22  C   UNL     1      44.971   3.800  10.017  0.00  0.00    +0.000 A 
ATOM     23  C   UNL     1      45.342   5.121   9.881  0.00  0.00    +0.000 A 
ATOM     24  N   UNL     1      45.447   5.989  10.915  0.00  0.00    +0.000 NA
ATOM     25  H   UNL     1      44.360   6.446  13.731  0.00  0.00    +0.000 HD
BRANCH  22  26
ATOM     26  C   UNL     1      44.841   2.876   8.874  0.00  0.00    +0.000 C 
ATOM     27  N   UNL     1      44.835   1.523   9.093  0.00  0.00    +0.000 N 
ATOM     28  O   UNL     1      44.745   3.301   7.727  0.00  0.00    +0.000 OA
ATOM     29  H   UNL     1      44.913   1.067   9.988  0.00  0.00    +0.000 HD
ATOM     30  H   UNL     1      44.751   0.936   8.276  0.00  0.00    +0.000 HD
ENDBRANCH  22  26
ENDBRANCH  17  18
ENDBRANCH  16  17
ENDBRANCH   3  16
TORSDOF 7
ENDMDL
MODEL 9
REMARK VINA RESULT:    -6.188      3.932      5.633
REMARK INTER + INTRA:          -9.484
REMARK INTER:                  -8.659
REMARK INTRA:                  -0.825
REMARK UNBOUND:                -0.945
REMARK  Name = 
REMARK  8 active torsions:
REMARK  status: ('A' for Active; 'I' for Inactive)
REMARK    1  A    between atoms: C_1  and  C_2
REMARK    2  A    between atoms: C_2  and  O_3
REMARK    3  A    between atoms: C_5  and  O_6
REMARK    4  A    between atoms: O_6  and  C_7
REMARK    5  A    between atoms: C_9  and  C_10
REMARK    6  A    between atoms: C_10  and  C_11
REMARK    7  A    between atoms: C_11  and  N_12
REMARK    8  A    between atoms: C_16  and  C_17
REMARK                            x       y       z     vdW  Elec       q    Type
REMARK                         _______ _______ _______ _____ _____    ______ ____
ROOT
ATOM      1  C   UNL     1      45.655   4.664  13.420  0.00  0.00    +0.000 A 
ATOM      2  C   UNL     1      45.610   6.054  13.278  0.00  0.00    +0.000 A 
ATOM      3  C   UNL     1      45.258   6.647  12.053  0.00  0.00    +0.000 A 
ATOM      4  C   UNL     1      44.965   5.806  10.966  0.00  0.00    +0.000 A 
ATOM      5  C   UNL     1      44.979   4.419  11.111  0.00  0.00    +0.000 A 
ATOM      6  C   UNL     1      45.310   3.857  12.341  0.00  0.00    +0.000 A 
ATOM      7  F   UNL     1      45.294   2.519  12.456  0.00  0.00    +0.000 F 
ENDROOT
BRANCH   1   8
ATOM      8  O   UNL     1      46.021   4.038  14.591  0.00  0.00    +0.000 OA
BRANCH   8  12
ATOM      9  C   UNL     1      48.689   3.277  18.143  0.00  0.00    +0.000 C 
ATOM     10  C   UNL     1      47.636   3.482  17.067  0.00  0.00    +0.000 C 
ATOM     11  C   UNL     1      48.088   2.990  15.668  0.00  0.00    +0.000 C 
ATOM     12  C   UNL     1      47.378   4.228  15.059  0.00  0.00    +0.000 C 
ATOM     13  C   UNL     1      47.534   4.901  16.445  0.00  0.00    +0.000 C 
BRANCH  10  14
ATOM     14  O   UNL     1      46.378   2.959  17.544  0.00  0.00    +0.000 OA
ATOM     15  H   UNL     1      45.956   3.689  18.029  0.00  0.00    +0.000 HD
ENDBRANCH  10  14
ENDBRANCH   8  12
ENDBRANCH   1   8
BRANCH   3  16
ATOM     16  C   UNL     1      45.189   8.163  11.984  0.00  0.00    +0.000 C 
BRANCH  16  17
ATOM     17  C   UNL     1      46.041   8.872  13.037  0.00  0.00    +0.000 C 
BRANCH  17  18
ATOM     18  N   UNL     1      46.849   9.960  12.480  0.00  0.00    +0.000 N 
ATOM     19  C   UNL     1      48.132   9.493  12.116  0.00  0.00    +0.000 A 
ATOM     20  C   UNL     1      49.045  10.381  11.563  0.00  0.00    +0.000 A 
ATOM     21  C   UNL     1      50.319   9.923  11.213  0.00  0.00    +0.000 A 
ATOM     22  C   UNL     1      50.658   8.584  11.422  0.00  0.00    +0.000 A 
ATOM     23  C   UNL     1      49.685   7.769  11.960  0.00  0.00    +0.000 A 
ATOM     24  N   UNL     1      48.445   8.193  12.301  0.00  0.00    +0.000 NA
ATOM     25  H   UNL     1      46.966  10.731  13.131  0.00  0.00    +0.000 HD
BRANCH  22  26
ATOM     26  C   UNL     1      52.012   8.107  11.077  0.00  0.00    +0.000 C 
ATOM     27  N   UNL     1      52.172   6.857  10.539  0.00  0.00    +0.000 N 
ATOM     28  O   UNL     1      52.997   8.810  11.273  0.00  0.00    +0.000 OA
ATOM     29  H   UNL     1      51.437   6.197  10.343  0.00  0.00    +0.000 HD
ATOM     30  H   UNL     1      53.119   6.576  10.329  0.00  0.00    +0.000 HD
ENDBRANCH  22  26
ENDBRANCH  17  18
ENDBRANCH  16  17
ENDBRANCH   3  16
TORSDOF 7
ENDMDL
