MODEL 1
REMARK VINA RESULT:    -9.325      0.000      0.000
REMARK INTER + INTRA:         -13.415
REMARK INTER:                 -12.324
REMARK INTRA:                  -1.091
REMARK UNBOUND:                -1.091
REMARK  Name = 
REMARK  6 active torsions:
REMARK  status: ('A' for Active; 'I' for Inactive)
REMARK    1  A    between atoms: C_2  and  C_4
REMARK    2  A    between atoms: N_8  and  C_9
REMARK    3  A    between atoms: C_9  and  C_10
REMARK    4  A    between atoms: C_10  and  C_13
REMARK    5  A    between atoms: C_17  and  N_18
REMARK    6  A    between atoms: C_22  and  O_23
REMARK                            x       y       z     vdW  Elec       q    Type
REMARK                         _______ _______ _______ _____ _____    ______ ____
ROOT
ATOM      1  C   UNL     1      43.530   5.565  12.154  0.00  0.00    +0.000 C 
ATOM      2  F   UNL     1      43.339   6.771  11.537  0.00  0.00    +0.000 F 
ATOM      3  F   UNL     1      42.599   5.525  13.156  0.00  0.00    +0.000 F 
ENDROOT
BRANCH   1   4
ATOM      4  C   UNL     1      44.939   5.424  12.699  0.00  0.00    +0.000 A 
ATOM      5  C   UNL     1      45.398   4.204  13.200  0.00  0.00    +0.000 A 
ATOM      6  C   UNL     1      46.705   4.094  13.662  0.00  0.00    +0.000 A 
ATOM      7  C   UNL     1      47.565   5.198  13.614  0.00  0.00    +0.000 A 
ATOM      8  C   UNL     1      47.153   6.441  13.111  0.00  0.00    +0.000 A 
ATOM      9  C   UNL     1      45.817   6.528  12.684  0.00  0.00    +0.000 A 
BRANCH   8  10
ATOM     10  N   UNL     1      48.030   7.502  12.991  0.00  0.00    +0.000 N 
ATOM     11  C   UNL     1      48.510   7.971  11.686  0.00  0.00    +0.000 C 
ATOM     12  C   UNL     1      50.040   8.025  11.700  0.00  0.00    +0.000 C 
ATOM     13  C   UNL     1      50.575   8.832  12.883  0.00  0.00    +0.000 C 
ATOM     14  C   UNL     1      49.976   8.365  14.212  0.00  0.00    +0.000 C 
ATOM     15  C   UNL     1      48.438   8.330  14.141  0.00  0.00    +0.000 C 
BRANCH  14  16
ATOM     16  O   UNL     1      50.469   7.055  14.514  0.00  0.00    +0.000 OA
ATOM     17  H   UNL     1      51.370   7.193  14.869  0.00  0.00    +0.000 HD
ENDBRANCH  14  16
ENDBRANCH   8  10
ENDBRANCH   1   4
BRANCH   1  18
ATOM     18  C   UNL     1      43.207   4.446  11.131  0.00  0.00    +0.000 C 
BRANCH  18  23
ATOM     19  C   UNL     1      46.459   2.509   7.696  0.00  0.00    +0.000 A 
ATOM     20  C   UNL     1      45.637   1.857   8.608  0.00  0.00    +0.000 A 
ATOM     21  C   UNL     1      44.713   2.601   9.343  0.00  0.00    +0.000 A 
ATOM     22  C   UNL     1      44.635   3.981   9.165  0.00  0.00    +0.000 A 
ATOM     23  N   UNL     1      43.675   4.761   9.772  0.00  0.00    +0.000 N 
ATOM     24  N   UNL     1      45.459   4.626   8.314  0.00  0.00    +0.000 NA
ATOM     25  C   UNL     1      46.354   3.887   7.607  0.00  0.00    +0.000 A 
ATOM     26  H   UNL     1      43.883   5.742   9.593  0.00  0.00    +0.000 HD
BRANCH  19  28
ATOM     27  N   UNL     1      48.512   2.488   6.409  0.00  0.00    +0.000 N 
ATOM     28  C   UNL     1      47.412   1.790   6.827  0.00  0.00    +0.000 C 
ATOM     29  O   UNL     1      47.251   0.616   6.530  0.00  0.00    +0.000 OA
ATOM     30  H   UNL     1      49.220   1.956   5.918  0.00  0.00    +0.000 HD
ATOM     31  H   UNL     1      48.806   3.350   6.848  0.00  0.00    +0.000 HD
ENDBRANCH  19  28
ENDBRANCH  18  23
ENDBRANCH   1  18
TORSDOF 6
ENDMDL
MODEL 2
REMARK VINA RESULT:    -9.108      1.601      2.553
REMARK INTER + INTRA:         -13.128
REMARK INTER:                 -12.205
REMARK INTRA:                  -0.923
REMARK UNBOUND:                -1.091
REMARK  Name = 
REMARK  6 active torsions:
REMARK  status: ('A' for Active; 'I' for Inactive)
REMARK    1  A    between atoms: C_2  and  C_4
REMARK    2  A    between atoms: N_8  and  C_9
REMARK    3  A    between atoms: C_9  and  C_10
REMARK    4  A    between atoms: C_10  and  C_13
REMARK    5  A    between atoms: C_17  and  N_18
REMARK    6  A    between atoms: C_22  and  O_23
REMARK                            x       y       z     vdW  Elec       q    Type
REMARK                         _______ _______ _______ _____ _____    ______ ____
ROOT
ATOM      1  C   UNL     1      43.163   5.434  12.102  0.00  0.00    +0.000 C 
ATOM      2  F   UNL     1      42.206   6.277  11.606  0.00  0.00    +0.000 F 
ATOM      3  F   UNL     1      42.636   4.941  13.264  0.00  0.00    +0.000 F 
ENDROOT
BRANCH   1   4
ATOM      4  C   UNL     1      44.477   6.151  12.348  0.00  0.00    +0.000 A 
ATOM      5  C   UNL     1      44.727   7.406  11.790  0.00  0.00    +0.000 A 
ATOM      6  C   UNL     1      45.927   8.056  12.059  0.00  0.00    +0.000 A 
ATOM      7  C   UNL     1      46.878   7.462  12.898  0.00  0.00    +0.000 A 
ATOM      8  C   UNL     1      46.668   6.208  13.490  0.00  0.00    +0.000 A 
ATOM      9  C   UNL     1      45.461   5.563  13.170  0.00  0.00    +0.000 A 
BRANCH   8  10
ATOM     10  N   UNL     1      47.574   5.665  14.381  0.00  0.00    +0.000 N 
ATOM     11  C   UNL     1      47.363   4.351  15.001  0.00  0.00    +0.000 C 
ATOM     12  C   UNL     1      47.490   4.484  16.521  0.00  0.00    +0.000 C 
ATOM     13  C   UNL     1      48.798   5.160  16.931  0.00  0.00    +0.000 C 
ATOM     14  C   UNL     1      49.016   6.482  16.190  0.00  0.00    +0.000 C 
ATOM     15  C   UNL     1      48.878   6.290  14.669  0.00  0.00    +0.000 C 
BRANCH  14  16
ATOM     16  O   UNL     1      48.049   7.437  16.640  0.00  0.00    +0.000 OA
ATOM     17  H   UNL     1      47.729   7.097  17.499  0.00  0.00    +0.000 HD
ENDBRANCH  14  16
ENDBRANCH   8  10
ENDBRANCH   1   4
BRANCH   1  18
ATOM     18  C   UNL     1      43.338   4.264  11.099  0.00  0.00    +0.000 C 
BRANCH  18  23
ATOM     19  C   UNL     1      46.667   2.766   7.522  0.00  0.00    +0.000 A 
ATOM     20  C   UNL     1      45.877   2.005   8.376  0.00  0.00    +0.000 A 
ATOM     21  C   UNL     1      44.922   2.644   9.168  0.00  0.00    +0.000 A 
ATOM     22  C   UNL     1      44.782   4.028   9.104  0.00  0.00    +0.000 A 
ATOM     23  N   UNL     1      43.788   4.712   9.772  0.00  0.00    +0.000 N 
ATOM     24  N   UNL     1      45.574   4.778   8.311  0.00  0.00    +0.000 NA
ATOM     25  C   UNL     1      46.499   4.141   7.546  0.00  0.00    +0.000 A 
ATOM     26  H   UNL     1      43.951   5.712   9.674  0.00  0.00    +0.000 HD
BRANCH  19  28
ATOM     27  N   UNL     1      47.852   2.810   5.409  0.00  0.00    +0.000 N 
ATOM     28  C   UNL     1      47.650   2.165   6.599  0.00  0.00    +0.000 C 
ATOM     29  O   UNL     1      48.286   1.166   6.899  0.00  0.00    +0.000 OA
ATOM     30  H   UNL     1      48.612   2.464   4.835  0.00  0.00    +0.000 HD
ATOM     31  H   UNL     1      47.551   3.762   5.251  0.00  0.00    +0.000 HD
ENDBRANCH  19  28
ENDBRANCH  18  23
ENDBRANCH   1  18
TORSDOF 6
ENDMDL
MODEL 3
REMARK VINA RESULT:    -8.558      1.526      2.192
REMARK INTER + INTRA:         -12.401
REMARK INTER:                 -11.879
REMARK INTRA:                  -0.522
REMARK UNBOUND:                -1.091
REMARK  Name = 
REMARK  6 active torsions:
REMARK  status: ('A' for Active; 'I' for Inactive)
REMARK    1  A    between atoms: C_2  and  C_4
REMARK    2  A    between atoms: N_8  and  C_9
REMARK    3  A    between atoms: C_9  and  C_10
REMARK    4  A    between atoms: C_10  and  C_13
REMARK    5  A    between atoms: C_17  and  N_18
REMARK    6  A    between atoms: C_22  and  O_23
REMARK                            x       y       z     vdW  Elec       q    Type
REMARK                         _______ _______ _______ _____ _____    ______ ____
ROOT
ATOM      1  C   UNL     1      44.395   4.799  12.247  0.00  0.00    +0.000 C 
ATOM      2  F   UNL     1      43.799   4.561  13.456  0.00  0.00    +0.000 F 
ATOM      3  F   UNL     1      45.396   3.872  12.155  0.00  0.00    +0.000 F 
ENDROOT
BRANCH   1   4
ATOM      4  C   UNL     1      44.936   6.213  12.151  0.00  0.00    +0.000 A 
ATOM      5  C   UNL     1      44.184   7.233  11.566  0.00  0.00    +0.000 A 
ATOM      6  C   UNL     1      44.690   8.528  11.522  0.00  0.00    +0.000 A 
ATOM      7  C   UNL     1      45.945   8.814  12.073  0.00  0.00    +0.000 A 
ATOM      8  C   UNL     1      46.734   7.825  12.679  0.00  0.00    +0.000 A 
ATOM      9  C   UNL     1      46.208   6.521  12.677  0.00  0.00    +0.000 A 
BRANCH   8  10
ATOM     10  N   UNL     1      47.934   8.129  13.293  0.00  0.00    +0.000 N 
ATOM     11  C   UNL     1      48.989   7.126  13.478  0.00  0.00    +0.000 C 
ATOM     12  C   UNL     1      49.406   7.098  14.951  0.00  0.00    +0.000 C 
ATOM     13  C   UNL     1      49.776   8.488  15.469  0.00  0.00    +0.000 C 
ATOM     14  C   UNL     1      48.683   9.519  15.172  0.00  0.00    +0.000 C 
ATOM     15  C   UNL     1      48.303   9.503  13.680  0.00  0.00    +0.000 C 
BRANCH  14  16
ATOM     16  O   UNL     1      47.527   9.217  15.961  0.00  0.00    +0.000 OA
ATOM     17  H   UNL     1      47.703   8.338  16.353  0.00  0.00    +0.000 HD
ENDBRANCH  14  16
ENDBRANCH   8  10
ENDBRANCH   1   4
BRANCH   1  18
ATOM     18  C   UNL     1      43.353   4.518  11.134  0.00  0.00    +0.000 C 
BRANCH  18  23
ATOM     19  C   UNL     1      46.515   2.487   7.671  0.00  0.00    +0.000 A 
ATOM     20  C   UNL     1      45.647   1.860   8.557  0.00  0.00    +0.000 A 
ATOM     21  C   UNL     1      44.763   2.638   9.306  0.00  0.00    +0.000 A 
ATOM     22  C   UNL     1      44.769   4.023   9.167  0.00  0.00    +0.000 A 
ATOM     23  N   UNL     1      43.851   4.843   9.789  0.00  0.00    +0.000 N 
ATOM     24  N   UNL     1      45.638   4.642   8.342  0.00  0.00    +0.000 NA
ATOM     25  C   UNL     1      46.494   3.871   7.620  0.00  0.00    +0.000 A 
ATOM     26  H   UNL     1      44.120   5.814   9.639  0.00  0.00    +0.000 HD
BRANCH  19  28
ATOM     27  N   UNL     1      48.557   2.392   6.369  0.00  0.00    +0.000 N 
ATOM     28  C   UNL     1      47.432   1.737   6.789  0.00  0.00    +0.000 C 
ATOM     29  O   UNL     1      47.221   0.572   6.484  0.00  0.00    +0.000 OA
ATOM     30  H   UNL     1      49.239   1.836   5.868  0.00  0.00    +0.000 HD
ATOM     31  H   UNL     1      48.888   3.238   6.812  0.00  0.00    +0.000 HD
ENDBRANCH  19  28
ENDBRANCH  18  23
ENDBRANCH   1  18
TORSDOF 6
ENDMDL
MODEL 4
REMARK VINA RESULT:    -8.303      1.668      2.328
REMARK INTER + INTRA:         -12.064
REMARK INTER:                 -10.812
REMARK INTRA:                  -1.253
REMARK UNBOUND:                -1.091
REMARK  Name = 
REMARK  6 active torsions:
REMARK  status: ('A' for Active; 'I' for Inactive)
REMARK    1  A    between atoms: C_2  and  C_4
REMARK    2  A    between atoms: N_8  and  C_9
REMARK    3  A    between atoms: C_9  and  C_10
REMARK    4  A    between atoms: C_10  and  C_13
REMARK    5  A    between atoms: C_17  and  N_18
REMARK    6  A    between atoms: C_22  and  O_23
REMARK                            x       y       z     vdW  Elec       q    Type
REMARK                         _______ _______ _______ _____ _____    ______ ____
ROOT
ATOM      1  C   UNL     1      43.890   4.370  12.594  0.00  0.00    +0.000 C 
ATOM      2  F   UNL     1      42.904   4.363  13.543  0.00  0.00    +0.000 F 
ATOM      3  F   UNL     1      44.947   3.722  13.173  0.00  0.00    +0.000 F 
ENDROOT
BRANCH   1   4
ATOM      4  C   UNL     1      44.264   5.781  12.178  0.00  0.00    +0.000 A 
ATOM      5  C   UNL     1      43.385   6.568  11.433  0.00  0.00    +0.000 A 
ATOM      6  C   UNL     1      43.739   7.870  11.093  0.00  0.00    +0.000 A 
ATOM      7  C   UNL     1      44.968   8.397  11.507  0.00  0.00    +0.000 A 
ATOM      8  C   UNL     1      45.880   7.648  12.266  0.00  0.00    +0.000 A 
ATOM      9  C   UNL     1      45.507   6.326  12.562  0.00  0.00    +0.000 A 
BRANCH   8  10
ATOM     10  N   UNL     1      47.054   8.201  12.741  0.00  0.00    +0.000 N 
ATOM     11  C   UNL     1      47.662   9.385  12.124  0.00  0.00    +0.000 C 
ATOM     12  C   UNL     1      49.126   9.087  11.792  0.00  0.00    +0.000 C 
ATOM     13  C   UNL     1      49.894   8.557  13.003  0.00  0.00    +0.000 C 
ATOM     14  C   UNL     1      49.174   7.380  13.666  0.00  0.00    +0.000 C 
ATOM     15  C   UNL     1      47.709   7.735  13.978  0.00  0.00    +0.000 C 
BRANCH  14  16
ATOM     16  O   UNL     1      49.214   6.250  12.786  0.00  0.00    +0.000 OA
ATOM     17  H   UNL     1      49.353   5.475  13.367  0.00  0.00    +0.000 HD
ENDBRANCH  14  16
ENDBRANCH   8  10
ENDBRANCH   1   4
BRANCH   1  18
ATOM     18  C   UNL     1      43.398   3.537  11.383  0.00  0.00    +0.000 C 
BRANCH  18  23
ATOM     19  C   UNL     1      46.476   2.817   7.367  0.00  0.00    +0.000 A 
ATOM     20  C   UNL     1      46.095   3.997   7.995  0.00  0.00    +0.000 A 
ATOM     21  C   UNL     1      45.363   3.930   9.180  0.00  0.00    +0.000 A 
ATOM     22  C   UNL     1      45.012   2.691   9.710  0.00  0.00    +0.000 A 
ATOM     23  N   UNL     1      44.388   2.547  10.931  0.00  0.00    +0.000 N 
ATOM     24  N   UNL     1      45.340   1.542   9.084  0.00  0.00    +0.000 NA
ATOM     25  C   UNL     1      46.053   1.624   7.930  0.00  0.00    +0.000 A 
ATOM     26  H   UNL     1      44.126   1.571  11.056  0.00  0.00    +0.000 HD
BRANCH  19  28
ATOM     27  N   UNL     1      48.647   2.546   6.324  0.00  0.00    +0.000 N 
ATOM     28  C   UNL     1      47.313   2.795   6.151  0.00  0.00    +0.000 C 
ATOM     29  O   UNL     1      46.832   2.948   5.037  0.00  0.00    +0.000 OA
ATOM     30  H   UNL     1      49.191   2.411   5.481  0.00  0.00    +0.000 HD
ATOM     31  H   UNL     1      49.018   2.155   7.179  0.00  0.00    +0.000 HD
ENDBRANCH  19  28
ENDBRANCH  18  23
ENDBRANCH   1  18
TORSDOF 6
ENDMDL
MODEL 5
REMARK VINA RESULT:    -7.865      3.234      8.036
REMARK INTER + INTRA:         -11.485
REMARK INTER:                 -10.865
REMARK INTRA:                  -0.620
REMARK UNBOUND:                -1.091
REMARK  Name = 
REMARK  6 active torsions:
REMARK  status: ('A' for Active; 'I' for Inactive)
REMARK    1  A    between atoms: C_2  and  C_4
REMARK    2  A    between atoms: N_8  and  C_9
REMARK    3  A    between atoms: C_9  and  C_10
REMARK    4  A    between atoms: C_10  and  C_13
REMARK    5  A    between atoms: C_17  and  N_18
REMARK    6  A    between atoms: C_22  and  O_23
REMARK                            x       y       z     vdW  Elec       q    Type
REMARK                         _______ _______ _______ _____ _____    ______ ____
ROOT
ATOM      1  C   UNL     1      45.915   6.020  12.217  0.00  0.00    +0.000 C 
ATOM      2  F   UNL     1      45.079   6.892  12.861  0.00  0.00    +0.000 F 
ATOM      3  F   UNL     1      46.494   6.753  11.218  0.00  0.00    +0.000 F 
ENDROOT
BRANCH   1   4
ATOM      4  C   UNL     1      45.165   4.822  11.665  0.00  0.00    +0.000 A 
ATOM      5  C   UNL     1      44.058   4.295  12.333  0.00  0.00    +0.000 A 
ATOM      6  C   UNL     1      43.369   3.217  11.787  0.00  0.00    +0.000 A 
ATOM      7  C   UNL     1      43.773   2.668  10.564  0.00  0.00    +0.000 A 
ATOM      8  C   UNL     1      44.873   3.169   9.851  0.00  0.00    +0.000 A 
ATOM      9  C   UNL     1      45.568   4.235  10.447  0.00  0.00    +0.000 A 
BRANCH   8  10
ATOM     10  N   UNL     1      45.217   2.676   8.607  0.00  0.00    +0.000 N 
ATOM     11  C   UNL     1      45.727   1.312   8.424  0.00  0.00    +0.000 C 
ATOM     12  C   UNL     1      47.043   1.366   7.644  0.00  0.00    +0.000 C 
ATOM     13  C   UNL     1      46.908   2.156   6.342  0.00  0.00    +0.000 C 
ATOM     14  C   UNL     1      46.287   3.536   6.573  0.00  0.00    +0.000 C 
ATOM     15  C   UNL     1      44.968   3.423   7.360  0.00  0.00    +0.000 C 
BRANCH  14  16
ATOM     16  O   UNL     1      47.210   4.350   7.305  0.00  0.00    +0.000 OA
ATOM     17  H   UNL     1      47.736   4.819   6.627  0.00  0.00    +0.000 HD
ENDBRANCH  14  16
ENDBRANCH   8  10
ENDBRANCH   1   4
BRANCH   1  18
ATOM     18  C   UNL     1      47.016   5.584  13.217  0.00  0.00    +0.000 C 
BRANCH  18  23
ATOM     19  C   UNL     1      48.594   4.527  17.962  0.00  0.00    +0.000 A 
ATOM     20  C   UNL     1      48.897   5.609  17.145  0.00  0.00    +0.000 A 
ATOM     21  C   UNL     1      48.217   5.760  15.937  0.00  0.00    +0.000 A 
ATOM     22  C   UNL     1      47.258   4.823  15.558  0.00  0.00    +0.000 A 
ATOM     23  N   UNL     1      46.470   4.967  14.436  0.00  0.00    +0.000 N 
ATOM     24  N   UNL     1      46.989   3.746  16.325  0.00  0.00    +0.000 NA
ATOM     25  C   UNL     1      47.661   3.613  17.499  0.00  0.00    +0.000 A 
ATOM     26  H   UNL     1      45.932   4.114  14.297  0.00  0.00    +0.000 HD
BRANCH  19  28
ATOM     27  N   UNL     1      48.486   3.627  20.210  0.00  0.00    +0.000 N 
ATOM     28  C   UNL     1      49.213   4.331  19.288  0.00  0.00    +0.000 C 
ATOM     29  O   UNL     1      50.337   4.739  19.539  0.00  0.00    +0.000 OA
ATOM     30  H   UNL     1      48.964   3.391  21.072  0.00  0.00    +0.000 HD
ATOM     31  H   UNL     1      47.692   3.058  19.953  0.00  0.00    +0.000 HD
ENDBRANCH  19  28
ENDBRANCH  18  23
ENDBRANCH   1  18
TORSDOF 6
ENDMDL
MODEL 6
REMARK VINA RESULT:    -7.125      3.682      7.663
REMARK INTER + INTRA:         -10.508
REMARK INTER:                  -9.267
REMARK INTRA:                  -1.241
REMARK UNBOUND:                -1.091
REMARK  Name = 
REMARK  6 active torsions:
REMARK  status: ('A' for Active; 'I' for Inactive)
REMARK    1  A    between atoms: C_2  and  C_4
REMARK    2  A    between atoms: N_8  and  C_9
REMARK    3  A    between atoms: C_9  and  C_10
REMARK    4  A    between atoms: C_10  and  C_13
REMARK    5  A    between atoms: C_17  and  N_18
REMARK    6  A    between atoms: C_22  and  O_23
REMARK                            x       y       z     vdW  Elec       q    Type
REMARK                         _______ _______ _______ _____ _____    ______ ____
ROOT
ATOM      1  C   UNL     1      49.086   8.028  12.418  0.00  0.00    +0.000 C 
ATOM      2  F   UNL     1      49.818   8.832  11.588  0.00  0.00    +0.000 F 
ATOM      3  F   UNL     1      49.510   6.755  12.148  0.00  0.00    +0.000 F 
ENDROOT
BRANCH   1   4
ATOM      4  C   UNL     1      47.595   8.178  12.181  0.00  0.00    +0.000 A 
ATOM      5  C   UNL     1      46.990   9.436  12.180  0.00  0.00    +0.000 A 
ATOM      6  C   UNL     1      45.626   9.549  11.926  0.00  0.00    +0.000 A 
ATOM      7  C   UNL     1      44.863   8.406  11.659  0.00  0.00    +0.000 A 
ATOM      8  C   UNL     1      45.427   7.122  11.638  0.00  0.00    +0.000 A 
ATOM      9  C   UNL     1      46.799   7.040  11.933  0.00  0.00    +0.000 A 
BRANCH   8  10
ATOM     10  N   UNL     1      44.685   6.008  11.293  0.00  0.00    +0.000 N 
ATOM     11  C   UNL     1      43.218   6.024  11.282  0.00  0.00    +0.000 C 
ATOM     12  C   UNL     1      42.694   4.858  12.124  0.00  0.00    +0.000 C 
ATOM     13  C   UNL     1      43.302   3.522  11.697  0.00  0.00    +0.000 C 
ATOM     14  C   UNL     1      44.831   3.583  11.636  0.00  0.00    +0.000 C 
ATOM     15  C   UNL     1      45.302   4.771  10.778  0.00  0.00    +0.000 C 
BRANCH  14  16
ATOM     16  O   UNL     1      45.348   3.720  12.965  0.00  0.00    +0.000 OA
ATOM     17  H   UNL     1      46.234   3.305  12.942  0.00  0.00    +0.000 HD
ENDBRANCH  14  16
ENDBRANCH   8  10
ENDBRANCH   1   4
BRANCH   1  18
ATOM     18  C   UNL     1      49.462   8.378  13.880  0.00  0.00    +0.000 C 
BRANCH  18  23
ATOM     19  C   UNL     1      48.209   4.505  16.971  0.00  0.00    +0.000 A 
ATOM     20  C   UNL     1      47.504   5.059  15.910  0.00  0.00    +0.000 A 
ATOM     21  C   UNL     1      48.124   6.018  15.108  0.00  0.00    +0.000 A 
ATOM     22  C   UNL     1      49.429   6.417  15.388  0.00  0.00    +0.000 A 
ATOM     23  N   UNL     1      50.141   7.274  14.576  0.00  0.00    +0.000 N 
ATOM     24  N   UNL     1      50.105   5.917  16.443  0.00  0.00    +0.000 NA
ATOM     25  C   UNL     1      49.486   4.984  17.214  0.00  0.00    +0.000 A 
ATOM     26  H   UNL     1      51.018   7.513  15.035  0.00  0.00    +0.000 HD
BRANCH  19  28
ATOM     27  N   UNL     1      48.323   3.166  18.988  0.00  0.00    +0.000 N 
ATOM     28  C   UNL     1      47.656   3.434  17.824  0.00  0.00    +0.000 C 
ATOM     29  O   UNL     1      46.626   2.845  17.528  0.00  0.00    +0.000 OA
ATOM     30  H   UNL     1      47.872   2.519  19.624  0.00  0.00    +0.000 HD
ATOM     31  H   UNL     1      49.001   3.803  19.383  0.00  0.00    +0.000 HD
ENDBRANCH  19  28
ENDBRANCH  18  23
ENDBRANCH   1  18
TORSDOF 6
ENDMDL
MODEL 7
REMARK VINA RESULT:    -6.973      3.396      5.529
REMARK INTER + INTRA:         -10.307
REMARK INTER:                  -9.132
REMARK INTRA:                  -1.174
REMARK UNBOUND:                -1.091
REMARK  Name = 
REMARK  6 active torsions:
REMARK  status: ('A' for Active; 'I' for Inactive)
REMARK    1  A    between atoms: C_2  and  C_4
REMARK    2  A    between atoms: N_8  and  C_9
REMARK    3  A    between atoms: C_9  and  C_10
REMARK    4  A    between atoms: C_10  and  C_13
REMARK    5  A    between atoms: C_17  and  N_18
REMARK    6  A    between atoms: C_22  and  O_23
REMARK                            x       y       z     vdW  Elec       q    Type
REMARK                         _______ _______ _______ _____ _____    ______ ____
ROOT
ATOM      1  C   UNL     1      48.398   8.244  13.076  0.00  0.00    +0.000 C 
ATOM      2  F   UNL     1      48.542   7.540  11.912  0.00  0.00    +0.000 F 
ATOM      3  F   UNL     1      48.685   9.541  12.747  0.00  0.00    +0.000 F 
ENDROOT
BRANCH   1   4
ATOM      4  C   UNL     1      49.320   7.731  14.166  0.00  0.00    +0.000 A 
ATOM      5  C   UNL     1      50.592   8.277  14.349  0.00  0.00    +0.000 A 
ATOM      6  C   UNL     1      51.404   7.811  15.378  0.00  0.00    +0.000 A 
ATOM      7  C   UNL     1      50.944   6.807  16.239  0.00  0.00    +0.000 A 
ATOM      8  C   UNL     1      49.671   6.235  16.102  0.00  0.00    +0.000 A 
ATOM      9  C   UNL     1      48.890   6.704  15.032  0.00  0.00    +0.000 A 
BRANCH   8  10
ATOM     10  N   UNL     1      49.192   5.303  17.004  0.00  0.00    +0.000 N 
ATOM     11  C   UNL     1      50.051   4.257  17.571  0.00  0.00    +0.000 C 
ATOM     12  C   UNL     1      49.391   2.893  17.359  0.00  0.00    +0.000 C 
ATOM     13  C   UNL     1      47.954   2.863  17.879  0.00  0.00    +0.000 C 
ATOM     14  C   UNL     1      47.123   4.026  17.331  0.00  0.00    +0.000 C 
ATOM     15  C   UNL     1      47.833   5.371  17.570  0.00  0.00    +0.000 C 
BRANCH  14  16
ATOM     16  O   UNL     1      46.922   3.836  15.925  0.00  0.00    +0.000 OA
ATOM     17  H   UNL     1      46.656   4.713  15.581  0.00  0.00    +0.000 HD
ENDBRANCH  14  16
ENDBRANCH   8  10
ENDBRANCH   1   4
BRANCH   1  18
ATOM     18  C   UNL     1      46.912   8.158  13.509  0.00  0.00    +0.000 C 
BRANCH  18  23
ATOM     19  C   UNL     1      44.558   4.103  11.475  0.00  0.00    +0.000 A 
ATOM     20  C   UNL     1      44.836   4.395  12.805  0.00  0.00    +0.000 A 
ATOM     21  C   UNL     1      45.355   5.648  13.131  0.00  0.00    +0.000 A 
ATOM     22  C   UNL     1      45.600   6.581  12.127  0.00  0.00    +0.000 A 
ATOM     23  N   UNL     1      46.005   7.873  12.386  0.00  0.00    +0.000 N 
ATOM     24  N   UNL     1      45.374   6.290  10.829  0.00  0.00    +0.000 NA
ATOM     25  C   UNL     1      44.869   5.064  10.528  0.00  0.00    +0.000 A 
ATOM     26  H   UNL     1      46.233   8.331  11.505  0.00  0.00    +0.000 HD
BRANCH  19  28
ATOM     27  N   UNL     1      44.505   2.200   9.975  0.00  0.00    +0.000 N 
ATOM     28  C   UNL     1      43.941   2.831  11.051  0.00  0.00    +0.000 C 
ATOM     29  O   UNL     1      43.000   2.339  11.656  0.00  0.00    +0.000 OA
ATOM     30  H   UNL     1      44.157   1.272   9.766  0.00  0.00    +0.000 HD
ATOM     31  H   UNL     1      45.427   2.435   9.632  0.00  0.00    +0.000 HD
ENDBRANCH  19  28
ENDBRANCH  18  23
ENDBRANCH   1  18
TORSDOF 6
ENDMDL
MODEL 8
REMARK VINA RESULT:    -6.929      3.940      8.066
REMARK INTER + INTRA:         -10.249
REMARK INTER:                  -9.035
REMARK INTRA:                  -1.213
REMARK UNBOUND:                -1.091
REMARK  Name = 
REMARK  6 active torsions:
REMARK  status: ('A' for Active; 'I' for Inactive)
REMARK    1  A    between atoms: C_2  and  C_4
REMARK    2  A    between atoms: N_8  and  C_9
REMARK    3  A    between atoms: C_9  and  C_10
REMARK    4  A    between atoms: C_10  and  C_13
REMARK    5  A    between atoms: C_17  and  N_18
REMARK    6  A    between atoms: C_22  and  O_23
REMARK                            x       y       z     vdW  Elec       q    Type
REMARK                         _______ _______ _______ _____ _____    ______ ____
ROOT
ATOM      1  C   UNL     1      49.479   8.351  12.212  0.00  0.00    +0.000 C 
ATOM      2  F   UNL     1      49.882   9.281  11.294  0.00  0.00    +0.000 F 
ATOM      3  F   UNL     1      50.029   7.171  11.792  0.00  0.00    +0.000 F 
ENDROOT
BRANCH   1   4
ATOM      4  C   UNL     1      47.967   8.258  12.298  0.00  0.00    +0.000 A 
ATOM      5  C   UNL     1      47.183   9.404  12.445  0.00  0.00    +0.000 A 
ATOM      6  C   UNL     1      45.797   9.294  12.487  0.00  0.00    +0.000 A 
ATOM      7  C   UNL     1      45.185   8.040  12.368  0.00  0.00    +0.000 A 
ATOM      8  C   UNL     1      45.929   6.862  12.208  0.00  0.00    +0.000 A 
ATOM      9  C   UNL     1      47.328   7.004  12.205  0.00  0.00    +0.000 A 
BRANCH   8  10
ATOM     10  N   UNL     1      45.318   5.639  12.009  0.00  0.00    +0.000 N 
ATOM     11  C   UNL     1      45.052   5.111  10.665  0.00  0.00    +0.000 C 
ATOM     12  C   UNL     1      43.575   4.725  10.558  0.00  0.00    +0.000 C 
ATOM     13  C   UNL     1      43.142   3.790  11.687  0.00  0.00    +0.000 C 
ATOM     14  C   UNL     1      43.522   4.342  13.064  0.00  0.00    +0.000 C 
ATOM     15  C   UNL     1      45.016   4.712  13.116  0.00  0.00    +0.000 C 
BRANCH  14  16
ATOM     16  O   UNL     1      42.733   5.505  13.338  0.00  0.00    +0.000 OA
ATOM     17  H   UNL     1      42.520   5.455  14.291  0.00  0.00    +0.000 HD
ENDBRANCH  14  16
ENDBRANCH   8  10
ENDBRANCH   1   4
BRANCH   1  18
ATOM     18  C   UNL     1      50.098   8.729  13.583  0.00  0.00    +0.000 C 
BRANCH  18  23
ATOM     19  C   UNL     1      49.538   5.330  17.359  0.00  0.00    +0.000 A 
ATOM     20  C   UNL     1      48.591   5.853  16.486  0.00  0.00    +0.000 A 
ATOM     21  C   UNL     1      49.015   6.657  15.427  0.00  0.00    +0.000 A 
ATOM     22  C   UNL     1      50.369   6.937  15.267  0.00  0.00    +0.000 A 
ATOM     23  N   UNL     1      50.869   7.629  14.184  0.00  0.00    +0.000 N 
ATOM     24  N   UNL     1      51.290   6.470  16.135  0.00  0.00    +0.000 NA
ATOM     25  C   UNL     1      50.861   5.689  17.161  0.00  0.00    +0.000 A 
ATOM     26  H   UNL     1      51.858   7.815  14.338  0.00  0.00    +0.000 HD
BRANCH  19  28
ATOM     27  N   UNL     1      50.061   4.344  19.509  0.00  0.00    +0.000 N 
ATOM     28  C   UNL     1      49.185   4.413  18.461  0.00  0.00    +0.000 C 
ATOM     29  O   UNL     1      48.140   3.779  18.459  0.00  0.00    +0.000 OA
ATOM     30  H   UNL     1      49.756   3.809  20.314  0.00  0.00    +0.000 HD
ATOM     31  H   UNL     1      50.778   5.040  19.664  0.00  0.00    +0.000 HD
ENDBRANCH  19  28
ENDBRANCH  18  23
ENDBRANCH   1  18
TORSDOF 6
ENDMDL
MODEL 9
REMARK VINA RESULT:    -6.407      4.194      6.737
REMARK INTER + INTRA:          -9.558
REMARK INTER:                  -8.330
REMARK INTRA:                  -1.229
REMARK UNBOUND:                -1.091
REMARK  Name = 
REMARK  6 active torsions:
REMARK  status: ('A' for Active; 'I' for Inactive)
REMARK    1  A    between atoms: C_2  and  C_4
REMARK    2  A    between atoms: N_8  and  C_9
REMARK    3  A    between atoms: C_9  and  C_10
REMARK    4  A    between atoms: C_10  and  C_13
REMARK    5  A    between atoms: C_17  and  N_18
REMARK    6  A    between atoms: C_22  and  O_23
REMARK                            x       y       z     vdW  Elec       q    Type
REMARK                         _______ _______ _______ _____ _____    ______ ____
ROOT
ATOM      1  C   UNL     1      45.744   5.416  12.557  0.00  0.00    +0.000 C 
ATOM      2  F   UNL     1      45.552   4.883  11.311  0.00  0.00    +0.000 F 
ATOM      3  F   UNL     1      44.555   5.235  13.209  0.00  0.00    +0.000 F 
ENDROOT
BRANCH   1   4
ATOM      4  C   UNL     1      46.124   6.884  12.492  0.00  0.00    +0.000 A 
ATOM      5  C   UNL     1      45.146   7.880  12.469  0.00  0.00    +0.000 A 
ATOM      6  C   UNL     1      45.523   9.219  12.444  0.00  0.00    +0.000 A 
ATOM      7  C   UNL     1      46.878   9.570  12.457  0.00  0.00    +0.000 A 
ATOM      8  C   UNL     1      47.896   8.606  12.491  0.00  0.00    +0.000 A 
ATOM      9  C   UNL     1      47.482   7.263  12.480  0.00  0.00    +0.000 A 
BRANCH   8  10
ATOM     10  N   UNL     1      49.228   8.960  12.586  0.00  0.00    +0.000 N 
ATOM     11  C   UNL     1      50.089   9.074  11.403  0.00  0.00    +0.000 C 
ATOM     12  C   UNL     1      51.348   8.228  11.611  0.00  0.00    +0.000 C 
ATOM     13  C   UNL     1      52.054   8.562  12.925  0.00  0.00    +0.000 C 
ATOM     14  C   UNL     1      51.095   8.518  14.117  0.00  0.00    +0.000 C 
ATOM     15  C   UNL     1      49.849   9.385  13.854  0.00  0.00    +0.000 C 
BRANCH  14  16
ATOM     16  O   UNL     1      50.692   7.163  14.345  0.00  0.00    +0.000 OA
ATOM     17  H   UNL     1      50.052   6.959  13.634  0.00  0.00    +0.000 HD
ENDBRANCH  14  16
ENDBRANCH   8  10
ENDBRANCH   1   4
BRANCH   1  18
ATOM     18  C   UNL     1      46.837   4.582  13.273  0.00  0.00    +0.000 C 
BRANCH  18  23
ATOM     19  C   UNL     1      48.580   4.435  18.075  0.00  0.00    +0.000 A 
ATOM     20  C   UNL     1      48.712   5.428  17.112  0.00  0.00    +0.000 A 
ATOM     21  C   UNL     1      48.010   5.308  15.912  0.00  0.00    +0.000 A 
ATOM     22  C   UNL     1      47.203   4.195  15.689  0.00  0.00    +0.000 A 
ATOM     23  N   UNL     1      46.397   4.064  14.578  0.00  0.00    +0.000 N 
ATOM     24  N   UNL     1      47.105   3.206  16.600  0.00  0.00    +0.000 NA
ATOM     25  C   UNL     1      47.795   3.337  17.764  0.00  0.00    +0.000 A 
ATOM     26  H   UNL     1      45.994   3.129  14.570  0.00  0.00    +0.000 HD
BRANCH  19  28
ATOM     27  N   UNL     1      48.597   3.886  20.436  0.00  0.00    +0.000 N 
ATOM     28  C   UNL     1      49.228   4.518  19.399  0.00  0.00    +0.000 C 
ATOM     29  O   UNL     1      50.300   5.086  19.556  0.00  0.00    +0.000 OA
ATOM     30  H   UNL     1      49.106   3.842  21.311  0.00  0.00    +0.000 HD
ATOM     31  H   UNL     1      47.873   3.197  20.289  0.00  0.00    +0.000 HD
ENDBRANCH  19  28
ENDBRANCH  18  23
ENDBRANCH   1  18
TORSDOF 6
ENDMDL
