MODEL 1
REMARK VINA RESULT:    -7.779      0.000      0.000
REMARK INTER + INTRA:         -10.151
REMARK INTER:                  -9.598
REMARK INTRA:                  -0.552
REMARK UNBOUND:                -0.552
REMARK  Name = 
REMARK  4 active torsions:
REMARK  status: ('A' for Active; 'I' for Inactive)
REMARK    1  A    between atoms: C_2  and  C_4
REMARK    2  A    between atoms: C_7  and  O_8
REMARK    3  A    between atoms: O_8  and  C_9
REMARK    4  A    between atoms: C_9  and  C_10
REMARK                            x       y       z     vdW  Elec       q    Type
REMARK                         _______ _______ _______ _____ _____    ______ ____
ROOT
ATOM      1  C   UNL     1      46.345   2.303   7.836  0.00  0.00    +0.000 A 
ATOM      2  C   UNL     1      46.325   3.668   7.579  0.00  0.00    +0.000 A 
ATOM      3  N   UNL     1      45.419   4.507   8.150  0.00  0.00    +0.000 NA
ATOM      4  C   UNL     1      44.544   3.917   8.996  0.00  0.00    +0.000 A 
ATOM      5  C   UNL     1      44.585   2.555   9.277  0.00  0.00    +0.000 A 
ATOM      6  N   UNL     1      45.472   1.705   8.698  0.00  0.00    +0.000 NA
ENDROOT
BRANCH   1   8
ATOM      7  N   UNL     1      48.412   2.072   6.591  0.00  0.00    +0.000 N 
ATOM      8  C   UNL     1      47.332   1.433   7.138  0.00  0.00    +0.000 C 
ATOM      9  O   UNL     1      47.198   0.217   7.071  0.00  0.00    +0.000 OA
ATOM     10  H   UNL     1      49.131   1.529   6.135  0.00  0.00    +0.000 HD
ATOM     11  H   UNL     1      48.515   3.075   6.690  0.00  0.00    +0.000 HD
ENDBRANCH   1   8
BRANCH   4  12
ATOM     12  O   UNL     1      43.600   4.679   9.648  0.00  0.00    +0.000 OA
BRANCH  12  13
ATOM     13  C   UNL     1      43.556   4.401  11.048  0.00  0.00    +0.000 C 
BRANCH  13  14
ATOM     14  C   UNL     1      44.528   5.332  11.739  0.00  0.00    +0.000 A 
ATOM     15  C   UNL     1      44.366   6.720  11.572  0.00  0.00    +0.000 A 
ATOM     16  C   UNL     1      45.246   7.622  12.175  0.00  0.00    +0.000 A 
ATOM     17  C   UNL     1      46.302   7.146  12.945  0.00  0.00    +0.000 A 
ATOM     18 CL   UNL     1      47.385   8.257  13.688  0.00  0.00    +0.000 Cl
ATOM     19  C   UNL     1      46.491   5.777  13.114  0.00  0.00    +0.000 A 
ATOM     20  C   UNL     1      45.611   4.874  12.508  0.00  0.00    +0.000 A 
ATOM     21 CL   UNL     1      45.914   3.189  12.743  0.00  0.00    +0.000 Cl
ENDBRANCH  13  14
ENDBRANCH  12  13
ENDBRANCH   4  12
TORSDOF 4
ENDMDL
MODEL 2
REMARK VINA RESULT:    -7.526      1.543      2.259
REMARK INTER + INTRA:          -9.838
REMARK INTER:                  -9.566
REMARK INTRA:                  -0.272
REMARK UNBOUND:                -0.552
REMARK  Name = 
REMARK  4 active torsions:
REMARK  status: ('A' for Active; 'I' for Inactive)
REMARK    1  A    between atoms: C_2  and  C_4
REMARK    2  A    between atoms: C_7  and  O_8
REMARK    3  A    between atoms: O_8  and  C_9
REMARK    4  A    between atoms: C_9  and  C_10
REMARK                            x       y       z     vdW  Elec       q    Type
REMARK                         _______ _______ _______ _____ _____    ______ ____
ROOT
ATOM      1  C   UNL     1      46.399   2.680   7.550  0.00  0.00    +0.000 A 
ATOM      2  C   UNL     1      45.856   1.679   8.344  0.00  0.00    +0.000 A 
ATOM      3  N   UNL     1      44.882   1.920   9.263  0.00  0.00    +0.000 NA
ATOM      4  C   UNL     1      44.470   3.206   9.338  0.00  0.00    +0.000 A 
ATOM      5  C   UNL     1      44.992   4.203   8.519  0.00  0.00    +0.000 A 
ATOM      6  N   UNL     1      45.979   3.977   7.614  0.00  0.00    +0.000 NA
ENDROOT
BRANCH   1   8
ATOM      7  N   UNL     1      47.526   3.086   5.443  0.00  0.00    +0.000 N 
ATOM      8  C   UNL     1      47.499   2.356   6.600  0.00  0.00    +0.000 C 
ATOM      9  O   UNL     1      48.341   1.499   6.844  0.00  0.00    +0.000 OA
ATOM     10  H   UNL     1      48.269   2.934   4.776  0.00  0.00    +0.000 HD
ATOM     11  H   UNL     1      46.836   3.811   5.282  0.00  0.00    +0.000 HD
ENDBRANCH   1   8
BRANCH   4  12
ATOM     12  O   UNL     1      43.469   3.556  10.217  0.00  0.00    +0.000 OA
BRANCH  12  13
ATOM     13  C   UNL     1      43.693   3.029  11.526  0.00  0.00    +0.000 C 
BRANCH  13  14
ATOM     14  C   UNL     1      44.734   3.892  12.204  0.00  0.00    +0.000 A 
ATOM     15  C   UNL     1      45.838   3.265  12.812  0.00  0.00    +0.000 A 
ATOM     16  C   UNL     1      46.819   4.014  13.464  0.00  0.00    +0.000 A 
ATOM     17  C   UNL     1      46.704   5.400  13.523  0.00  0.00    +0.000 A 
ATOM     18 CL   UNL     1      47.914   6.322  14.327  0.00  0.00    +0.000 Cl
ATOM     19  C   UNL     1      45.616   6.042  12.941  0.00  0.00    +0.000 A 
ATOM     20  C   UNL     1      44.632   5.291  12.289  0.00  0.00    +0.000 A 
ATOM     21 CL   UNL     1      43.298   6.150  11.604  0.00  0.00    +0.000 Cl
ENDBRANCH  13  14
ENDBRANCH  12  13
ENDBRANCH   4  12
TORSDOF 4
ENDMDL
MODEL 3
REMARK VINA RESULT:    -7.038      3.690      6.129
REMARK INTER + INTRA:          -9.236
REMARK INTER:                  -8.864
REMARK INTRA:                  -0.372
REMARK UNBOUND:                -0.552
REMARK  Name = 
REMARK  4 active torsions:
REMARK  status: ('A' for Active; 'I' for Inactive)
REMARK    1  A    between atoms: C_2  and  C_4
REMARK    2  A    between atoms: C_7  and  O_8
REMARK    3  A    between atoms: O_8  and  C_9
REMARK    4  A    between atoms: C_9  and  C_10
REMARK                            x       y       z     vdW  Elec       q    Type
REMARK                         _______ _______ _______ _____ _____    ______ ____
ROOT
ATOM      1  C   UNL     1      46.685   4.769  14.257  0.00  0.00    +0.000 A 
ATOM      2  C   UNL     1      47.413   5.611  13.426  0.00  0.00    +0.000 A 
ATOM      3  N   UNL     1      46.922   6.082  12.248  0.00  0.00    +0.000 NA
ATOM      4  C   UNL     1      45.666   5.678  11.948  0.00  0.00    +0.000 A 
ATOM      5  C   UNL     1      44.926   4.860  12.795  0.00  0.00    +0.000 A 
ATOM      6  N   UNL     1      45.413   4.368  13.963  0.00  0.00    +0.000 NA
ENDROOT
BRANCH   1   8
ATOM      7  N   UNL     1      47.375   5.132  16.551  0.00  0.00    +0.000 N 
ATOM      8  C   UNL     1      47.302   4.249  15.508  0.00  0.00    +0.000 C 
ATOM      9  O   UNL     1      47.705   3.096  15.607  0.00  0.00    +0.000 OA
ATOM     10  H   UNL     1      47.753   4.825  17.436  0.00  0.00    +0.000 HD
ATOM     11  H   UNL     1      47.004   6.070  16.452  0.00  0.00    +0.000 HD
ENDBRANCH   1   8
BRANCH   4  12
ATOM     12  O   UNL     1      45.063   6.117  10.790  0.00  0.00    +0.000 OA
BRANCH  12  13
ATOM     13  C   UNL     1      44.098   5.186  10.299  0.00  0.00    +0.000 C 
BRANCH  13  14
ATOM     14  C   UNL     1      44.827   4.151   9.471  0.00  0.00    +0.000 A 
ATOM     15  C   UNL     1      45.650   4.589   8.417  0.00  0.00    +0.000 A 
ATOM     16  C   UNL     1      46.333   3.673   7.613  0.00  0.00    +0.000 A 
ATOM     17  C   UNL     1      46.195   2.309   7.850  0.00  0.00    +0.000 A 
ATOM     18 CL   UNL     1      47.038   1.182   6.860  0.00  0.00    +0.000 Cl
ATOM     19  C   UNL     1      45.377   1.851   8.879  0.00  0.00    +0.000 A 
ATOM     20  C   UNL     1      44.691   2.769   9.682  0.00  0.00    +0.000 A 
ATOM     21 CL   UNL     1      43.679   2.132  10.930  0.00  0.00    +0.000 Cl
ENDBRANCH  13  14
ENDBRANCH  12  13
ENDBRANCH   4  12
TORSDOF 4
ENDMDL
MODEL 4
REMARK VINA RESULT:    -6.384      3.681      6.316
REMARK INTER + INTRA:          -8.429
REMARK INTER:                  -7.882
REMARK INTRA:                  -0.547
REMARK UNBOUND:                -0.552
REMARK  Name = 
REMARK  4 active torsions:
REMARK  status: ('A' for Active; 'I' for Inactive)
REMARK    1  A    between atoms: C_2  and  C_4
REMARK    2  A    between atoms: C_7  and  O_8
REMARK    3  A    between atoms: O_8  and  C_9
REMARK    4  A    between atoms: C_9  and  C_10
REMARK                            x       y       z     vdW  Elec       q    Type
REMARK                         _______ _______ _______ _____ _____    ______ ____
ROOT
ATOM      1  C   UNL     1      46.974   5.391  13.826  0.00  0.00    +0.000 A 
ATOM      2  C   UNL     1      45.815   5.915  13.270  0.00  0.00    +0.000 A 
ATOM      3  N   UNL     1      44.919   5.150  12.589  0.00  0.00    +0.000 NA
ATOM      4  C   UNL     1      45.233   3.838  12.503  0.00  0.00    +0.000 A 
ATOM      5  C   UNL     1      46.378   3.308  13.088  0.00  0.00    +0.000 A 
ATOM      6  N   UNL     1      47.290   4.065  13.752  0.00  0.00    +0.000 NA
ENDROOT
BRANCH   1   8
ATOM      7  N   UNL     1      47.750   7.634  14.318  0.00  0.00    +0.000 N 
ATOM      8  C   UNL     1      47.938   6.294  14.515  0.00  0.00    +0.000 C 
ATOM      9  O   UNL     1      48.837   5.865  15.230  0.00  0.00    +0.000 OA
ATOM     10  H   UNL     1      48.352   8.295  14.787  0.00  0.00    +0.000 HD
ATOM     11  H   UNL     1      46.978   7.962  13.748  0.00  0.00    +0.000 HD
ENDBRANCH   1   8
BRANCH   4  12
ATOM     12  O   UNL     1      44.382   2.969  11.857  0.00  0.00    +0.000 OA
BRANCH  12  13
ATOM     13  C   UNL     1      43.863   3.522  10.647  0.00  0.00    +0.000 C 
BRANCH  13  14
ATOM     14  C   UNL     1      44.813   3.161   9.525  0.00  0.00    +0.000 A 
ATOM     15  C   UNL     1      44.920   1.812   9.142  0.00  0.00    +0.000 A 
ATOM     16  C   UNL     1      45.792   1.423   8.123  0.00  0.00    +0.000 A 
ATOM     17  C   UNL     1      46.574   2.379   7.481  0.00  0.00    +0.000 A 
ATOM     18 CL   UNL     1      47.648   1.900   6.226  0.00  0.00    +0.000 Cl
ATOM     19  C   UNL     1      46.495   3.718   7.852  0.00  0.00    +0.000 A 
ATOM     20  C   UNL     1      45.622   4.107   8.874  0.00  0.00    +0.000 A 
ATOM     21 CL   UNL     1      45.587   5.782   9.296  0.00  0.00    +0.000 Cl
ENDBRANCH  13  14
ENDBRANCH  12  13
ENDBRANCH   4  12
TORSDOF 4
ENDMDL
MODEL 5
REMARK VINA RESULT:    -6.143      4.863      6.844
REMARK INTER + INTRA:          -8.132
REMARK INTER:                  -7.772
REMARK INTRA:                  -0.360
REMARK UNBOUND:                -0.552
REMARK  Name = 
REMARK  4 active torsions:
REMARK  status: ('A' for Active; 'I' for Inactive)
REMARK    1  A    between atoms: C_2  and  C_4
REMARK    2  A    between atoms: C_7  and  O_8
REMARK    3  A    between atoms: O_8  and  C_9
REMARK    4  A    between atoms: C_9  and  C_10
REMARK                            x       y       z     vdW  Elec       q    Type
REMARK                         _______ _______ _______ _____ _____    ______ ____
ROOT
ATOM      1  C   UNL     1      44.836   5.267  12.266  0.00  0.00    +0.000 A 
ATOM      2  C   UNL     1      44.921   3.886  12.146  0.00  0.00    +0.000 A 
ATOM      3  N   UNL     1      45.796   3.140  12.874  0.00  0.00    +0.000 NA
ATOM      4  C   UNL     1      46.570   3.840  13.733  0.00  0.00    +0.000 A 
ATOM      5  C   UNL     1      46.462   5.219  13.876  0.00  0.00    +0.000 A 
ATOM      6  N   UNL     1      45.608   5.976  13.140  0.00  0.00    +0.000 NA
ENDROOT
BRANCH   1   8
ATOM      7  N   UNL     1      44.092   7.380  11.342  0.00  0.00    +0.000 N 
ATOM      8  C   UNL     1      43.892   6.028  11.402  0.00  0.00    +0.000 C 
ATOM      9  O   UNL     1      42.998   5.478  10.768  0.00  0.00    +0.000 OA
ATOM     10  H   UNL     1      43.504   7.944  10.746  0.00  0.00    +0.000 HD
ATOM     11  H   UNL     1      44.860   7.805  11.851  0.00  0.00    +0.000 HD
ENDBRANCH   1   8
BRANCH   4  12
ATOM     12  O   UNL     1      47.473   3.180  14.537  0.00  0.00    +0.000 OA
BRANCH  12  13
ATOM     13  C   UNL     1      47.352   3.561  15.908  0.00  0.00    +0.000 C 
BRANCH  13  14
ATOM     14  C   UNL     1      48.719   3.441  16.547  0.00  0.00    +0.000 A 
ATOM     15  C   UNL     1      49.312   2.168  16.635  0.00  0.00    +0.000 A 
ATOM     16  C   UNL     1      50.566   2.001  17.229  0.00  0.00    +0.000 A 
ATOM     17  C   UNL     1      51.236   3.104  17.749  0.00  0.00    +0.000 A 
ATOM     18 CL   UNL     1      52.779   2.897  18.480  0.00  0.00    +0.000 Cl
ATOM     19  C   UNL     1      50.663   4.371  17.686  0.00  0.00    +0.000 A 
ATOM     20  C   UNL     1      49.407   4.538  17.092  0.00  0.00    +0.000 A 
ATOM     21 CL   UNL     1      48.747   6.134  17.063  0.00  0.00    +0.000 Cl
ENDBRANCH  13  14
ENDBRANCH  12  13
ENDBRANCH   4  12
TORSDOF 4
ENDMDL
MODEL 6
REMARK VINA RESULT:    -5.962      5.731      8.020
REMARK INTER + INTRA:          -7.909
REMARK INTER:                  -7.596
REMARK INTRA:                  -0.313
REMARK UNBOUND:                -0.552
REMARK  Name = 
REMARK  4 active torsions:
REMARK  status: ('A' for Active; 'I' for Inactive)
REMARK    1  A    between atoms: C_2  and  C_4
REMARK    2  A    between atoms: C_7  and  O_8
REMARK    3  A    between atoms: O_8  and  C_9
REMARK    4  A    between atoms: C_9  and  C_10
REMARK                            x       y       z     vdW  Elec       q    Type
REMARK                         _______ _______ _______ _____ _____    ______ ____
ROOT
ATOM      1  C   UNL     1      48.312   4.500  17.923  0.00  0.00    +0.000 A 
ATOM      2  C   UNL     1      47.611   3.450  17.345  0.00  0.00    +0.000 A 
ATOM      3  N   UNL     1      47.217   3.462  16.042  0.00  0.00    +0.000 NA
ATOM      4  C   UNL     1      47.567   4.567  15.347  0.00  0.00    +0.000 A 
ATOM      5  C   UNL     1      48.297   5.604  15.918  0.00  0.00    +0.000 A 
ATOM      6  N   UNL     1      48.678   5.613  17.221  0.00  0.00    +0.000 NA
ENDROOT
BRANCH   1   8
ATOM      7  N   UNL     1      48.355   3.283  20.019  0.00  0.00    +0.000 N 
ATOM      8  C   UNL     1      48.670   4.445  19.367  0.00  0.00    +0.000 C 
ATOM      9  O   UNL     1      49.227   5.376  19.938  0.00  0.00    +0.000 OA
ATOM     10  H   UNL     1      48.604   3.176  20.991  0.00  0.00    +0.000 HD
ATOM     11  H   UNL     1      47.924   2.517  19.514  0.00  0.00    +0.000 HD
ENDBRANCH   1   8
BRANCH   4  12
ATOM     12  O   UNL     1      47.239   4.671  14.013  0.00  0.00    +0.000 OA
BRANCH  12  13
ATOM     13  C   UNL     1      45.836   4.848  13.815  0.00  0.00    +0.000 C 
BRANCH  13  14
ATOM     14  C   UNL     1      45.540   4.618  12.349  0.00  0.00    +0.000 A 
ATOM     15  C   UNL     1      45.047   3.362  11.950  0.00  0.00    +0.000 A 
ATOM     16  C   UNL     1      44.771   3.093  10.607  0.00  0.00    +0.000 A 
ATOM     17  C   UNL     1      44.995   4.075   9.647  0.00  0.00    +0.000 A 
ATOM     18 CL   UNL     1      44.655   3.743   7.993  0.00  0.00    +0.000 Cl
ATOM     19  C   UNL     1      45.495   5.321  10.015  0.00  0.00    +0.000 A 
ATOM     20  C   UNL     1      45.772   5.589  11.360  0.00  0.00    +0.000 A 
ATOM     21 CL   UNL     1      46.408   7.149  11.746  0.00  0.00    +0.000 Cl
ENDBRANCH  13  14
ENDBRANCH  12  13
ENDBRANCH   4  12
TORSDOF 4
ENDMDL
MODEL 7
REMARK VINA RESULT:    -5.895      4.989      7.140
REMARK INTER + INTRA:          -7.826
REMARK INTER:                  -7.430
REMARK INTRA:                  -0.396
REMARK UNBOUND:                -0.552
REMARK  Name = 
REMARK  4 active torsions:
REMARK  status: ('A' for Active; 'I' for Inactive)
REMARK    1  A    between atoms: C_2  and  C_4
REMARK    2  A    between atoms: C_7  and  O_8
REMARK    3  A    between atoms: O_8  and  C_9
REMARK    4  A    between atoms: C_9  and  C_10
REMARK                            x       y       z     vdW  Elec       q    Type
REMARK                         _______ _______ _______ _____ _____    ______ ____
ROOT
ATOM      1  C   UNL     1      48.034   4.620  16.670  0.00  0.00    +0.000 A 
ATOM      2  C   UNL     1      48.647   5.769  16.189  0.00  0.00    +0.000 A 
ATOM      3  N   UNL     1      48.340   6.312  14.979  0.00  0.00    +0.000 NA
ATOM      4  C   UNL     1      47.385   5.656  14.281  0.00  0.00    +0.000 A 
ATOM      5  C   UNL     1      46.749   4.523  14.778  0.00  0.00    +0.000 A 
ATOM      6  N   UNL     1      47.061   3.961  15.974  0.00  0.00    +0.000 NA
ENDROOT
BRANCH   1   8
ATOM      7  N   UNL     1      47.719   2.988  18.434  0.00  0.00    +0.000 N 
ATOM      8  C   UNL     1      48.453   4.050  17.980  0.00  0.00    +0.000 C 
ATOM      9  O   UNL     1      49.407   4.493  18.609  0.00  0.00    +0.000 OA
ATOM     10  H   UNL     1      47.978   2.540  19.301  0.00  0.00    +0.000 HD
ATOM     11  H   UNL     1      46.954   2.622  17.878  0.00  0.00    +0.000 HD
ENDBRANCH   1   8
BRANCH   4  12
ATOM     12  O   UNL     1      46.980   6.135  13.055  0.00  0.00    +0.000 OA
BRANCH  12  13
ATOM     13  C   UNL     1      45.572   6.001  12.863  0.00  0.00    +0.000 C 
BRANCH  13  14
ATOM     14  C   UNL     1      45.347   5.291  11.545  0.00  0.00    +0.000 A 
ATOM     15  C   UNL     1      45.966   5.803  10.390  0.00  0.00    +0.000 A 
ATOM     16  C   UNL     1      45.779   5.194   9.147  0.00  0.00    +0.000 A 
ATOM     17  C   UNL     1      44.963   4.071   9.044  0.00  0.00    +0.000 A 
ATOM     18 CL   UNL     1      44.733   3.321   7.512  0.00  0.00    +0.000 Cl
ATOM     19  C   UNL     1      44.330   3.554  10.170  0.00  0.00    +0.000 A 
ATOM     20  C   UNL     1      44.516   4.166  11.415  0.00  0.00    +0.000 A 
ATOM     21 CL   UNL     1      43.686   3.484  12.768  0.00  0.00    +0.000 Cl
ENDBRANCH  13  14
ENDBRANCH  12  13
ENDBRANCH   4  12
TORSDOF 4
ENDMDL
MODEL 8
REMARK VINA RESULT:    -5.692      4.722      6.284
REMARK INTER + INTRA:          -7.575
REMARK INTER:                  -7.270
REMARK INTRA:                  -0.306
REMARK UNBOUND:                -0.552
REMARK  Name = 
REMARK  4 active torsions:
REMARK  status: ('A' for Active; 'I' for Inactive)
REMARK    1  A    between atoms: C_2  and  C_4
REMARK    2  A    between atoms: C_7  and  O_8
REMARK    3  A    between atoms: O_8  and  C_9
REMARK    4  A    between atoms: C_9  and  C_10
REMARK                            x       y       z     vdW  Elec       q    Type
REMARK                         _______ _______ _______ _____ _____    ______ ____
ROOT
ATOM      1  C   UNL     1      44.927   4.285  11.895  0.00  0.00    +0.000 A 
ATOM      2  C   UNL     1      45.526   3.208  12.535  0.00  0.00    +0.000 A 
ATOM      3  N   UNL     1      46.450   3.363  13.522  0.00  0.00    +0.000 NA
ATOM      4  C   UNL     1      46.737   4.645  13.844  0.00  0.00    +0.000 A 
ATOM      5  C   UNL     1      46.113   5.723  13.224  0.00  0.00    +0.000 A 
ATOM      6  N   UNL     1      45.205   5.581  12.225  0.00  0.00    +0.000 NA
ENDROOT
BRANCH   1   8
ATOM      7  N   UNL     1      43.750   5.097   9.939  0.00  0.00    +0.000 N 
ATOM      8  C   UNL     1      43.961   4.045  10.788  0.00  0.00    +0.000 C 
ATOM      9  O   UNL     1      43.399   2.967  10.634  0.00  0.00    +0.000 OA
ATOM     10  H   UNL     1      43.130   4.982   9.150  0.00  0.00    +0.000 HD
ATOM     11  H   UNL     1      44.253   5.968  10.071  0.00  0.00    +0.000 HD
ENDBRANCH   1   8
BRANCH   4  12
ATOM     12  O   UNL     1      47.640   4.915  14.847  0.00  0.00    +0.000 OA
BRANCH  12  13
ATOM     13  C   UNL     1      47.506   4.017  15.950  0.00  0.00    +0.000 C 
BRANCH  13  14
ATOM     14  C   UNL     1      48.462   4.464  17.034  0.00  0.00    +0.000 A 
ATOM     15  C   UNL     1      48.313   5.756  17.573  0.00  0.00    +0.000 A 
ATOM     16  C   UNL     1      49.179   6.223  18.565  0.00  0.00    +0.000 A 
ATOM     17  C   UNL     1      50.208   5.406  19.023  0.00  0.00    +0.000 A 
ATOM     18 CL   UNL     1      51.274   5.982  20.245  0.00  0.00    +0.000 Cl
ATOM     19  C   UNL     1      50.383   4.130  18.496  0.00  0.00    +0.000 A 
ATOM     20  C   UNL     1      49.517   3.663  17.501  0.00  0.00    +0.000 A 
ATOM     21 CL   UNL     1      49.802   2.077  16.878  0.00  0.00    +0.000 Cl
ENDBRANCH  13  14
ENDBRANCH  12  13
ENDBRANCH   4  12
TORSDOF 4
ENDMDL
MODEL 9
REMARK VINA RESULT:    -5.483      4.480      6.522
REMARK INTER + INTRA:          -7.318
REMARK INTER:                  -6.958
REMARK INTRA:                  -0.360
REMARK UNBOUND:                -0.552
REMARK  Name = 
REMARK  4 active torsions:
REMARK  status: ('A' for Active; 'I' for Inactive)
REMARK    1  A    between atoms: C_2  and  C_4
REMARK    2  A    between atoms: C_7  and  O_8
REMARK    3  A    between atoms: O_8  and  C_9
REMARK    4  A    between atoms: C_9  and  C_10
REMARK                            x       y       z     vdW  Elec       q    Type
REMARK                         _______ _______ _______ _____ _____    ______ ____
ROOT
ATOM      1  C   UNL     1      44.576   5.081  11.941  0.00  0.00    +0.000 A 
ATOM      2  C   UNL     1      44.836   3.775  12.333  0.00  0.00    +0.000 A 
ATOM      3  N   UNL     1      45.829   3.456  13.207  0.00  0.00    +0.000 NA
ATOM      4  C   UNL     1      46.539   4.507  13.677  0.00  0.00    +0.000 A 
ATOM      5  C   UNL     1      46.257   5.818  13.309  0.00  0.00    +0.000 A 
ATOM      6  N   UNL     1      45.282   6.146  12.422  0.00  0.00    +0.000 NA
ENDROOT
BRANCH   1   8
ATOM      7  N   UNL     1      42.666   6.395  11.233  0.00  0.00    +0.000 N 
ATOM      8  C   UNL     1      43.507   5.356  10.941  0.00  0.00    +0.000 C 
ATOM      9  O   UNL     1      43.394   4.702   9.910  0.00  0.00    +0.000 OA
ATOM     10  H   UNL     1      41.943   6.649  10.575  0.00  0.00    +0.000 HD
ATOM     11  H   UNL     1      42.803   6.940  12.077  0.00  0.00    +0.000 HD
ENDBRANCH   1   8
BRANCH   4  12
ATOM     12  O   UNL     1      47.551   4.299  14.587  0.00  0.00    +0.000 OA
BRANCH  12  13
ATOM     13  C   UNL     1      48.036   5.522  15.143  0.00  0.00    +0.000 C 
BRANCH  13  14
ATOM     14  C   UNL     1      48.268   5.302  16.622  0.00  0.00    +0.000 A 
ATOM     15  C   UNL     1      48.096   4.007  17.146  0.00  0.00    +0.000 A 
ATOM     16  C   UNL     1      48.283   3.753  18.506  0.00  0.00    +0.000 A 
ATOM     17  C   UNL     1      48.636   4.794  19.361  0.00  0.00    +0.000 A 
ATOM     18 CL   UNL     1      48.866   4.481  21.036  0.00  0.00    +0.000 Cl
ATOM     19  C   UNL     1      48.799   6.086  18.868  0.00  0.00    +0.000 A 
ATOM     20  C   UNL     1      48.610   6.339  17.505  0.00  0.00    +0.000 A 
ATOM     21 CL   UNL     1      48.811   7.968  16.964  0.00  0.00    +0.000 Cl
ENDBRANCH  13  14
ENDBRANCH  12  13
ENDBRANCH   4  12
TORSDOF 4
ENDMDL
