MODEL 1
REMARK VINA RESULT:    -6.766      0.000      0.000
REMARK INTER + INTRA:          -9.193
REMARK INTER:                  -9.140
REMARK INTRA:                  -0.053
REMARK UNBOUND:                -0.053
REMARK  Name = 
REMARK  10 active torsions:
REMARK  status: ('A' for Active; 'I' for Inactive)
REMARK    1  A    between atoms: C_1  and  C_2
REMARK    2  A    between atoms: C_2  and  C_3
REMARK    3  A    between atoms: C_2  and  C_4
REMARK    4  A    between atoms: C_2  and  C_5
REMARK    5  A    between atoms: C_9  and  C_10
REMARK    6  A    between atoms: C_10  and  O_12
REMARK    7  A    between atoms: N_16  and  C_17
REMARK    8  A    between atoms: C_17  and  C_18
REMARK    9  A    between atoms: C_21  and  C_22
REMARK   10  A    between atoms: C_22  and  N_23
REMARK                            x       y       z     vdW  Elec       q    Type
REMARK                         _______ _______ _______ _____ _____    ______ ____
ROOT
ATOM      1  C   UNL     1      44.774   4.939  12.393  0.00  0.00    +0.000 A 
ATOM      2  N   UNL     1      45.610   5.035  13.426  0.00  0.00    +0.000 NA
ATOM      3  C   UNL     1      46.669   5.789  13.007  0.00  0.00    +0.000 A 
ATOM      4  C   UNL     1      47.830   6.221  13.670  0.00  0.00    +0.000 A 
ATOM      5  C   UNL     1      48.737   7.004  12.966  0.00  0.00    +0.000 A 
ATOM      6  C   UNL     1      48.453   7.322  11.629  0.00  0.00    +0.000 A 
ATOM      7  N   UNL     1      47.324   6.933  10.949  0.00  0.00    +0.000 NA
ATOM      8  C   UNL     1      46.498   6.172  11.680  0.00  0.00    +0.000 A 
ATOM      9  N   UNL     1      45.343   5.538  11.274  0.00  0.00    +0.000 N 
ENDROOT
BRANCH   1  11
ATOM     10  C   UNL     1      42.370   5.152  11.725  0.00  0.00    +0.000 C 
ATOM     11  C   UNL     1      43.409   4.256  12.434  0.00  0.00    +0.000 C 
ATOM     12  C   UNL     1      42.931   4.064  13.881  0.00  0.00    +0.000 C 
ATOM     13  C   UNL     1      43.418   2.872  11.758  0.00  0.00    +0.000 C 
ENDBRANCH   1  11
BRANCH   5  14
ATOM     14  C   UNL     1      50.004   7.465  13.602  0.00  0.00    +0.000 C 
ATOM     15  O   UNL     1      50.720   8.287  13.098  0.00  0.00    +0.000 OA
BRANCH  14  16
ATOM     16  O   UNL     1      50.288   6.899  14.807  0.00  0.00    +0.000 OA
ATOM     17  H   UNL     1      49.633   6.322  15.238  0.00  0.00    +0.000 HD
ENDBRANCH  14  16
ENDBRANCH   5  14
BRANCH   9  18
ATOM     18  C   UNL     1      44.850   5.511   9.905  0.00  0.00    +0.000 C 
BRANCH  18  19
ATOM     19  C   UNL     1      45.429   4.441   9.031  0.00  0.00    +0.000 A 
ATOM     20  C   UNL     1      46.322   4.750   7.991  0.00  0.00    +0.000 A 
ATOM     21  C   UNL     1      46.943   3.716   7.299  0.00  0.00    +0.000 A 
ATOM     22  C   UNL     1      46.651   2.398   7.642  0.00  0.00    +0.000 A 
ATOM     23  N   UNL     1      45.762   2.083   8.617  0.00  0.00    +0.000 NA
ATOM     24  C   UNL     1      45.187   3.103   9.284  0.00  0.00    +0.000 A 
BRANCH  22  25
ATOM     25  C   UNL     1      47.346   1.260   6.932  0.00  0.00    +0.000 C 
BRANCH  25  26
ATOM     26  N   UNL     1      48.345   1.717   5.959  0.00  0.00    +0.000 NA
ATOM     27  H   UNL     1      48.166   2.703   5.769  0.00  0.00    +0.000 HD
ATOM     28  H   UNL     1      48.204   1.219   5.080  0.00  0.00    +0.000 HD
ENDBRANCH  25  26
ENDBRANCH  22  25
ENDBRANCH  18  19
ENDBRANCH   9  18
TORSDOF 7
ENDMDL
MODEL 2
REMARK VINA RESULT:    -6.266      4.413      7.627
REMARK INTER + INTRA:          -8.518
REMARK INTER:                  -8.293
REMARK INTRA:                  -0.225
REMARK UNBOUND:                -0.053
REMARK  Name = 
REMARK  10 active torsions:
REMARK  status: ('A' for Active; 'I' for Inactive)
REMARK    1  A    between atoms: C_1  and  C_2
REMARK    2  A    between atoms: C_2  and  C_3
REMARK    3  A    between atoms: C_2  and  C_4
REMARK    4  A    between atoms: C_2  and  C_5
REMARK    5  A    between atoms: C_9  and  C_10
REMARK    6  A    between atoms: C_10  and  O_12
REMARK    7  A    between atoms: N_16  and  C_17
REMARK    8  A    between atoms: C_17  and  C_18
REMARK    9  A    between atoms: C_21  and  C_22
REMARK   10  A    between atoms: C_22  and  N_23
REMARK                            x       y       z     vdW  Elec       q    Type
REMARK                         _______ _______ _______ _____ _____    ______ ____
ROOT
ATOM      1  C   UNL     1      48.295   6.729  14.847  0.00  0.00    +0.000 A 
ATOM      2  N   UNL     1      48.143   6.998  13.551  0.00  0.00    +0.000 NA
ATOM      3  C   UNL     1      47.201   6.130  13.077  0.00  0.00    +0.000 A 
ATOM      4  C   UNL     1      46.638   5.967  11.799  0.00  0.00    +0.000 A 
ATOM      5  C   UNL     1      45.671   4.984  11.627  0.00  0.00    +0.000 A 
ATOM      6  C   UNL     1      45.305   4.201  12.733  0.00  0.00    +0.000 A 
ATOM      7  N   UNL     1      45.819   4.338  14.001  0.00  0.00    +0.000 NA
ATOM      8  C   UNL     1      46.753   5.294  14.095  0.00  0.00    +0.000 A 
ATOM      9  N   UNL     1      47.532   5.616  15.186  0.00  0.00    +0.000 N 
ENDROOT
BRANCH   1  11
ATOM     10  C   UNL     1      49.330   8.965  15.291  0.00  0.00    +0.000 C 
ATOM     11  C   UNL     1      49.189   7.515  15.803  0.00  0.00    +0.000 C 
ATOM     12  C   UNL     1      50.601   6.914  15.859  0.00  0.00    +0.000 C 
ATOM     13  C   UNL     1      48.637   7.547  17.240  0.00  0.00    +0.000 C 
ENDBRANCH   1  11
BRANCH   5  14
ATOM     14  C   UNL     1      45.061   4.738  10.289  0.00  0.00    +0.000 C 
ATOM     15  O   UNL     1      44.178   3.941  10.117  0.00  0.00    +0.000 OA
BRANCH  14  16
ATOM     16  O   UNL     1      45.565   5.490   9.274  0.00  0.00    +0.000 OA
ATOM     17  H   UNL     1      46.526   5.634   9.207  0.00  0.00    +0.000 HD
ENDBRANCH  14  16
ENDBRANCH   5  14
BRANCH   9  18
ATOM     18  C   UNL     1      47.538   4.886  16.445  0.00  0.00    +0.000 C 
BRANCH  18  19
ATOM     19  C   UNL     1      48.686   3.944  16.641  0.00  0.00    +0.000 A 
ATOM     20  C   UNL     1      49.750   4.259  17.503  0.00  0.00    +0.000 A 
ATOM     21  C   UNL     1      50.720   3.297  17.764  0.00  0.00    +0.000 A 
ATOM     22  C   UNL     1      50.622   2.051  17.150  0.00  0.00    +0.000 A 
ATOM     23  N   UNL     1      49.622   1.745  16.286  0.00  0.00    +0.000 NA
ATOM     24  C   UNL     1      48.686   2.688  16.063  0.00  0.00    +0.000 A 
BRANCH  22  25
ATOM     25  C   UNL     1      51.641   0.977  17.452  0.00  0.00    +0.000 C 
BRANCH  25  26
ATOM     26  N   UNL     1      52.695   1.429  18.368  0.00  0.00    +0.000 NA
ATOM     27  H   UNL     1      52.480   1.062  19.295  0.00  0.00    +0.000 HD
ATOM     28  H   UNL     1      52.659   2.445  18.439  0.00  0.00    +0.000 HD
ENDBRANCH  25  26
ENDBRANCH  22  25
ENDBRANCH  18  19
ENDBRANCH   9  18
TORSDOF 7
ENDMDL
MODEL 3
REMARK VINA RESULT:    -6.087      3.108      5.479
REMARK INTER + INTRA:          -8.276
REMARK INTER:                  -8.072
REMARK INTRA:                  -0.203
REMARK UNBOUND:                -0.053
REMARK  Name = 
REMARK  10 active torsions:
REMARK  status: ('A' for Active; 'I' for Inactive)
REMARK    1  A    between atoms: C_1  and  C_2
REMARK    2  A    between atoms: C_2  and  C_3
REMARK    3  A    between atoms: C_2  and  C_4
REMARK    4  A    between atoms: C_2  and  C_5
REMARK    5  A    between atoms: C_9  and  C_10
REMARK    6  A    between atoms: C_10  and  O_12
REMARK    7  A    between atoms: N_16  and  C_17
REMARK    8  A    between atoms: C_17  and  C_18
REMARK    9  A    between atoms: C_21  and  C_22
REMARK   10  A    between atoms: C_22  and  N_23
REMARK                            x       y       z     vdW  Elec       q    Type
REMARK                         _______ _______ _______ _____ _____    ______ ____
ROOT
ATOM      1  C   UNL     1      45.193   4.556  12.606  0.00  0.00    +0.000 A 
ATOM      2  N   UNL     1      45.530   3.854  13.686  0.00  0.00    +0.000 NA
ATOM      3  C   UNL     1      46.522   4.551  14.315  0.00  0.00    +0.000 A 
ATOM      4  C   UNL     1      47.240   4.298  15.497  0.00  0.00    +0.000 A 
ATOM      5  C   UNL     1      48.200   5.221  15.895  0.00  0.00    +0.000 A 
ATOM      6  C   UNL     1      48.408   6.357  15.098  0.00  0.00    +0.000 A 
ATOM      7  N   UNL     1      47.719   6.650  13.946  0.00  0.00    +0.000 NA
ATOM      8  C   UNL     1      46.818   5.716  13.613  0.00  0.00    +0.000 A 
ATOM      9  N   UNL     1      46.041   5.651  12.476  0.00  0.00    +0.000 N 
ENDROOT
BRANCH   1  11
ATOM     10  C   UNL     1      42.844   5.102  11.934  0.00  0.00    +0.000 C 
ATOM     11  C   UNL     1      44.060   4.194  11.648  0.00  0.00    +0.000 C 
ATOM     12  C   UNL     1      43.603   2.743  11.856  0.00  0.00    +0.000 C 
ATOM     13  C   UNL     1      44.461   4.350  10.169  0.00  0.00    +0.000 C 
ENDBRANCH   1  11
BRANCH   5  14
ATOM     14  C   UNL     1      49.018   4.992  17.119  0.00  0.00    +0.000 C 
ATOM     15  O   UNL     1      48.692   5.400  18.201  0.00  0.00    +0.000 OA
BRANCH  14  16
ATOM     16  O   UNL     1      50.159   4.275  16.930  0.00  0.00    +0.000 OA
ATOM     17  H   UNL     1      50.933   4.435  17.500  0.00  0.00    +0.000 HD
ENDBRANCH  14  16
ENDBRANCH   5  14
BRANCH   9  18
ATOM     18  C   UNL     1      46.132   6.575  11.356  0.00  0.00    +0.000 C 
BRANCH  18  19
ATOM     19  C   UNL     1      45.351   7.846  11.500  0.00  0.00    +0.000 A 
ATOM     20  C   UNL     1      45.919   8.991  12.084  0.00  0.00    +0.000 A 
ATOM     21  C   UNL     1      45.208  10.185  12.067  0.00  0.00    +0.000 A 
ATOM     22  C   UNL     1      43.942  10.214  11.487  0.00  0.00    +0.000 A 
ATOM     23  N   UNL     1      43.364   9.109  10.954  0.00  0.00    +0.000 NA
ATOM     24  C   UNL     1      44.081   7.967  10.968  0.00  0.00    +0.000 A 
BRANCH  22  25
ATOM     25  C   UNL     1      43.169  11.510  11.421  0.00  0.00    +0.000 C 
BRANCH  25  26
ATOM     26  N   UNL     1      41.940  11.486  12.222  0.00  0.00    +0.000 NA
ATOM     27  H   UNL     1      41.904  10.591  12.709  0.00  0.00    +0.000 HD
ATOM     28  H   UNL     1      41.136  11.512  11.596  0.00  0.00    +0.000 HD
ENDBRANCH  25  26
ENDBRANCH  22  25
ENDBRANCH  18  19
ENDBRANCH   9  18
TORSDOF 7
ENDMDL
MODEL 4
REMARK VINA RESULT:    -6.066      3.594      5.927
REMARK INTER + INTRA:          -8.247
REMARK INTER:                  -7.721
REMARK INTRA:                  -0.526
REMARK UNBOUND:                -0.053
REMARK  Name = 
REMARK  10 active torsions:
REMARK  status: ('A' for Active; 'I' for Inactive)
REMARK    1  A    between atoms: C_1  and  C_2
REMARK    2  A    between atoms: C_2  and  C_3
REMARK    3  A    between atoms: C_2  and  C_4
REMARK    4  A    between atoms: C_2  and  C_5
REMARK    5  A    between atoms: C_9  and  C_10
REMARK    6  A    between atoms: C_10  and  O_12
REMARK    7  A    between atoms: N_16  and  C_17
REMARK    8  A    between atoms: C_17  and  C_18
REMARK    9  A    between atoms: C_21  and  C_22
REMARK   10  A    between atoms: C_22  and  N_23
REMARK                            x       y       z     vdW  Elec       q    Type
REMARK                         _______ _______ _______ _____ _____    ______ ____
ROOT
ATOM      1  C   UNL     1      48.492   8.512  14.153  0.00  0.00    +0.000 A 
ATOM      2  N   UNL     1      48.504   8.916  15.422  0.00  0.00    +0.000 NA
ATOM      3  C   UNL     1      48.584   7.791  16.193  0.00  0.00    +0.000 A 
ATOM      4  C   UNL     1      48.643   7.614  17.586  0.00  0.00    +0.000 A 
ATOM      5  C   UNL     1      48.733   6.318  18.081  0.00  0.00    +0.000 A 
ATOM      6  C   UNL     1      48.757   5.252  17.169  0.00  0.00    +0.000 A 
ATOM      7  N   UNL     1      48.716   5.382  15.801  0.00  0.00    +0.000 NA
ATOM      8  C   UNL     1      48.618   6.654  15.391  0.00  0.00    +0.000 A 
ATOM      9  N   UNL     1      48.453   7.122  14.105  0.00  0.00    +0.000 N 
ENDROOT
BRANCH   1  11
ATOM     10  C   UNL     1      49.040  10.824  13.363  0.00  0.00    +0.000 C 
ATOM     11  C   UNL     1      48.499   9.440  12.941  0.00  0.00    +0.000 C 
ATOM     12  C   UNL     1      47.078   9.654  12.400  0.00  0.00    +0.000 C 
ATOM     13  C   UNL     1      49.362   8.900  11.785  0.00  0.00    +0.000 C 
ENDBRANCH   1  11
BRANCH   5  14
ATOM     14  C   UNL     1      48.766   6.061  19.549  0.00  0.00    +0.000 C 
ATOM     15  O   UNL     1      49.471   6.679  20.299  0.00  0.00    +0.000 OA
BRANCH  14  16
ATOM     16  O   UNL     1      47.927   5.082  19.986  0.00  0.00    +0.000 OA
ATOM     17  H   UNL     1      46.975   5.136  19.790  0.00  0.00    +0.000 HD
ENDBRANCH  14  16
ENDBRANCH   5  14
BRANCH   9  18
ATOM     18  C   UNL     1      48.260   6.279  12.935  0.00  0.00    +0.000 C 
BRANCH  18  19
ATOM     19  C   UNL     1      46.836   5.956  12.599  0.00  0.00    +0.000 A 
ATOM     20  C   UNL     1      46.289   6.283  11.346  0.00  0.00    +0.000 A 
ATOM     21  C   UNL     1      45.011   5.838  11.027  0.00  0.00    +0.000 A 
ATOM     22  C   UNL     1      44.297   5.094  11.964  0.00  0.00    +0.000 A 
ATOM     23  N   UNL     1      44.796   4.803  13.191  0.00  0.00    +0.000 NA
ATOM     24  C   UNL     1      46.044   5.231  13.470  0.00  0.00    +0.000 A 
BRANCH  22  25
ATOM     25  C   UNL     1      42.924   4.564  11.622  0.00  0.00    +0.000 C 
BRANCH  25  26
ATOM     26  N   UNL     1      42.898   3.106  11.454  0.00  0.00    +0.000 NA
ATOM     27  H   UNL     1      43.566   2.865  10.723  0.00  0.00    +0.000 HD
ATOM     28  H   UNL     1      41.978   2.828  11.114  0.00  0.00    +0.000 HD
ENDBRANCH  25  26
ENDBRANCH  22  25
ENDBRANCH  18  19
ENDBRANCH   9  18
TORSDOF 7
ENDMDL
MODEL 5
REMARK VINA RESULT:    -5.425      3.611      5.858
REMARK INTER + INTRA:          -7.381
REMARK INTER:                  -6.978
REMARK INTRA:                  -0.402
REMARK UNBOUND:                -0.053
REMARK  Name = 
REMARK  10 active torsions:
REMARK  status: ('A' for Active; 'I' for Inactive)
REMARK    1  A    between atoms: C_1  and  C_2
REMARK    2  A    between atoms: C_2  and  C_3
REMARK    3  A    between atoms: C_2  and  C_4
REMARK    4  A    between atoms: C_2  and  C_5
REMARK    5  A    between atoms: C_9  and  C_10
REMARK    6  A    between atoms: C_10  and  O_12
REMARK    7  A    between atoms: N_16  and  C_17
REMARK    8  A    between atoms: C_17  and  C_18
REMARK    9  A    between atoms: C_21  and  C_22
REMARK   10  A    between atoms: C_22  and  N_23
REMARK                            x       y       z     vdW  Elec       q    Type
REMARK                         _______ _______ _______ _____ _____    ______ ____
ROOT
ATOM      1  C   UNL     1      46.192   5.378  13.121  0.00  0.00    +0.000 A 
ATOM      2  N   UNL     1      46.280   4.187  13.712  0.00  0.00    +0.000 NA
ATOM      3  C   UNL     1      47.137   4.332  14.765  0.00  0.00    +0.000 A 
ATOM      4  C   UNL     1      47.587   3.421  15.736  0.00  0.00    +0.000 A 
ATOM      5  C   UNL     1      48.468   3.879  16.709  0.00  0.00    +0.000 A 
ATOM      6  C   UNL     1      48.867   5.224  16.673  0.00  0.00    +0.000 A 
ATOM      7  N   UNL     1      48.440   6.150  15.752  0.00  0.00    +0.000 NA
ATOM      8  C   UNL     1      47.603   5.641  14.836  0.00  0.00    +0.000 A 
ATOM      9  N   UNL     1      47.077   6.266  13.726  0.00  0.00    +0.000 N 
ENDROOT
BRANCH   1  11
ATOM     10  C   UNL     1      44.499   7.005  12.254  0.00  0.00    +0.000 C 
ATOM     11  C   UNL     1      45.273   5.705  11.947  0.00  0.00    +0.000 C 
ATOM     12  C   UNL     1      44.233   4.596  11.734  0.00  0.00    +0.000 C 
ATOM     13  C   UNL     1      46.042   5.885  10.624  0.00  0.00    +0.000 C 
ENDBRANCH   1  11
BRANCH   5  14
ATOM     14  C   UNL     1      49.009   2.955  17.747  0.00  0.00    +0.000 C 
ATOM     15  O   UNL     1      50.001   2.300  17.577  0.00  0.00    +0.000 OA
BRANCH  14  16
ATOM     16  O   UNL     1      48.305   2.914  18.911  0.00  0.00    +0.000 OA
ATOM     17  H   UNL     1      47.878   3.721  19.248  0.00  0.00    +0.000 HD
ENDBRANCH  14  16
ENDBRANCH   5  14
BRANCH   9  18
ATOM     18  C   UNL     1      47.423   7.610  13.289  0.00  0.00    +0.000 C 
BRANCH  18  19
ATOM     19  C   UNL     1      48.843   7.802  12.851  0.00  0.00    +0.000 A 
ATOM     20  C   UNL     1      49.281   7.378  11.585  0.00  0.00    +0.000 A 
ATOM     21  C   UNL     1      50.567   7.704  11.168  0.00  0.00    +0.000 A 
ATOM     22  C   UNL     1      51.396   8.427  12.023  0.00  0.00    +0.000 A 
ATOM     23  N   UNL     1      51.001   8.810  13.262  0.00  0.00    +0.000 NA
ATOM     24  C   UNL     1      49.744   8.496  13.637  0.00  0.00    +0.000 A 
BRANCH  22  25
ATOM     25  C   UNL     1      52.781   8.828  11.573  0.00  0.00    +0.000 C 
BRANCH  25  26
ATOM     26  N   UNL     1      53.099   8.367  10.216  0.00  0.00    +0.000 NA
ATOM     27  H   UNL     1      52.319   8.622   9.611  0.00  0.00    +0.000 HD
ATOM     28  H   UNL     1      53.150   7.349  10.215  0.00  0.00    +0.000 HD
ENDBRANCH  25  26
ENDBRANCH  22  25
ENDBRANCH  18  19
ENDBRANCH   9  18
TORSDOF 7
ENDMDL
MODEL 6
REMARK VINA RESULT:    -5.375      3.848      7.721
REMARK INTER + INTRA:          -7.314
REMARK INTER:                  -6.826
REMARK INTRA:                  -0.488
REMARK UNBOUND:                -0.053
REMARK  Name = 
REMARK  10 active torsions:
REMARK  status: ('A' for Active; 'I' for Inactive)
REMARK    1  A    between atoms: C_1  and  C_2
REMARK    2  A    between atoms: C_2  and  C_3
REMARK    3  A    between atoms: C_2  and  C_4
REMARK    4  A    between atoms: C_2  and  C_5
REMARK    5  A    between atoms: C_9  and  C_10
REMARK    6  A    between atoms: C_10  and  O_12
REMARK    7  A    between atoms: N_16  and  C_17
REMARK    8  A    between atoms: C_17  and  C_18
REMARK    9  A    between atoms: C_21  and  C_22
REMARK   10  A    between atoms: C_22  and  N_23
REMARK                            x       y       z     vdW  Elec       q    Type
REMARK                         _______ _______ _______ _____ _____    ______ ____
ROOT
ATOM      1  C   UNL     1      48.789   8.183  12.536  0.00  0.00    +0.000 A 
ATOM      2  N   UNL     1      48.400   7.660  11.375  0.00  0.00    +0.000 NA
ATOM      3  C   UNL     1      47.295   6.901  11.635  0.00  0.00    +0.000 A 
ATOM      4  C   UNL     1      46.465   6.138  10.796  0.00  0.00    +0.000 A 
ATOM      5  C   UNL     1      45.386   5.472  11.366  0.00  0.00    +0.000 A 
ATOM      6  C   UNL     1      45.179   5.591  12.748  0.00  0.00    +0.000 A 
ATOM      7  N   UNL     1      45.955   6.339  13.601  0.00  0.00    +0.000 NA
ATOM      8  C   UNL     1      46.984   6.944  12.991  0.00  0.00    +0.000 A 
ATOM      9  N   UNL     1      48.001   7.676  13.565  0.00  0.00    +0.000 N 
ENDROOT
BRANCH   1  11
ATOM     10  C   UNL     1      50.150   9.941  11.384  0.00  0.00    +0.000 C 
ATOM     11  C   UNL     1      49.939   9.173  12.707  0.00  0.00    +0.000 C 
ATOM     12  C   UNL     1      51.253   8.444  13.024  0.00  0.00    +0.000 C 
ATOM     13  C   UNL     1      49.684  10.189  13.836  0.00  0.00    +0.000 C 
ENDBRANCH   1  11
BRANCH   5  14
ATOM     14  C   UNL     1      44.489   4.619  10.535  0.00  0.00    +0.000 C 
ATOM     15  O   UNL     1      44.726   3.465  10.302  0.00  0.00    +0.000 OA
BRANCH  14  16
ATOM     16  O   UNL     1      43.370   5.237  10.067  0.00  0.00    +0.000 OA
ATOM     17  H   UNL     1      42.496   4.990  10.420  0.00  0.00    +0.000 HD
ENDBRANCH  14  16
ENDBRANCH   5  14
BRANCH   9  18
ATOM     18  C   UNL     1      48.192   7.849  14.997  0.00  0.00    +0.000 C 
BRANCH  18  19
ATOM     19  C   UNL     1      48.999   6.783  15.675  0.00  0.00    +0.000 A 
ATOM     20  C   UNL     1      50.352   6.983  15.994  0.00  0.00    +0.000 A 
ATOM     21  C   UNL     1      51.021   6.026  16.749  0.00  0.00    +0.000 A 
ATOM     22  C   UNL     1      50.337   4.883  17.155  0.00  0.00    +0.000 A 
ATOM     23  N   UNL     1      49.041   4.657  16.823  0.00  0.00    +0.000 NA
ATOM     24  C   UNL     1      48.411   5.608  16.106  0.00  0.00    +0.000 A 
BRANCH  22  25
ATOM     25  C   UNL     1      51.031   3.850  18.011  0.00  0.00    +0.000 C 
BRANCH  25  26
ATOM     26  N   UNL     1      50.603   2.477  17.713  0.00  0.00    +0.000 NA
ATOM     27  H   UNL     1      50.907   1.883  18.483  0.00  0.00    +0.000 HD
ATOM     28  H   UNL     1      51.093   2.152  16.880  0.00  0.00    +0.000 HD
ENDBRANCH  25  26
ENDBRANCH  22  25
ENDBRANCH  18  19
ENDBRANCH   9  18
TORSDOF 7
ENDMDL
MODEL 7
REMARK VINA RESULT:    -5.361      4.775      7.012
REMARK INTER + INTRA:          -7.295
REMARK INTER:                  -6.807
REMARK INTRA:                  -0.488
REMARK UNBOUND:                -0.053
REMARK  Name = 
REMARK  10 active torsions:
REMARK  status: ('A' for Active; 'I' for Inactive)
REMARK    1  A    between atoms: C_1  and  C_2
REMARK    2  A    between atoms: C_2  and  C_3
REMARK    3  A    between atoms: C_2  and  C_4
REMARK    4  A    between atoms: C_2  and  C_5
REMARK    5  A    between atoms: C_9  and  C_10
REMARK    6  A    between atoms: C_10  and  O_12
REMARK    7  A    between atoms: N_16  and  C_17
REMARK    8  A    between atoms: C_17  and  C_18
REMARK    9  A    between atoms: C_21  and  C_22
REMARK   10  A    between atoms: C_22  and  N_23
REMARK                            x       y       z     vdW  Elec       q    Type
REMARK                         _______ _______ _______ _____ _____    ______ ____
ROOT
ATOM      1  C   UNL     1      50.064   7.882  13.973  0.00  0.00    +0.000 A 
ATOM      2  N   UNL     1      50.162   7.559  15.262  0.00  0.00    +0.000 NA
ATOM      3  C   UNL     1      49.226   6.593  15.499  0.00  0.00    +0.000 A 
ATOM      4  C   UNL     1      48.891   5.880  16.662  0.00  0.00    +0.000 A 
ATOM      5  C   UNL     1      47.879   4.931  16.584  0.00  0.00    +0.000 A 
ATOM      6  C   UNL     1      47.238   4.734  15.352  0.00  0.00    +0.000 A 
ATOM      7  N   UNL     1      47.544   5.398  14.188  0.00  0.00    +0.000 NA
ATOM      8  C   UNL     1      48.519   6.306  14.335  0.00  0.00    +0.000 A 
ATOM      9  N   UNL     1      48.991   7.205  13.403  0.00  0.00    +0.000 N 
ENDROOT
BRANCH   1  11
ATOM     10  C   UNL     1      52.349   8.904  13.959  0.00  0.00    +0.000 C 
ATOM     11  C   UNL     1      50.980   8.863  13.247  0.00  0.00    +0.000 C 
ATOM     12  C   UNL     1      50.406  10.287  13.284  0.00  0.00    +0.000 C 
ATOM     13  C   UNL     1      51.199   8.487  11.769  0.00  0.00    +0.000 C 
ENDBRANCH   1  11
BRANCH   5  14
ATOM     14  C   UNL     1      47.454   4.165  17.790  0.00  0.00    +0.000 C 
ATOM     15  O   UNL     1      47.896   3.081  18.058  0.00  0.00    +0.000 OA
BRANCH  14  16
ATOM     16  O   UNL     1      46.536   4.787  18.580  0.00  0.00    +0.000 OA
ATOM     17  H   UNL     1      46.663   4.812  19.545  0.00  0.00    +0.000 HD
ENDBRANCH  14  16
ENDBRANCH   5  14
BRANCH   9  18
ATOM     18  C   UNL     1      48.428   7.393  12.074  0.00  0.00    +0.000 C 
BRANCH  18  19
ATOM     19  C   UNL     1      47.175   8.212  12.012  0.00  0.00    +0.000 A 
ATOM     20  C   UNL     1      47.218   9.616  12.028  0.00  0.00    +0.000 A 
ATOM     21  C   UNL     1      46.044  10.334  11.825  0.00  0.00    +0.000 A 
ATOM     22  C   UNL     1      44.851   9.642  11.630  0.00  0.00    +0.000 A 
ATOM     23  N   UNL     1      44.786   8.288  11.650  0.00  0.00    +0.000 NA
ATOM     24  C   UNL     1      45.941   7.615  11.831  0.00  0.00    +0.000 A 
BRANCH  22  25
ATOM     25  C   UNL     1      43.571  10.401  11.366  0.00  0.00    +0.000 C 
BRANCH  25  26
ATOM     26  N   UNL     1      42.463   9.530  10.955  0.00  0.00    +0.000 NA
ATOM     27  H   UNL     1      42.850   8.792  10.367  0.00  0.00    +0.000 HD
ATOM     28  H   UNL     1      41.821  10.064  10.371  0.00  0.00    +0.000 HD
ENDBRANCH  25  26
ENDBRANCH  22  25
ENDBRANCH  18  19
ENDBRANCH   9  18
TORSDOF 7
ENDMDL
MODEL 8
REMARK VINA RESULT:    -5.204      5.605      8.391
REMARK INTER + INTRA:          -7.083
REMARK INTER:                  -6.843
REMARK INTRA:                  -0.240
REMARK UNBOUND:                -0.053
REMARK  Name = 
REMARK  10 active torsions:
REMARK  status: ('A' for Active; 'I' for Inactive)
REMARK    1  A    between atoms: C_1  and  C_2
REMARK    2  A    between atoms: C_2  and  C_3
REMARK    3  A    between atoms: C_2  and  C_4
REMARK    4  A    between atoms: C_2  and  C_5
REMARK    5  A    between atoms: C_9  and  C_10
REMARK    6  A    between atoms: C_10  and  O_12
REMARK    7  A    between atoms: N_16  and  C_17
REMARK    8  A    between atoms: C_17  and  C_18
REMARK    9  A    between atoms: C_21  and  C_22
REMARK   10  A    between atoms: C_22  and  N_23
REMARK                            x       y       z     vdW  Elec       q    Type
REMARK                         _______ _______ _______ _____ _____    ______ ____
ROOT
ATOM      1  C   UNL     1      50.486   5.699  18.724  0.00  0.00    +0.000 A 
ATOM      2  N   UNL     1      51.644   5.120  19.037  0.00  0.00    +0.000 NA
ATOM      3  C   UNL     1      51.641   3.889  18.445  0.00  0.00    +0.000 A 
ATOM      4  C   UNL     1      52.598   2.860  18.423  0.00  0.00    +0.000 A 
ATOM      5  C   UNL     1      52.305   1.705  17.707  0.00  0.00    +0.000 A 
ATOM      6  C   UNL     1      51.070   1.620  17.047  0.00  0.00    +0.000 A 
ATOM      7  N   UNL     1      50.114   2.608  17.031  0.00  0.00    +0.000 NA
ATOM      8  C   UNL     1      50.454   3.688  17.748  0.00  0.00    +0.000 A 
ATOM      9  N   UNL     1      49.689   4.802  18.022  0.00  0.00    +0.000 N 
ENDROOT
BRANCH   1  11
ATOM     10  C   UNL     1      50.966   7.598  20.284  0.00  0.00    +0.000 C 
ATOM     11  C   UNL     1      50.093   7.126  19.101  0.00  0.00    +0.000 C 
ATOM     12  C   UNL     1      48.630   7.192  19.562  0.00  0.00    +0.000 C 
ATOM     13  C   UNL     1      50.261   8.116  17.934  0.00  0.00    +0.000 C 
ENDBRANCH   1  11
BRANCH   5  14
ATOM     14  C   UNL     1      53.263   0.563  17.673  0.00  0.00    +0.000 C 
ATOM     15  O   UNL     1      54.268   0.581  17.015  0.00  0.00    +0.000 OA
BRANCH  14  16
ATOM     16  O   UNL     1      52.926  -0.501  18.451  0.00  0.00    +0.000 OA
ATOM     17  H   UNL     1      51.997  -0.786  18.508  0.00  0.00    +0.000 HD
ENDBRANCH  14  16
ENDBRANCH   5  14
BRANCH   9  18
ATOM     18  C   UNL     1      48.294   4.964  17.639  0.00  0.00    +0.000 C 
BRANCH  18  19
ATOM     19  C   UNL     1      48.046   5.190  16.179  0.00  0.00    +0.000 A 
ATOM     20  C   UNL     1      47.126   4.405  15.464  0.00  0.00    +0.000 A 
ATOM     21  C   UNL     1      46.823   4.742  14.149  0.00  0.00    +0.000 A 
ATOM     22  C   UNL     1      47.453   5.840  13.568  0.00  0.00    +0.000 A 
ATOM     23  N   UNL     1      48.372   6.584  14.232  0.00  0.00    +0.000 NA
ATOM     24  C   UNL     1      48.635   6.247  15.510  0.00  0.00    +0.000 A 
BRANCH  22  25
ATOM     25  C   UNL     1      47.108   6.249  12.155  0.00  0.00    +0.000 C 
BRANCH  25  26
ATOM     26  N   UNL     1      45.777   5.792  11.735  0.00  0.00    +0.000 NA
ATOM     27  H   UNL     1      45.552   6.256  10.856  0.00  0.00    +0.000 HD
ATOM     28  H   UNL     1      45.089   6.106  12.418  0.00  0.00    +0.000 HD
ENDBRANCH  25  26
ENDBRANCH  22  25
ENDBRANCH  18  19
ENDBRANCH   9  18
TORSDOF 7
ENDMDL
MODEL 9
REMARK VINA RESULT:    -5.103      7.218     10.162
REMARK INTER + INTRA:          -6.946
REMARK INTER:                  -6.718
REMARK INTRA:                  -0.228
REMARK UNBOUND:                -0.053
REMARK  Name = 
REMARK  10 active torsions:
REMARK  status: ('A' for Active; 'I' for Inactive)
REMARK    1  A    between atoms: C_1  and  C_2
REMARK    2  A    between atoms: C_2  and  C_3
REMARK    3  A    between atoms: C_2  and  C_4
REMARK    4  A    between atoms: C_2  and  C_5
REMARK    5  A    between atoms: C_9  and  C_10
REMARK    6  A    between atoms: C_10  and  O_12
REMARK    7  A    between atoms: N_16  and  C_17
REMARK    8  A    between atoms: C_17  and  C_18
REMARK    9  A    between atoms: C_21  and  C_22
REMARK   10  A    between atoms: C_22  and  N_23
REMARK                            x       y       z     vdW  Elec       q    Type
REMARK                         _______ _______ _______ _____ _____    ______ ____
ROOT
ATOM      1  C   UNL     1      52.808   1.998  17.768  0.00  0.00    +0.000 A 
ATOM      2  N   UNL     1      51.643   1.380  17.580  0.00  0.00    +0.000 NA
ATOM      3  C   UNL     1      50.705   2.356  17.398  0.00  0.00    +0.000 A 
ATOM      4  C   UNL     1      49.324   2.290  17.147  0.00  0.00    +0.000 A 
ATOM      5  C   UNL     1      48.626   3.482  16.993  0.00  0.00    +0.000 A 
ATOM      6  C   UNL     1      49.331   4.691  17.097  0.00  0.00    +0.000 A 
ATOM      7  N   UNL     1      50.682   4.799  17.326  0.00  0.00    +0.000 NA
ATOM      8  C   UNL     1      51.292   3.615  17.477  0.00  0.00    +0.000 A 
ATOM      9  N   UNL     1      52.606   3.373  17.816  0.00  0.00    +0.000 N 
ENDROOT
BRANCH   1  11
ATOM     10  C   UNL     1      53.916  -0.215  18.149  0.00  0.00    +0.000 C 
ATOM     11  C   UNL     1      54.154   1.294  17.926  0.00  0.00    +0.000 C 
ATOM     12  C   UNL     1      54.912   1.821  19.153  0.00  0.00    +0.000 C 
ATOM     13  C   UNL     1      55.067   1.478  16.699  0.00  0.00    +0.000 C 
ENDBRANCH   1  11
BRANCH   5  14
ATOM     14  C   UNL     1      47.153   3.481  16.759  0.00  0.00    +0.000 C 
ATOM     15  O   UNL     1      46.652   3.978  15.787  0.00  0.00    +0.000 OA
BRANCH  14  16
ATOM     16  O   UNL     1      46.413   2.863  17.719  0.00  0.00    +0.000 OA
ATOM     17  H   UNL     1      46.484   1.900  17.841  0.00  0.00    +0.000 HD
ENDBRANCH  14  16
ENDBRANCH   5  14
BRANCH   9  18
ATOM     18  C   UNL     1      53.573   4.401  18.171  0.00  0.00    +0.000 C 
BRANCH  18  19
ATOM     19  C   UNL     1      54.159   5.161  17.020  0.00  0.00    +0.000 A 
ATOM     20  C   UNL     1      55.346   4.741  16.396  0.00  0.00    +0.000 A 
ATOM     21  C   UNL     1      55.775   5.393  15.245  0.00  0.00    +0.000 A 
ATOM     22  C   UNL     1      55.027   6.458  14.749  0.00  0.00    +0.000 A 
ATOM     23  N   UNL     1      53.901   6.901  15.362  0.00  0.00    +0.000 NA
ATOM     24  C   UNL     1      53.497   6.241  16.466  0.00  0.00    +0.000 A 
BRANCH  22  25
ATOM     25  C   UNL     1      55.452   7.154  13.477  0.00  0.00    +0.000 C 
BRANCH  25  26
ATOM     26  N   UNL     1      54.383   7.214  12.473  0.00  0.00    +0.000 NA
ATOM     27  H   UNL     1      54.097   6.257  12.266  0.00  0.00    +0.000 HD
ATOM     28  H   UNL     1      54.761   7.601  11.609  0.00  0.00    +0.000 HD
ENDBRANCH  25  26
ENDBRANCH  22  25
ENDBRANCH  18  19
ENDBRANCH   9  18
TORSDOF 7
ENDMDL
