MODEL 1
REMARK VINA RESULT:    -9.021      0.000      0.000
REMARK INTER + INTRA:         -12.291
REMARK INTER:                 -11.131
REMARK INTRA:                  -1.161
REMARK UNBOUND:                -1.161
REMARK  Name = 
REMARK  4 active torsions:
REMARK  status: ('A' for Active; 'I' for Inactive)
REMARK    1  A    between atoms: C_2  and  C_4
REMARK    2  A    between atoms: N_8  and  C_9
REMARK    3  A    between atoms: C_9  and  C_10
REMARK    4  A    between atoms: C_14  and  C_15
REMARK                            x       y       z     vdW  Elec       q    Type
REMARK                         _______ _______ _______ _____ _____    ______ ____
ROOT
ATOM      1  C   UNL     1      43.792   4.873  11.363  0.00  0.00    +0.000 C 
ATOM      2  C   UNL     1      42.426   5.130  11.978  0.00  0.00    +0.000 C 
ATOM      3  C   UNL     1      43.004   6.124  11.030  0.00  0.00    +0.000 C 
ENDROOT
BRANCH   1   8
ATOM      4  C   UNL     1      46.594   2.771   7.505  0.00  0.00    +0.000 A 
ATOM      5  C   UNL     1      46.238   4.102   7.686  0.00  0.00    +0.000 A 
ATOM      6  C   UNL     1      45.351   4.441   8.709  0.00  0.00    +0.000 A 
ATOM      7  C   UNL     1      44.832   3.445   9.526  0.00  0.00    +0.000 A 
ATOM      8  N   UNL     1      43.847   3.683  10.492  0.00  0.00    +0.000 N 
ATOM      9  N   UNL     1      45.174   2.151   9.365  0.00  0.00    +0.000 NA
ATOM     10  C   UNL     1      46.038   1.835   8.363  0.00  0.00    +0.000 A 
ATOM     11  H   UNL     1      43.732   2.791  10.971  0.00  0.00    +0.000 HD
BRANCH   4  13
ATOM     12  N   UNL     1      47.402   2.966   5.223  0.00  0.00    +0.000 N 
ATOM     13  C   UNL     1      47.485   2.312   6.420  0.00  0.00    +0.000 C 
ATOM     14  O   UNL     1      48.281   1.399   6.589  0.00  0.00    +0.000 OA
ATOM     15  H   UNL     1      48.073   2.698   4.514  0.00  0.00    +0.000 HD
ATOM     16  H   UNL     1      46.944   3.860   5.118  0.00  0.00    +0.000 HD
ENDBRANCH   4  13
ENDBRANCH   1   8
BRANCH   1  17
ATOM     17  C   UNL     1      45.045   5.024  12.219  0.00  0.00    +0.000 A 
ATOM     18  C   UNL     1      45.547   3.977  13.005  0.00  0.00    +0.000 A 
ATOM     19  C   UNL     1      46.783   4.083  13.644  0.00  0.00    +0.000 A 
ATOM     20  C   UNL     1      47.556   5.233  13.481  0.00  0.00    +0.000 A 
ATOM     21  C   UNL     1      47.101   6.306  12.699  0.00  0.00    +0.000 A 
ATOM     22  C   UNL     1      45.823   6.194  12.124  0.00  0.00    +0.000 A 
BRANCH  21  23
ATOM     23  C   UNL     1      47.969   7.447  12.363  0.00  0.00    +0.000 A 
ATOM     24  C   UNL     1      47.481   8.748  12.186  0.00  0.00    +0.000 A 
ATOM     25  N   UNL     1      48.219   9.807  11.763  0.00  0.00    +0.000 NA
ATOM     26  C   UNL     1      49.525   9.567  11.508  0.00  0.00    +0.000 A 
ATOM     27  C   UNL     1      50.113   8.328  11.668  0.00  0.00    +0.000 A 
ATOM     28  F   UNL     1      51.410   8.144  11.391  0.00  0.00    +0.000 F 
ATOM     29  C   UNL     1      49.336   7.262  12.101  0.00  0.00    +0.000 A 
ENDBRANCH  21  23
ENDBRANCH   1  17
TORSDOF 4
ENDMDL
MODEL 2
REMARK VINA RESULT:    -8.971      2.610      3.622
REMARK INTER + INTRA:         -12.229
REMARK INTER:                 -11.816
REMARK INTRA:                  -0.414
REMARK UNBOUND:                -1.161
REMARK  Name = 
REMARK  4 active torsions:
REMARK  status: ('A' for Active; 'I' for Inactive)
REMARK    1  A    between atoms: C_2  and  C_4
REMARK    2  A    between atoms: N_8  and  C_9
REMARK    3  A    between atoms: C_9  and  C_10
REMARK    4  A    between atoms: C_14  and  C_15
REMARK                            x       y       z     vdW  Elec       q    Type
REMARK                         _______ _______ _______ _____ _____    ______ ____
ROOT
ATOM      1  C   UNL     1      43.909   4.878  11.468  0.00  0.00    +0.000 C 
ATOM      2  C   UNL     1      42.792   4.895  12.500  0.00  0.00    +0.000 C 
ATOM      3  C   UNL     1      42.791   5.899  11.399  0.00  0.00    +0.000 C 
ENDROOT
BRANCH   1   8
ATOM      4  C   UNL     1      46.493   2.727   7.488  0.00  0.00    +0.000 A 
ATOM      5  C   UNL     1      46.091   4.048   7.641  0.00  0.00    +0.000 A 
ATOM      6  C   UNL     1      45.271   4.394   8.718  0.00  0.00    +0.000 A 
ATOM      7  C   UNL     1      44.866   3.415   9.614  0.00  0.00    +0.000 A 
ATOM      8  N   UNL     1      43.951   3.653  10.646  0.00  0.00    +0.000 N 
ATOM      9  N   UNL     1      45.256   2.131   9.481  0.00  0.00    +0.000 NA
ATOM     10  C   UNL     1      46.052   1.808   8.426  0.00  0.00    +0.000 A 
ATOM     11  H   UNL     1      43.917   2.779  11.170  0.00  0.00    +0.000 HD
BRANCH   4  13
ATOM     12  N   UNL     1      47.184   2.923   5.167  0.00  0.00    +0.000 N 
ATOM     13  C   UNL     1      47.317   2.259   6.355  0.00  0.00    +0.000 C 
ATOM     14  O   UNL     1      48.103   1.329   6.475  0.00  0.00    +0.000 OA
ATOM     15  H   UNL     1      47.811   2.648   4.422  0.00  0.00    +0.000 HD
ATOM     16  H   UNL     1      46.738   3.827   5.092  0.00  0.00    +0.000 HD
ENDBRANCH   4  13
ENDBRANCH   1   8
BRANCH   1  17
ATOM     17  C   UNL     1      45.301   5.366  11.855  0.00  0.00    +0.000 A 
ATOM     18  C   UNL     1      45.963   6.380  11.148  0.00  0.00    +0.000 A 
ATOM     19  C   UNL     1      47.157   6.926  11.619  0.00  0.00    +0.000 A 
ATOM     20  C   UNL     1      47.697   6.484  12.827  0.00  0.00    +0.000 A 
ATOM     21  C   UNL     1      47.069   5.477  13.575  0.00  0.00    +0.000 A 
ATOM     22  C   UNL     1      45.903   4.902  13.040  0.00  0.00    +0.000 A 
BRANCH  21  23
ATOM     23  C   UNL     1      47.514   5.124  14.934  0.00  0.00    +0.000 A 
ATOM     24  C   UNL     1      48.520   5.824  15.612  0.00  0.00    +0.000 A 
ATOM     25  N   UNL     1      49.044   5.468  16.813  0.00  0.00    +0.000 NA
ATOM     26  C   UNL     1      48.535   4.353  17.385  0.00  0.00    +0.000 A 
ATOM     27  C   UNL     1      47.529   3.599  16.813  0.00  0.00    +0.000 A 
ATOM     28  F   UNL     1      47.069   2.498  17.419  0.00  0.00    +0.000 F 
ATOM     29  C   UNL     1      47.012   3.986  15.585  0.00  0.00    +0.000 A 
ENDBRANCH  21  23
ENDBRANCH   1  17
TORSDOF 4
ENDMDL
MODEL 3
REMARK VINA RESULT:    -7.102      4.564      8.223
REMARK INTER + INTRA:          -9.923
REMARK INTER:                  -8.944
REMARK INTRA:                  -0.979
REMARK UNBOUND:                -1.161
REMARK  Name = 
REMARK  4 active torsions:
REMARK  status: ('A' for Active; 'I' for Inactive)
REMARK    1  A    between atoms: C_2  and  C_4
REMARK    2  A    between atoms: N_8  and  C_9
REMARK    3  A    between atoms: C_9  and  C_10
REMARK    4  A    between atoms: C_14  and  C_15
REMARK                            x       y       z     vdW  Elec       q    Type
REMARK                         _______ _______ _______ _____ _____    ______ ____
ROOT
ATOM      1  C   UNL     1      48.779   7.649  12.608  0.00  0.00    +0.000 C 
ATOM      2  C   UNL     1      49.744   7.816  11.445  0.00  0.00    +0.000 C 
ATOM      3  C   UNL     1      49.446   8.980  12.326  0.00  0.00    +0.000 C 
ENDROOT
BRANCH   1   8
ATOM      4  C   UNL     1      48.429   6.718  17.722  0.00  0.00    +0.000 A 
ATOM      5  C   UNL     1      48.564   7.940  17.076  0.00  0.00    +0.000 A 
ATOM      6  C   UNL     1      48.795   7.965  15.700  0.00  0.00    +0.000 A 
ATOM      7  C   UNL     1      48.892   6.771  14.998  0.00  0.00    +0.000 A 
ATOM      8  N   UNL     1      49.242   6.705  13.644  0.00  0.00    +0.000 N 
ATOM      9  N   UNL     1      48.756   5.579  15.612  0.00  0.00    +0.000 NA
ATOM     10  C   UNL     1      48.533   5.569  16.954  0.00  0.00    +0.000 A 
ATOM     11  H   UNL     1      49.154   5.719  13.401  0.00  0.00    +0.000 HD
BRANCH   4  13
ATOM     12  N   UNL     1      47.417   5.585  19.618  0.00  0.00    +0.000 N 
ATOM     13  C   UNL     1      48.233   6.591  19.181  0.00  0.00    +0.000 C 
ATOM     14  O   UNL     1      48.793   7.340  19.970  0.00  0.00    +0.000 OA
ATOM     15  H   UNL     1      47.356   5.455  20.621  0.00  0.00    +0.000 HD
ATOM     16  H   UNL     1      47.136   4.813  19.030  0.00  0.00    +0.000 HD
ENDBRANCH   4  13
ENDBRANCH   1   8
BRANCH   1  17
ATOM     17  C   UNL     1      47.284   7.526  12.336  0.00  0.00    +0.000 A 
ATOM     18  C   UNL     1      46.402   8.606  12.491  0.00  0.00    +0.000 A 
ATOM     19  C   UNL     1      45.074   8.517  12.076  0.00  0.00    +0.000 A 
ATOM     20  C   UNL     1      44.609   7.350  11.468  0.00  0.00    +0.000 A 
ATOM     21  C   UNL     1      45.453   6.245  11.284  0.00  0.00    +0.000 A 
ATOM     22  C   UNL     1      46.769   6.343  11.774  0.00  0.00    +0.000 A 
BRANCH  21  23
ATOM     23  C   UNL     1      45.045   5.077  10.485  0.00  0.00    +0.000 A 
ATOM     24  C   UNL     1      44.215   4.066  10.986  0.00  0.00    +0.000 A 
ATOM     25  N   UNL     1      43.906   2.916  10.332  0.00  0.00    +0.000 NA
ATOM     26  C   UNL     1      44.443   2.760   9.101  0.00  0.00    +0.000 A 
ATOM     27  C   UNL     1      45.258   3.702   8.506  0.00  0.00    +0.000 A 
ATOM     28  F   UNL     1      45.771   3.492   7.287  0.00  0.00    +0.000 F 
ATOM     29  C   UNL     1      45.559   4.868   9.196  0.00  0.00    +0.000 A 
ENDBRANCH  21  23
ENDBRANCH   1  17
TORSDOF 4
ENDMDL
MODEL 4
REMARK VINA RESULT:    -6.843      3.088      6.972
REMARK INTER + INTRA:          -9.604
REMARK INTER:                  -8.651
REMARK INTRA:                  -0.953
REMARK UNBOUND:                -1.161
REMARK  Name = 
REMARK  4 active torsions:
REMARK  status: ('A' for Active; 'I' for Inactive)
REMARK    1  A    between atoms: C_2  and  C_4
REMARK    2  A    between atoms: N_8  and  C_9
REMARK    3  A    between atoms: C_9  and  C_10
REMARK    4  A    between atoms: C_14  and  C_15
REMARK                            x       y       z     vdW  Elec       q    Type
REMARK                         _______ _______ _______ _____ _____    ______ ____
ROOT
ATOM      1  C   UNL     1      46.221   5.266  13.355  0.00  0.00    +0.000 C 
ATOM      2  C   UNL     1      46.276   4.392  14.598  0.00  0.00    +0.000 C 
ATOM      3  C   UNL     1      47.371   4.309  13.590  0.00  0.00    +0.000 C 
ENDROOT
BRANCH   1   8
ATOM      4  C   UNL     1      48.419   9.652  11.600  0.00  0.00    +0.000 A 
ATOM      5  C   UNL     1      48.985   8.388  11.708  0.00  0.00    +0.000 A 
ATOM      6  C   UNL     1      48.273   7.371  12.348  0.00  0.00    +0.000 A 
ATOM      7  C   UNL     1      47.016   7.639  12.872  0.00  0.00    +0.000 A 
ATOM      8  N   UNL     1      46.290   6.715  13.633  0.00  0.00    +0.000 N 
ATOM      9  N   UNL     1      46.453   8.860  12.768  0.00  0.00    +0.000 NA
ATOM     10  C   UNL     1      47.159   9.841  12.143  0.00  0.00    +0.000 A 
ATOM     11  H   UNL     1      45.393   7.166  13.804  0.00  0.00    +0.000 HD
BRANCH   4  13
ATOM     12  N   UNL     1      50.405  11.033  11.376  0.00  0.00    +0.000 N 
ATOM     13  C   UNL     1      49.117  10.800  10.985  0.00  0.00    +0.000 C 
ATOM     14  O   UNL     1      48.573  11.503  10.144  0.00  0.00    +0.000 OA
ATOM     15  H   UNL     1      50.900  11.770  10.889  0.00  0.00    +0.000 HD
ATOM     16  H   UNL     1      50.959  10.349  11.873  0.00  0.00    +0.000 HD
ENDBRANCH   4  13
ENDBRANCH   1   8
BRANCH   1  17
ATOM     17  C   UNL     1      45.230   4.936  12.244  0.00  0.00    +0.000 A 
ATOM     18  C   UNL     1      43.988   5.577  12.131  0.00  0.00    +0.000 A 
ATOM     19  C   UNL     1      43.174   5.381  11.015  0.00  0.00    +0.000 A 
ATOM     20  C   UNL     1      43.604   4.559   9.973  0.00  0.00    +0.000 A 
ATOM     21  C   UNL     1      44.842   3.901  10.035  0.00  0.00    +0.000 A 
ATOM     22  C   UNL     1      45.608   4.067  11.203  0.00  0.00    +0.000 A 
BRANCH  21  23
ATOM     23  C   UNL     1      45.399   3.179   8.878  0.00  0.00    +0.000 A 
ATOM     24  C   UNL     1      45.671   1.806   8.897  0.00  0.00    +0.000 A 
ATOM     25  N   UNL     1      46.290   1.120   7.902  0.00  0.00    +0.000 NA
ATOM     26  C   UNL     1      46.655   1.835   6.815  0.00  0.00    +0.000 A 
ATOM     27  C   UNL     1      46.418   3.189   6.684  0.00  0.00    +0.000 A 
ATOM     28  F   UNL     1      46.810   3.851   5.588  0.00  0.00    +0.000 F 
ATOM     29  C   UNL     1      45.784   3.866   7.716  0.00  0.00    +0.000 A 
ENDBRANCH  21  23
ENDBRANCH   1  17
TORSDOF 4
ENDMDL
MODEL 5
REMARK VINA RESULT:    -6.681      4.037      6.094
REMARK INTER + INTRA:          -9.404
REMARK INTER:                  -8.929
REMARK INTRA:                  -0.475
REMARK UNBOUND:                -1.161
REMARK  Name = 
REMARK  4 active torsions:
REMARK  status: ('A' for Active; 'I' for Inactive)
REMARK    1  A    between atoms: C_2  and  C_4
REMARK    2  A    between atoms: N_8  and  C_9
REMARK    3  A    between atoms: C_9  and  C_10
REMARK    4  A    between atoms: C_14  and  C_15
REMARK                            x       y       z     vdW  Elec       q    Type
REMARK                         _______ _______ _______ _____ _____    ______ ____
ROOT
ATOM      1  C   UNL     1      47.372   8.444  13.180  0.00  0.00    +0.000 C 
ATOM      2  C   UNL     1      47.515   9.730  12.383  0.00  0.00    +0.000 C 
ATOM      3  C   UNL     1      48.239   8.505  11.940  0.00  0.00    +0.000 C 
ENDROOT
BRANCH   1   8
ATOM      4  C   UNL     1      44.609   4.341  11.541  0.00  0.00    +0.000 A 
ATOM      5  C   UNL     1      45.611   5.031  10.868  0.00  0.00    +0.000 A 
ATOM      6  C   UNL     1      46.126   6.203  11.423  0.00  0.00    +0.000 A 
ATOM      7  C   UNL     1      45.628   6.667  12.633  0.00  0.00    +0.000 A 
ATOM      8  N   UNL     1      46.002   7.893  13.196  0.00  0.00    +0.000 N 
ATOM      9  N   UNL     1      44.662   6.004  13.300  0.00  0.00    +0.000 NA
ATOM     10  C   UNL     1      44.167   4.863  12.746  0.00  0.00    +0.000 A 
ATOM     11  H   UNL     1      45.538   7.915  14.103  0.00  0.00    +0.000 HD
BRANCH   4  13
ATOM     12  N   UNL     1      44.623   2.456  10.009  0.00  0.00    +0.000 N 
ATOM     13  C   UNL     1      43.969   3.121  11.008  0.00  0.00    +0.000 C 
ATOM     14  O   UNL     1      42.907   2.708  11.455  0.00  0.00    +0.000 OA
ATOM     15  H   UNL     1      44.217   1.578   9.709  0.00  0.00    +0.000 HD
ATOM     16  H   UNL     1      45.594   2.622   9.785  0.00  0.00    +0.000 HD
ENDBRANCH   4  13
ENDBRANCH   1   8
BRANCH   1  17
ATOM     17  C   UNL     1      48.066   8.313  14.532  0.00  0.00    +0.000 A 
ATOM     18  C   UNL     1      48.220   9.401  15.404  0.00  0.00    +0.000 A 
ATOM     19  C   UNL     1      48.703   9.223  16.700  0.00  0.00    +0.000 A 
ATOM     20  C   UNL     1      49.014   7.943  17.160  0.00  0.00    +0.000 A 
ATOM     21  C   UNL     1      48.870   6.822  16.329  0.00  0.00    +0.000 A 
ATOM     22  C   UNL     1      48.444   7.043  15.006  0.00  0.00    +0.000 A 
BRANCH  21  23
ATOM     23  C   UNL     1      49.014   5.448  16.841  0.00  0.00    +0.000 A 
ATOM     24  C   UNL     1      50.259   4.846  17.065  0.00  0.00    +0.000 A 
ATOM     25  N   UNL     1      50.444   3.550  17.424  0.00  0.00    +0.000 NA
ATOM     26  C   UNL     1      49.328   2.803  17.581  0.00  0.00    +0.000 A 
ATOM     27  C   UNL     1      48.052   3.301  17.405  0.00  0.00    +0.000 A 
ATOM     28  F   UNL     1      46.981   2.514  17.565  0.00  0.00    +0.000 F 
ATOM     29  C   UNL     1      47.891   4.630  17.038  0.00  0.00    +0.000 A 
ENDBRANCH  21  23
ENDBRANCH   1  17
TORSDOF 4
ENDMDL
MODEL 6
REMARK VINA RESULT:    -6.458      1.214      2.121
REMARK INTER + INTRA:          -9.129
REMARK INTER:                  -9.176
REMARK INTRA:                   0.047
REMARK UNBOUND:                -1.161
REMARK  Name = 
REMARK  4 active torsions:
REMARK  status: ('A' for Active; 'I' for Inactive)
REMARK    1  A    between atoms: C_2  and  C_4
REMARK    2  A    between atoms: N_8  and  C_9
REMARK    3  A    between atoms: C_9  and  C_10
REMARK    4  A    between atoms: C_14  and  C_15
REMARK                            x       y       z     vdW  Elec       q    Type
REMARK                         _______ _______ _______ _____ _____    ______ ____
ROOT
ATOM      1  C   UNL     1      44.260   3.864  11.837  0.00  0.00    +0.000 C 
ATOM      2  C   UNL     1      45.165   3.263  12.900  0.00  0.00    +0.000 C 
ATOM      3  C   UNL     1      43.719   3.468  13.195  0.00  0.00    +0.000 C 
ENDROOT
BRANCH   1   8
ATOM      4  C   UNL     1      46.569   2.894   7.268  0.00  0.00    +0.000 A 
ATOM      5  C   UNL     1      46.395   4.118   7.903  0.00  0.00    +0.000 A 
ATOM      6  C   UNL     1      45.612   4.185   9.057  0.00  0.00    +0.000 A 
ATOM      7  C   UNL     1      45.014   3.032   9.549  0.00  0.00    +0.000 A 
ATOM      8  N   UNL     1      44.118   3.034  10.625  0.00  0.00    +0.000 N 
ATOM      9  N   UNL     1      45.181   1.838   8.946  0.00  0.00    +0.000 NA
ATOM     10  C   UNL     1      45.945   1.788   7.821  0.00  0.00    +0.000 A 
ATOM     11  H   UNL     1      43.917   2.049  10.796  0.00  0.00    +0.000 HD
BRANCH   4  13
ATOM     12  N   UNL     1      48.656   2.393   6.131  0.00  0.00    +0.000 N 
ATOM     13  C   UNL     1      47.338   2.735   6.017  0.00  0.00    +0.000 C 
ATOM     14  O   UNL     1      46.815   2.881   4.920  0.00  0.00    +0.000 OA
ATOM     15  H   UNL     1      49.152   2.206   5.268  0.00  0.00    +0.000 HD
ATOM     16  H   UNL     1      49.057   2.034   6.986  0.00  0.00    +0.000 HD
ENDBRANCH   4  13
ENDBRANCH   1   8
BRANCH   1  17
ATOM     17  C   UNL     1      44.361   5.351  11.513  0.00  0.00    +0.000 A 
ATOM     18  C   UNL     1      43.236   6.131  11.209  0.00  0.00    +0.000 A 
ATOM     19  C   UNL     1      43.332   7.517  11.083  0.00  0.00    +0.000 A 
ATOM     20  C   UNL     1      44.556   8.153  11.291  0.00  0.00    +0.000 A 
ATOM     21  C   UNL     1      45.709   7.418  11.604  0.00  0.00    +0.000 A 
ATOM     22  C   UNL     1      45.593   6.018  11.657  0.00  0.00    +0.000 A 
BRANCH  21  23
ATOM     23  C   UNL     1      46.966   8.074  12.006  0.00  0.00    +0.000 A 
ATOM     24  C   UNL     1      47.004   9.328  12.628  0.00  0.00    +0.000 A 
ATOM     25  N   UNL     1      48.136  10.024  12.911  0.00  0.00    +0.000 NA
ATOM     26  C   UNL     1      49.305   9.437  12.567  0.00  0.00    +0.000 A 
ATOM     27  C   UNL     1      49.382   8.195  11.968  0.00  0.00    +0.000 A 
ATOM     28  F   UNL     1      50.566   7.665  11.640  0.00  0.00    +0.000 F 
ATOM     29  C   UNL     1      48.209   7.506  11.689  0.00  0.00    +0.000 A 
ENDBRANCH  21  23
ENDBRANCH   1  17
TORSDOF 4
ENDMDL
MODEL 7
REMARK VINA RESULT:    -6.293      4.323      7.110
REMARK INTER + INTRA:          -8.926
REMARK INTER:                  -7.876
REMARK INTRA:                  -1.049
REMARK UNBOUND:                -1.161
REMARK  Name = 
REMARK  4 active torsions:
REMARK  status: ('A' for Active; 'I' for Inactive)
REMARK    1  A    between atoms: C_2  and  C_4
REMARK    2  A    between atoms: N_8  and  C_9
REMARK    3  A    between atoms: C_9  and  C_10
REMARK    4  A    between atoms: C_14  and  C_15
REMARK                            x       y       z     vdW  Elec       q    Type
REMARK                         _______ _______ _______ _____ _____    ______ ____
ROOT
ATOM      1  C   UNL     1      48.971   9.513  14.570  0.00  0.00    +0.000 C 
ATOM      2  C   UNL     1      49.907  10.701  14.410  0.00  0.00    +0.000 C 
ATOM      3  C   UNL     1      50.334   9.358  13.925  0.00  0.00    +0.000 C 
ENDROOT
BRANCH   1   8
ATOM      4  C   UNL     1      45.673   6.689  11.691  0.00  0.00    +0.000 A 
ATOM      5  C   UNL     1      47.062   6.645  11.702  0.00  0.00    +0.000 A 
ATOM      6  C   UNL     1      47.770   7.596  12.439  0.00  0.00    +0.000 A 
ATOM      7  C   UNL     1      47.080   8.572  13.144  0.00  0.00    +0.000 A 
ATOM      8  N   UNL     1      47.713   9.630  13.807  0.00  0.00    +0.000 N 
ATOM      9  N   UNL     1      45.732   8.621  13.147  0.00  0.00    +0.000 NA
ATOM     10  C   UNL     1      45.055   7.690  12.423  0.00  0.00    +0.000 A 
ATOM     11  H   UNL     1      46.961  10.124  14.286  0.00  0.00    +0.000 HD
BRANCH   4  13
ATOM     12  N   UNL     1      43.491   5.969  10.903  0.00  0.00    +0.000 N 
ATOM     13  C   UNL     1      44.841   5.758  10.901  0.00  0.00    +0.000 C 
ATOM     14  O   UNL     1      45.338   4.847  10.252  0.00  0.00    +0.000 OA
ATOM     15  H   UNL     1      42.939   5.377  10.295  0.00  0.00    +0.000 HD
ATOM     16  H   UNL     1      43.072   6.832  11.220  0.00  0.00    +0.000 HD
ENDBRANCH   4  13
ENDBRANCH   1   8
BRANCH   1  17
ATOM     17  C   UNL     1      48.759   8.901  15.950  0.00  0.00    +0.000 A 
ATOM     18  C   UNL     1      48.115   9.592  16.987  0.00  0.00    +0.000 A 
ATOM     19  C   UNL     1      47.783   8.954  18.181  0.00  0.00    +0.000 A 
ATOM     20  C   UNL     1      48.062   7.597  18.349  0.00  0.00    +0.000 A 
ATOM     21  C   UNL     1      48.698   6.860  17.339  0.00  0.00    +0.000 A 
ATOM     22  C   UNL     1      49.081   7.549  16.174  0.00  0.00    +0.000 A 
BRANCH  21  23
ATOM     23  C   UNL     1      48.839   5.395  17.415  0.00  0.00    +0.000 A 
ATOM     24  C   UNL     1      50.055   4.736  17.198  0.00  0.00    +0.000 A 
ATOM     25  N   UNL     1      50.212   3.388  17.142  0.00  0.00    +0.000 NA
ATOM     26  C   UNL     1      49.097   2.644  17.321  0.00  0.00    +0.000 A 
ATOM     27  C   UNL     1      47.852   3.191  17.561  0.00  0.00    +0.000 A 
ATOM     28  F   UNL     1      46.778   2.408  17.722  0.00  0.00    +0.000 F 
ATOM     29  C   UNL     1      47.720   4.572  17.613  0.00  0.00    +0.000 A 
ENDBRANCH  21  23
ENDBRANCH   1  17
TORSDOF 4
ENDMDL
MODEL 8
REMARK VINA RESULT:    -6.099      5.253      8.430
REMARK INTER + INTRA:          -8.686
REMARK INTER:                  -7.540
REMARK INTRA:                  -1.146
REMARK UNBOUND:                -1.161
REMARK  Name = 
REMARK  4 active torsions:
REMARK  status: ('A' for Active; 'I' for Inactive)
REMARK    1  A    between atoms: C_2  and  C_4
REMARK    2  A    between atoms: N_8  and  C_9
REMARK    3  A    between atoms: C_9  and  C_10
REMARK    4  A    between atoms: C_14  and  C_15
REMARK                            x       y       z     vdW  Elec       q    Type
REMARK                         _______ _______ _______ _____ _____    ______ ____
ROOT
ATOM      1  C   UNL     1      49.344   8.151  16.730  0.00  0.00    +0.000 C 
ATOM      2  C   UNL     1      49.129   9.564  17.249  0.00  0.00    +0.000 C 
ATOM      3  C   UNL     1      48.090   8.523  17.494  0.00  0.00    +0.000 C 
ENDROOT
BRANCH   1   8
ATOM      4  C   UNL     1      51.248   3.371  17.548  0.00  0.00    +0.000 A 
ATOM      5  C   UNL     1      49.931   3.802  17.642  0.00  0.00    +0.000 A 
ATOM      6  C   UNL     1      49.646   5.164  17.531  0.00  0.00    +0.000 A 
ATOM      7  C   UNL     1      50.681   6.068  17.335  0.00  0.00    +0.000 A 
ATOM      8  N   UNL     1      50.497   7.455  17.335  0.00  0.00    +0.000 N 
ATOM      9  N   UNL     1      51.963   5.662  17.235  0.00  0.00    +0.000 NA
ATOM     10  C   UNL     1      52.226   4.332  17.347  0.00  0.00    +0.000 A 
ATOM     11  H   UNL     1      51.410   7.839  17.093  0.00  0.00    +0.000 HD
BRANCH   4  13
ATOM     12  N   UNL     1      52.732   1.698  18.497  0.00  0.00    +0.000 N 
ATOM     13  C   UNL     1      51.650   1.958  17.703  0.00  0.00    +0.000 C 
ATOM     14  O   UNL     1      51.030   1.053  17.162  0.00  0.00    +0.000 OA
ATOM     15  H   UNL     1      52.948   0.723  18.663  0.00  0.00    +0.000 HD
ATOM     16  H   UNL     1      53.114   2.377  19.141  0.00  0.00    +0.000 HD
ENDBRANCH   4  13
ENDBRANCH   1   8
BRANCH   1  17
ATOM     17  C   UNL     1      49.215   7.869  15.237  0.00  0.00    +0.000 A 
ATOM     18  C   UNL     1      50.216   8.218  14.318  0.00  0.00    +0.000 A 
ATOM     19  C   UNL     1      50.152   7.800  12.989  0.00  0.00    +0.000 A 
ATOM     20  C   UNL     1      49.094   6.996  12.560  0.00  0.00    +0.000 A 
ATOM     21  C   UNL     1      48.072   6.615  13.442  0.00  0.00    +0.000 A 
ATOM     22  C   UNL     1      48.132   7.108  14.758  0.00  0.00    +0.000 A 
BRANCH  21  23
ATOM     23  C   UNL     1      47.050   5.623  13.067  0.00  0.00    +0.000 A 
ATOM     24  C   UNL     1      46.937   4.374  13.689  0.00  0.00    +0.000 A 
ATOM     25  N   UNL     1      46.090   3.384  13.304  0.00  0.00    +0.000 NA
ATOM     26  C   UNL     1      45.298   3.651  12.241  0.00  0.00    +0.000 A 
ATOM     27  C   UNL     1      45.314   4.855  11.566  0.00  0.00    +0.000 A 
ATOM     28  F   UNL     1      44.514   5.062  10.513  0.00  0.00    +0.000 F 
ATOM     29  C   UNL     1      46.189   5.849  11.981  0.00  0.00    +0.000 A 
ENDBRANCH  21  23
ENDBRANCH   1  17
TORSDOF 4
ENDMDL
