MODEL 1
REMARK VINA RESULT:    -7.351      0.000      0.000
REMARK INTER + INTRA:         -11.259
REMARK INTER:                 -10.359
REMARK INTRA:                  -0.900
REMARK UNBOUND:                -0.900
REMARK  Name = 
REMARK  8 active torsions:
REMARK  status: ('A' for Active; 'I' for Inactive)
REMARK    1  A    between atoms: C_1  and  O_2
REMARK    2  A    between atoms: O_2  and  C_3
REMARK    3  A    between atoms: C_6  and  C_7
REMARK    4  A    between atoms: N_9  and  C_10
REMARK    5  A    between atoms: C_10  and  C_11
REMARK    6  A    between atoms: C_14  and  C_15
REMARK    7  A    between atoms: C_15  and  N_16
REMARK    8  A    between atoms: C_17  and  C_19
REMARK                            x       y       z     vdW  Elec       q    Type
REMARK                         _______ _______ _______ _____ _____    ______ ____
ROOT
ATOM      1  C   UNL     1      45.259   7.304  11.962  0.00  0.00    +0.000 A 
ATOM      2  C   UNL     1      45.162   8.683  12.141  0.00  0.00    +0.000 A 
ATOM      3  C   UNL     1      46.072   9.319  12.984  0.00  0.00    +0.000 A 
ATOM      4  C   UNL     1      47.061   8.572  13.625  0.00  0.00    +0.000 A 
ATOM      5  C   UNL     1      47.057   7.198  13.415  0.00  0.00    +0.000 A 
ATOM      6  N   UNL     1      46.179   6.550  12.613  0.00  0.00    +0.000 NA
ENDROOT
BRANCH   1   7
ATOM      7  C   UNL     1      44.283   6.583  11.064  0.00  0.00    +0.000 C 
BRANCH   7  10
ATOM      8  C   UNL     1      44.537   4.367  10.049  0.00  0.00    +0.000 C 
ATOM      9  O   UNL     1      43.641   3.889  10.738  0.00  0.00    +0.000 OA
ATOM     10  N   UNL     1      44.958   5.668  10.164  0.00  0.00    +0.000 N 
ATOM     11  H   UNL     1      45.687   6.052   9.577  0.00  0.00    +0.000 HD
BRANCH   8  15
ATOM     12  C   UNL     1      46.668   2.137   7.180  0.00  0.00    +0.000 A 
ATOM     13  C   UNL     1      46.012   1.415   8.170  0.00  0.00    +0.000 A 
ATOM     14  C   UNL     1      45.278   2.113   9.134  0.00  0.00    +0.000 A 
ATOM     15  C   UNL     1      45.233   3.506   9.071  0.00  0.00    +0.000 A 
ATOM     16  C   UNL     1      45.925   4.135   8.043  0.00  0.00    +0.000 A 
ATOM     17  N   UNL     1      46.627   3.480   7.089  0.00  0.00    +0.000 NA
BRANCH  12  19
ATOM     18  C   UNL     1      47.930   2.229   5.220  0.00  0.00    +0.000 C 
ATOM     19  O   UNL     1      47.406   1.414   6.267  0.00  0.00    +0.000 OA
ENDBRANCH  12  19
ENDBRANCH   8  15
ENDBRANCH   7  10
ENDBRANCH   1   7
BRANCH   4  20
ATOM     20  C   UNL     1      48.065   9.206  14.541  0.00  0.00    +0.000 C 
BRANCH  20  21
ATOM     21  N   UNL     1      48.247   8.429  15.742  0.00  0.00    +0.000 N 
ATOM     22  C   UNL     1      49.352   7.633  15.911  0.00  0.00    +0.000 C 
ATOM     23  O   UNL     1      50.249   7.583  15.074  0.00  0.00    +0.000 OA
ATOM     24  H   UNL     1      47.432   8.278  16.328  0.00  0.00    +0.000 HD
BRANCH  22  25
ATOM     25  C   UNL     1      49.435   6.888  17.173  0.00  0.00    +0.000 A 
ATOM     26  C   UNL     1      50.058   7.464  18.271  0.00  0.00    +0.000 A 
ATOM     27  S   UNL     1      50.021   6.489  19.670  0.00  0.00    +0.000 S 
ATOM     28  C   UNL     1      49.219   5.238  18.843  0.00  0.00    +0.000 A 
ATOM     29  N   UNL     1      48.906   4.074  19.473  0.00  0.00    +0.000 NA
ATOM     30  C   UNL     1      48.331   3.199  18.716  0.00  0.00    +0.000 A 
ATOM     31  N   UNL     1      48.036   3.382  17.392  0.00  0.00    +0.000 N 
ATOM     32  C   UNL     1      48.300   4.557  16.723  0.00  0.00    +0.000 A 
ATOM     33  O   UNL     1      47.970   4.711  15.552  0.00  0.00    +0.000 OA
ATOM     34  C   UNL     1      48.963   5.567  17.524  0.00  0.00    +0.000 A 
ATOM     35  H   UNL     1      47.576   2.658  16.862  0.00  0.00    +0.000 HD
ENDBRANCH  22  25
ENDBRANCH  20  21
ENDBRANCH   4  20
TORSDOF 7
ENDMDL
MODEL 2
REMARK VINA RESULT:    -7.169      3.771      8.549
REMARK INTER + INTRA:         -11.002
REMARK INTER:                 -10.148
REMARK INTRA:                  -0.854
REMARK UNBOUND:                -0.900
REMARK  Name = 
REMARK  8 active torsions:
REMARK  status: ('A' for Active; 'I' for Inactive)
REMARK    1  A    between atoms: C_1  and  O_2
REMARK    2  A    between atoms: O_2  and  C_3
REMARK    3  A    between atoms: C_6  and  C_7
REMARK    4  A    between atoms: N_9  and  C_10
REMARK    5  A    between atoms: C_10  and  C_11
REMARK    6  A    between atoms: C_14  and  C_15
REMARK    7  A    between atoms: C_15  and  N_16
REMARK    8  A    between atoms: C_17  and  C_19
REMARK                            x       y       z     vdW  Elec       q    Type
REMARK                         _______ _______ _______ _____ _____    ______ ____
ROOT
ATOM      1  C   UNL     1      49.043   7.289  16.177  0.00  0.00    +0.000 A 
ATOM      2  C   UNL     1      48.490   8.539  15.906  0.00  0.00    +0.000 A 
ATOM      3  C   UNL     1      48.171   8.863  14.588  0.00  0.00    +0.000 A 
ATOM      4  C   UNL     1      48.401   7.936  13.571  0.00  0.00    +0.000 A 
ATOM      5  C   UNL     1      48.990   6.730  13.932  0.00  0.00    +0.000 A 
ATOM      6  N   UNL     1      49.323   6.391  15.200  0.00  0.00    +0.000 NA
ENDROOT
BRANCH   1   7
ATOM      7  C   UNL     1      49.410   6.910  17.592  0.00  0.00    +0.000 C 
BRANCH   7  10
ATOM      8  C   UNL     1      49.855   4.512  17.833  0.00  0.00    +0.000 C 
ATOM      9  O   UNL     1      48.678   4.264  18.078  0.00  0.00    +0.000 OA
ATOM     10  N   UNL     1      50.324   5.785  17.625  0.00  0.00    +0.000 N 
ATOM     11  H   UNL     1      51.294   5.973  17.408  0.00  0.00    +0.000 HD
BRANCH   8  15
ATOM     12  C   UNL     1      52.482   1.232  17.546  0.00  0.00    +0.000 A 
ATOM     13  C   UNL     1      53.001   2.401  18.091  0.00  0.00    +0.000 A 
ATOM     14  C   UNL     1      52.159   3.510  18.222  0.00  0.00    +0.000 A 
ATOM     15  C   UNL     1      50.834   3.407  17.797  0.00  0.00    +0.000 A 
ATOM     16  C   UNL     1      50.413   2.195  17.263  0.00  0.00    +0.000 A 
ATOM     17  N   UNL     1      51.203   1.103  17.143  0.00  0.00    +0.000 NA
BRANCH  12  19
ATOM     18  C   UNL     1      54.658   0.584  17.009  0.00  0.00    +0.000 C 
ATOM     19  O   UNL     1      53.351   0.171  17.405  0.00  0.00    +0.000 OA
ENDBRANCH  12  19
ENDBRANCH   8  15
ENDBRANCH   7  10
ENDBRANCH   1   7
BRANCH   4  20
ATOM     20  C   UNL     1      48.075   8.234  12.138  0.00  0.00    +0.000 C 
BRANCH  20  21
ATOM     21  N   UNL     1      47.446   7.106  11.497  0.00  0.00    +0.000 N 
ATOM     22  C   UNL     1      46.089   6.915  11.569  0.00  0.00    +0.000 C 
ATOM     23  O   UNL     1      45.352   7.715  12.140  0.00  0.00    +0.000 OA
ATOM     24  H   UNL     1      48.042   6.330  11.225  0.00  0.00    +0.000 HD
BRANCH  22  25
ATOM     25  C   UNL     1      45.555   5.736  10.877  0.00  0.00    +0.000 A 
ATOM     26  C   UNL     1      45.770   5.584   9.514  0.00  0.00    +0.000 A 
ATOM     27  S   UNL     1      45.132   4.136   8.877  0.00  0.00    +0.000 S 
ATOM     28  C   UNL     1      44.498   3.687  10.390  0.00  0.00    +0.000 A 
ATOM     29  N   UNL     1      43.792   2.533  10.535  0.00  0.00    +0.000 NA
ATOM     30  C   UNL     1      43.340   2.334  11.729  0.00  0.00    +0.000 A 
ATOM     31  N   UNL     1      43.532   3.178  12.789  0.00  0.00    +0.000 N 
ATOM     32  C   UNL     1      44.271   4.337  12.698  0.00  0.00    +0.000 A 
ATOM     33  O   UNL     1      44.475   5.042  13.680  0.00  0.00    +0.000 OA
ATOM     34  C   UNL     1      44.787   4.616  11.372  0.00  0.00    +0.000 A 
ATOM     35  H   UNL     1      43.159   2.956  13.700  0.00  0.00    +0.000 HD
ENDBRANCH  22  25
ENDBRANCH  20  21
ENDBRANCH   4  20
TORSDOF 7
ENDMDL
MODEL 3
REMARK VINA RESULT:    -7.158      3.484      9.030
REMARK INTER + INTRA:         -10.987
REMARK INTER:                 -10.039
REMARK INTRA:                  -0.948
REMARK UNBOUND:                -0.900
REMARK  Name = 
REMARK  8 active torsions:
REMARK  status: ('A' for Active; 'I' for Inactive)
REMARK    1  A    between atoms: C_1  and  O_2
REMARK    2  A    between atoms: O_2  and  C_3
REMARK    3  A    between atoms: C_6  and  C_7
REMARK    4  A    between atoms: N_9  and  C_10
REMARK    5  A    between atoms: C_10  and  C_11
REMARK    6  A    between atoms: C_14  and  C_15
REMARK    7  A    between atoms: C_15  and  N_16
REMARK    8  A    between atoms: C_17  and  C_19
REMARK                            x       y       z     vdW  Elec       q    Type
REMARK                         _______ _______ _______ _____ _____    ______ ____
ROOT
ATOM      1  C   UNL     1      49.356   7.611  15.779  0.00  0.00    +0.000 A 
ATOM      2  C   UNL     1      48.659   8.786  15.504  0.00  0.00    +0.000 A 
ATOM      3  C   UNL     1      47.938   8.881  14.315  0.00  0.00    +0.000 A 
ATOM      4  C   UNL     1      47.921   7.803  13.428  0.00  0.00    +0.000 A 
ATOM      5  C   UNL     1      48.676   6.687  13.769  0.00  0.00    +0.000 A 
ATOM      6  N   UNL     1      49.395   6.571  14.910  0.00  0.00    +0.000 NA
ENDROOT
BRANCH   1   7
ATOM      7  C   UNL     1      50.154   7.480  17.053  0.00  0.00    +0.000 C 
BRANCH   7  10
ATOM      8  C   UNL     1      50.245   5.153  17.816  0.00  0.00    +0.000 C 
ATOM      9  O   UNL     1      49.197   5.261  18.446  0.00  0.00    +0.000 OA
ATOM     10  N   UNL     1      50.823   6.196  17.137  0.00  0.00    +0.000 N 
ATOM     11  H   UNL     1      51.679   6.087  16.609  0.00  0.00    +0.000 HD
BRANCH   8  15
ATOM     12  C   UNL     1      52.439   1.561  17.998  0.00  0.00    +0.000 A 
ATOM     13  C   UNL     1      51.181   1.495  17.409  0.00  0.00    +0.000 A 
ATOM     14  C   UNL     1      50.425   2.667  17.312  0.00  0.00    +0.000 A 
ATOM     15  C   UNL     1      50.954   3.857  17.812  0.00  0.00    +0.000 A 
ATOM     16  C   UNL     1      52.220   3.817  18.384  0.00  0.00    +0.000 A 
ATOM     17  N   UNL     1      52.979   2.699  18.473  0.00  0.00    +0.000 NA
BRANCH  12  19
ATOM     18  C   UNL     1      54.490   0.579  18.522  0.00  0.00    +0.000 C 
ATOM     19  O   UNL     1      53.141   0.378  18.103  0.00  0.00    +0.000 OA
ENDBRANCH  12  19
ENDBRANCH   8  15
ENDBRANCH   7  10
ENDBRANCH   1   7
BRANCH   4  20
ATOM     20  C   UNL     1      47.161   7.852  12.135  0.00  0.00    +0.000 C 
BRANCH  20  21
ATOM     21  N   UNL     1      46.559   6.578  11.831  0.00  0.00    +0.000 N 
ATOM     22  C   UNL     1      45.201   6.454  11.678  0.00  0.00    +0.000 C 
ATOM     23  O   UNL     1      44.450   7.423  11.748  0.00  0.00    +0.000 OA
ATOM     24  H   UNL     1      47.118   5.746  11.993  0.00  0.00    +0.000 HD
BRANCH  22  25
ATOM     25  C   UNL     1      44.697   5.111  11.367  0.00  0.00    +0.000 A 
ATOM     26  C   UNL     1      43.929   4.432  12.303  0.00  0.00    +0.000 A 
ATOM     27  S   UNL     1      43.379   2.911  11.765  0.00  0.00    +0.000 S 
ATOM     28  C   UNL     1      44.195   3.080  10.283  0.00  0.00    +0.000 A 
ATOM     29  N   UNL     1      44.157   2.091   9.348  0.00  0.00    +0.000 NA
ATOM     30  C   UNL     1      44.849   2.338   8.286  0.00  0.00    +0.000 A 
ATOM     31  N   UNL     1      45.569   3.482   8.069  0.00  0.00    +0.000 N 
ATOM     32  C   UNL     1      45.606   4.524   8.969  0.00  0.00    +0.000 A 
ATOM     33  O   UNL     1      46.213   5.560   8.720  0.00  0.00    +0.000 OA
ATOM     34  C   UNL     1      44.860   4.289  10.189  0.00  0.00    +0.000 A 
ATOM     35  H   UNL     1      46.081   3.614   7.210  0.00  0.00    +0.000 HD
ENDBRANCH  22  25
ENDBRANCH  20  21
ENDBRANCH   4  20
TORSDOF 7
ENDMDL
MODEL 4
REMARK VINA RESULT:    -7.098      3.477      4.951
REMARK INTER + INTRA:         -10.903
REMARK INTER:                 -10.159
REMARK INTRA:                  -0.744
REMARK UNBOUND:                -0.900
REMARK  Name = 
REMARK  8 active torsions:
REMARK  status: ('A' for Active; 'I' for Inactive)
REMARK    1  A    between atoms: C_1  and  O_2
REMARK    2  A    between atoms: O_2  and  C_3
REMARK    3  A    between atoms: C_6  and  C_7
REMARK    4  A    between atoms: N_9  and  C_10
REMARK    5  A    between atoms: C_10  and  C_11
REMARK    6  A    between atoms: C_14  and  C_15
REMARK    7  A    between atoms: C_15  and  N_16
REMARK    8  A    between atoms: C_17  and  C_19
REMARK                            x       y       z     vdW  Elec       q    Type
REMARK                         _______ _______ _______ _____ _____    ______ ____
ROOT
ATOM      1  C   UNL     1      47.737   5.827  14.788  0.00  0.00    +0.000 A 
ATOM      2  C   UNL     1      47.058   4.614  14.893  0.00  0.00    +0.000 A 
ATOM      3  C   UNL     1      47.314   3.791  15.989  0.00  0.00    +0.000 A 
ATOM      4  C   UNL     1      48.233   4.194  16.958  0.00  0.00    +0.000 A 
ATOM      5  C   UNL     1      48.888   5.401  16.750  0.00  0.00    +0.000 A 
ATOM      6  N   UNL     1      48.671   6.216  15.690  0.00  0.00    +0.000 NA
ENDROOT
BRANCH   1   7
ATOM      7  C   UNL     1      47.491   6.736  13.609  0.00  0.00    +0.000 C 
BRANCH   7  10
ATOM      8  C   UNL     1      45.826   5.860  12.038  0.00  0.00    +0.000 C 
ATOM      9  O   UNL     1      44.891   6.290  12.705  0.00  0.00    +0.000 OA
ATOM     10  N   UNL     1      47.139   5.987  12.418  0.00  0.00    +0.000 N 
ATOM     11  H   UNL     1      47.901   5.641  11.850  0.00  0.00    +0.000 HD
BRANCH   8  15
ATOM     12  C   UNL     1      45.234   3.928   8.342  0.00  0.00    +0.000 A 
ATOM     13  C   UNL     1      44.661   3.329   9.457  0.00  0.00    +0.000 A 
ATOM     14  C   UNL     1      44.817   3.946  10.703  0.00  0.00    +0.000 A 
ATOM     15  C   UNL     1      45.545   5.133  10.783  0.00  0.00    +0.000 A 
ATOM     16  C   UNL     1      46.081   5.650   9.609  0.00  0.00    +0.000 A 
ATOM     17  N   UNL     1      45.927   5.082   8.390  0.00  0.00    +0.000 NA
BRANCH  12  19
ATOM     18  C   UNL     1      46.332   3.006   6.501  0.00  0.00    +0.000 C 
ATOM     19  O   UNL     1      45.084   3.274   7.136  0.00  0.00    +0.000 OA
ENDBRANCH  12  19
ENDBRANCH   8  15
ENDBRANCH   7  10
ENDBRANCH   1   7
BRANCH   4  20
ATOM     20  C   UNL     1      48.544   3.347  18.157  0.00  0.00    +0.000 C 
BRANCH  20  21
ATOM     21  N   UNL     1      49.956   3.070  18.253  0.00  0.00    +0.000 N 
ATOM     22  C   UNL     1      50.575   2.226  17.365  0.00  0.00    +0.000 C 
ATOM     23  O   UNL     1      49.967   1.709  16.432  0.00  0.00    +0.000 OA
ATOM     24  H   UNL     1      50.418   3.295  19.128  0.00  0.00    +0.000 HD
BRANCH  22  25
ATOM     25  C   UNL     1      52.015   2.019  17.555  0.00  0.00    +0.000 A 
ATOM     26  C   UNL     1      52.519   0.727  17.632  0.00  0.00    +0.000 A 
ATOM     27  S   UNL     1      54.215   0.662  17.799  0.00  0.00    +0.000 S 
ATOM     28  C   UNL     1      54.331   2.358  17.830  0.00  0.00    +0.000 A 
ATOM     29  N   UNL     1      55.536   2.972  17.983  0.00  0.00    +0.000 NA
ATOM     30  C   UNL     1      55.473   4.262  18.025  0.00  0.00    +0.000 A 
ATOM     31  N   UNL     1      54.320   4.993  17.922  0.00  0.00    +0.000 N 
ATOM     32  C   UNL     1      53.084   4.417  17.729  0.00  0.00    +0.000 A 
ATOM     33  O   UNL     1      52.078   5.101  17.582  0.00  0.00    +0.000 OA
ATOM     34  C   UNL     1      53.097   2.967  17.694  0.00  0.00    +0.000 A 
ATOM     35  H   UNL     1      54.345   6.001  17.953  0.00  0.00    +0.000 HD
ENDBRANCH  22  25
ENDBRANCH  20  21
ENDBRANCH   4  20
TORSDOF 7
ENDMDL
MODEL 5
REMARK VINA RESULT:    -6.448      5.512      8.040
REMARK INTER + INTRA:          -9.986
REMARK INTER:                  -9.091
REMARK INTRA:                  -0.895
REMARK UNBOUND:                -0.900
REMARK  Name = 
REMARK  8 active torsions:
REMARK  status: ('A' for Active; 'I' for Inactive)
REMARK    1  A    between atoms: C_1  and  O_2
REMARK    2  A    between atoms: O_2  and  C_3
REMARK    3  A    between atoms: C_6  and  C_7
REMARK    4  A    between atoms: N_9  and  C_10
REMARK    5  A    between atoms: C_10  and  C_11
REMARK    6  A    between atoms: C_14  and  C_15
REMARK    7  A    between atoms: C_15  and  N_16
REMARK    8  A    between atoms: C_17  and  C_19
REMARK                            x       y       z     vdW  Elec       q    Type
REMARK                         _______ _______ _______ _____ _____    ______ ____
ROOT
ATOM      1  C   UNL     1      48.645   3.279  17.219  0.00  0.00    +0.000 A 
ATOM      2  C   UNL     1      49.437   2.168  16.934  0.00  0.00    +0.000 A 
ATOM      3  C   UNL     1      50.783   2.190  17.294  0.00  0.00    +0.000 A 
ATOM      4  C   UNL     1      51.311   3.312  17.935  0.00  0.00    +0.000 A 
ATOM      5  C   UNL     1      50.454   4.386  18.144  0.00  0.00    +0.000 A 
ATOM      6  N   UNL     1      49.146   4.400  17.795  0.00  0.00    +0.000 NA
ENDROOT
BRANCH   1   7
ATOM      7  C   UNL     1      47.186   3.292  16.833  0.00  0.00    +0.000 C 
BRANCH   7  10
ATOM      8  C   UNL     1      46.897   4.196  14.573  0.00  0.00    +0.000 C 
ATOM      9  O   UNL     1      47.241   3.142  14.049  0.00  0.00    +0.000 OA
ATOM     10  N   UNL     1      46.879   4.387  15.932  0.00  0.00    +0.000 N 
ATOM     11  H   UNL     1      46.577   5.256  16.351  0.00  0.00    +0.000 HD
BRANCH   8  15
ATOM     12  C   UNL     1      45.548   7.394  12.186  0.00  0.00    +0.000 A 
ATOM     13  C   UNL     1      46.879   7.431  12.584  0.00  0.00    +0.000 A 
ATOM     14  C   UNL     1      47.375   6.381  13.364  0.00  0.00    +0.000 A 
ATOM     15  C   UNL     1      46.518   5.339  13.717  0.00  0.00    +0.000 A 
ATOM     16  C   UNL     1      45.203   5.396  13.271  0.00  0.00    +0.000 A 
ATOM     17  N   UNL     1      44.705   6.392  12.501  0.00  0.00    +0.000 NA
BRANCH  12  19
ATOM     18  C   UNL     1      45.169   9.697  12.157  0.00  0.00    +0.000 C 
ATOM     19  O   UNL     1      45.090   8.463  11.444  0.00  0.00    +0.000 OA
ENDBRANCH  12  19
ENDBRANCH   8  15
ENDBRANCH   7  10
ENDBRANCH   1   7
BRANCH   4  20
ATOM     20  C   UNL     1      52.752   3.387  18.345  0.00  0.00    +0.000 C 
BRANCH  20  21
ATOM     21  N   UNL     1      53.242   2.103  18.779  0.00  0.00    +0.000 N 
ATOM     22  C   UNL     1      54.568   1.770  18.653  0.00  0.00    +0.000 C 
ATOM     23  O   UNL     1      55.395   2.562  18.210  0.00  0.00    +0.000 OA
ATOM     24  H   UNL     1      52.559   1.367  18.928  0.00  0.00    +0.000 HD
BRANCH  22  25
ATOM     25  C   UNL     1      54.957   0.438  19.130  0.00  0.00    +0.000 A 
ATOM     26  C   UNL     1      55.408   0.280  20.434  0.00  0.00    +0.000 A 
ATOM     27  S   UNL     1      55.767  -1.336  20.844  0.00  0.00    +0.000 S 
ATOM     28  C   UNL     1      55.385  -1.875  19.277  0.00  0.00    +0.000 A 
ATOM     29  N   UNL     1      55.508  -3.188  18.942  0.00  0.00    +0.000 NA
ATOM     30  C   UNL     1      55.219  -3.451  17.710  0.00  0.00    +0.000 A 
ATOM     31  N   UNL     1      54.814  -2.525  16.787  0.00  0.00    +0.000 N 
ATOM     32  C   UNL     1      54.639  -1.193  17.091  0.00  0.00    +0.000 A 
ATOM     33  O   UNL     1      54.218  -0.399  16.257  0.00  0.00    +0.000 OA
ATOM     34  C   UNL     1      54.969  -0.841  18.458  0.00  0.00    +0.000 A 
ATOM     35  H   UNL     1      54.593  -2.802  15.842  0.00  0.00    +0.000 HD
ENDBRANCH  22  25
ENDBRANCH  20  21
ENDBRANCH   4  20
TORSDOF 7
ENDMDL
MODEL 6
REMARK VINA RESULT:    -6.445      2.774      3.667
REMARK INTER + INTRA:          -9.983
REMARK INTER:                  -8.964
REMARK INTRA:                  -1.019
REMARK UNBOUND:                -0.900
REMARK  Name = 
REMARK  8 active torsions:
REMARK  status: ('A' for Active; 'I' for Inactive)
REMARK    1  A    between atoms: C_1  and  O_2
REMARK    2  A    between atoms: O_2  and  C_3
REMARK    3  A    between atoms: C_6  and  C_7
REMARK    4  A    between atoms: N_9  and  C_10
REMARK    5  A    between atoms: C_10  and  C_11
REMARK    6  A    between atoms: C_14  and  C_15
REMARK    7  A    between atoms: C_15  and  N_16
REMARK    8  A    between atoms: C_17  and  C_19
REMARK                            x       y       z     vdW  Elec       q    Type
REMARK                         _______ _______ _______ _____ _____    ______ ____
ROOT
ATOM      1  C   UNL     1      47.637   7.926  13.997  0.00  0.00    +0.000 A 
ATOM      2  C   UNL     1      48.272   6.722  14.298  0.00  0.00    +0.000 A 
ATOM      3  C   UNL     1      49.352   6.733  15.180  0.00  0.00    +0.000 A 
ATOM      4  C   UNL     1      49.772   7.936  15.748  0.00  0.00    +0.000 A 
ATOM      5  C   UNL     1      49.101   9.090  15.360  0.00  0.00    +0.000 A 
ATOM      6  N   UNL     1      48.058   9.114  14.497  0.00  0.00    +0.000 NA
ENDROOT
BRANCH   1   7
ATOM      7  C   UNL     1      46.471   7.951  13.039  0.00  0.00    +0.000 C 
BRANCH   7  10
ATOM      8  C   UNL     1      45.355   6.534  11.379  0.00  0.00    +0.000 C 
ATOM      9  O   UNL     1      44.479   7.369  11.176  0.00  0.00    +0.000 OA
ATOM     10  N   UNL     1      46.353   6.705  12.306  0.00  0.00    +0.000 N 
ATOM     11  H   UNL     1      47.078   6.015  12.451  0.00  0.00    +0.000 HD
BRANCH   8  15
ATOM     12  C   UNL     1      45.136   2.796   9.450  0.00  0.00    +0.000 A 
ATOM     13  C   UNL     1      45.470   3.888   8.658  0.00  0.00    +0.000 A 
ATOM     14  C   UNL     1      45.571   5.146   9.259  0.00  0.00    +0.000 A 
ATOM     15  C   UNL     1      45.329   5.262  10.628  0.00  0.00    +0.000 A 
ATOM     16  C   UNL     1      44.999   4.110  11.332  0.00  0.00    +0.000 A 
ATOM     17  N   UNL     1      44.913   2.879  10.775  0.00  0.00    +0.000 NA
BRANCH  12  19
ATOM     18  C   UNL     1      46.182   1.233   8.069  0.00  0.00    +0.000 C 
ATOM     19  O   UNL     1      45.015   1.578   8.814  0.00  0.00    +0.000 OA
ENDBRANCH  12  19
ENDBRANCH   8  15
ENDBRANCH   7  10
ENDBRANCH   1   7
BRANCH   4  20
ATOM     20  C   UNL     1      50.926   8.003  16.703  0.00  0.00    +0.000 C 
BRANCH  20  21
ATOM     21  N   UNL     1      51.506   6.701  16.918  0.00  0.00    +0.000 N 
ATOM     22  C   UNL     1      51.951   6.319  18.159  0.00  0.00    +0.000 C 
ATOM     23  O   UNL     1      51.834   7.046  19.141  0.00  0.00    +0.000 OA
ATOM     24  H   UNL     1      51.816   6.186  16.100  0.00  0.00    +0.000 HD
BRANCH  22  25
ATOM     25  C   UNL     1      52.520   4.970  18.264  0.00  0.00    +0.000 A 
ATOM     26  C   UNL     1      53.822   4.808  18.719  0.00  0.00    +0.000 A 
ATOM     27  S   UNL     1      54.310   3.178  18.832  0.00  0.00    +0.000 S 
ATOM     28  C   UNL     1      52.819   2.632  18.223  0.00  0.00    +0.000 A 
ATOM     29  N   UNL     1      52.584   1.305  18.039  0.00  0.00    +0.000 NA
ATOM     30  C   UNL     1      51.424   1.036  17.538  0.00  0.00    +0.000 A 
ATOM     31  N   UNL     1      50.477   1.969  17.210  0.00  0.00    +0.000 N 
ATOM     32  C   UNL     1      50.656   3.319  17.413  0.00  0.00    +0.000 A 
ATOM     33  O   UNL     1      49.767   4.125  17.164  0.00  0.00    +0.000 OA
ATOM     34  C   UNL     1      51.952   3.677  17.958  0.00  0.00    +0.000 A 
ATOM     35  H   UNL     1      49.586   1.687  16.830  0.00  0.00    +0.000 HD
ENDBRANCH  22  25
ENDBRANCH  20  21
ENDBRANCH   4  20
TORSDOF 7
ENDMDL
MODEL 7
REMARK VINA RESULT:    -6.271      6.021      8.539
REMARK INTER + INTRA:          -9.737
REMARK INTER:                  -8.736
REMARK INTRA:                  -1.001
REMARK UNBOUND:                -0.900
REMARK  Name = 
REMARK  8 active torsions:
REMARK  status: ('A' for Active; 'I' for Inactive)
REMARK    1  A    between atoms: C_1  and  O_2
REMARK    2  A    between atoms: O_2  and  C_3
REMARK    3  A    between atoms: C_6  and  C_7
REMARK    4  A    between atoms: N_9  and  C_10
REMARK    5  A    between atoms: C_10  and  C_11
REMARK    6  A    between atoms: C_14  and  C_15
REMARK    7  A    between atoms: C_15  and  N_16
REMARK    8  A    between atoms: C_17  and  C_19
REMARK                            x       y       z     vdW  Elec       q    Type
REMARK                         _______ _______ _______ _____ _____    ______ ____
ROOT
ATOM      1  C   UNL     1      48.949   3.071  17.139  0.00  0.00    +0.000 A 
ATOM      2  C   UNL     1      49.650   4.039  17.857  0.00  0.00    +0.000 A 
ATOM      3  C   UNL     1      51.009   3.846  18.099  0.00  0.00    +0.000 A 
ATOM      4  C   UNL     1      51.643   2.699  17.619  0.00  0.00    +0.000 A 
ATOM      5  C   UNL     1      50.855   1.773  16.947  0.00  0.00    +0.000 A 
ATOM      6  N   UNL     1      49.531   1.925  16.706  0.00  0.00    +0.000 NA
ENDROOT
BRANCH   1   7
ATOM      7  C   UNL     1      47.475   3.244  16.868  0.00  0.00    +0.000 C 
BRANCH   7  10
ATOM      8  C   UNL     1      47.079   4.275  14.680  0.00  0.00    +0.000 C 
ATOM      9  O   UNL     1      47.243   3.212  14.089  0.00  0.00    +0.000 OA
ATOM     10  N   UNL     1      47.215   4.406  16.039  0.00  0.00    +0.000 N 
ATOM     11  H   UNL     1      47.060   5.285  16.514  0.00  0.00    +0.000 HD
BRANCH   8  15
ATOM     12  C   UNL     1      45.894   7.663  12.475  0.00  0.00    +0.000 A 
ATOM     13  C   UNL     1      47.153   7.710  13.063  0.00  0.00    +0.000 A 
ATOM     14  C   UNL     1      47.595   6.600  13.790  0.00  0.00    +0.000 A 
ATOM     15  C   UNL     1      46.757   5.490  13.904  0.00  0.00    +0.000 A 
ATOM     16  C   UNL     1      45.516   5.543  13.281  0.00  0.00    +0.000 A 
ATOM     17  N   UNL     1      45.074   6.598  12.557  0.00  0.00    +0.000 NA
BRANCH  12  19
ATOM     18  C   UNL     1      46.406   9.869  11.914  0.00  0.00    +0.000 C 
ATOM     19  O   UNL     1      45.483   8.789  11.793  0.00  0.00    +0.000 OA
ENDBRANCH  12  19
ENDBRANCH   8  15
ENDBRANCH   7  10
ENDBRANCH   1   7
BRANCH   4  20
ATOM     20  C   UNL     1      53.103   2.443  17.851  0.00  0.00    +0.000 C 
BRANCH  20  21
ATOM     21  N   UNL     1      53.455   1.083  17.531  0.00  0.00    +0.000 N 
ATOM     22  C   UNL     1      54.762   0.716  17.333  0.00  0.00    +0.000 C 
ATOM     23  O   UNL     1      55.686   1.515  17.464  0.00  0.00    +0.000 OA
ATOM     24  H   UNL     1      52.714   0.474  17.199  0.00  0.00    +0.000 HD
BRANCH  22  25
ATOM     25  C   UNL     1      55.006  -0.696  17.015  0.00  0.00    +0.000 A 
ATOM     26  C   UNL     1      55.436  -1.049  15.743  0.00  0.00    +0.000 A 
ATOM     27  S   UNL     1      55.723  -2.719  15.556  0.00  0.00    +0.000 S 
ATOM     28  C   UNL     1      55.229  -3.038  17.151  0.00  0.00    +0.000 A 
ATOM     29  N   UNL     1      55.208  -4.310  17.634  0.00  0.00    +0.000 NA
ATOM     30  C   UNL     1      54.778  -4.410  18.849  0.00  0.00    +0.000 A 
ATOM     31  N   UNL     1      54.372  -3.357  19.624  0.00  0.00    +0.000 N 
ATOM     32  C   UNL     1      54.412  -2.050  19.191  0.00  0.00    +0.000 A 
ATOM     33  O   UNL     1      54.098  -1.124  19.930  0.00  0.00    +0.000 OA
ATOM     34  C   UNL     1      54.870  -1.885  17.825  0.00  0.00    +0.000 A 
ATOM     35  H   UNL     1      54.056  -3.506  20.570  0.00  0.00    +0.000 HD
ENDBRANCH  22  25
ENDBRANCH  20  21
ENDBRANCH   4  20
TORSDOF 7
ENDMDL
MODEL 8
REMARK VINA RESULT:    -6.010      5.572      7.842
REMARK INTER + INTRA:          -9.370
REMARK INTER:                  -8.454
REMARK INTRA:                  -0.917
REMARK UNBOUND:                -0.900
REMARK  Name = 
REMARK  8 active torsions:
REMARK  status: ('A' for Active; 'I' for Inactive)
REMARK    1  A    between atoms: C_1  and  O_2
REMARK    2  A    between atoms: O_2  and  C_3
REMARK    3  A    between atoms: C_6  and  C_7
REMARK    4  A    between atoms: N_9  and  C_10
REMARK    5  A    between atoms: C_10  and  C_11
REMARK    6  A    between atoms: C_14  and  C_15
REMARK    7  A    between atoms: C_15  and  N_16
REMARK    8  A    between atoms: C_17  and  C_19
REMARK                            x       y       z     vdW  Elec       q    Type
REMARK                         _______ _______ _______ _____ _____    ______ ____
ROOT
ATOM      1  C   UNL     1      48.751   9.171  13.372  0.00  0.00    +0.000 A 
ATOM      2  C   UNL     1      50.024   9.205  13.938  0.00  0.00    +0.000 A 
ATOM      3  C   UNL     1      51.081   9.724  13.190  0.00  0.00    +0.000 A 
ATOM      4  C   UNL     1      50.848  10.202  11.900  0.00  0.00    +0.000 A 
ATOM      5  C   UNL     1      49.553  10.092  11.406  0.00  0.00    +0.000 A 
ATOM      6  N   UNL     1      48.510   9.583  12.102  0.00  0.00    +0.000 NA
ENDROOT
BRANCH   1   7
ATOM      7  C   UNL     1      47.588   8.607  14.150  0.00  0.00    +0.000 C 
BRANCH   7  10
ATOM      8  C   UNL     1      47.159   6.339  13.327  0.00  0.00    +0.000 C 
ATOM      9  O   UNL     1      48.154   5.890  13.887  0.00  0.00    +0.000 OA
ATOM     10  N   UNL     1      46.818   7.668  13.358  0.00  0.00    +0.000 N 
ATOM     11  H   UNL     1      45.985   8.021  12.905  0.00  0.00    +0.000 HD
BRANCH   8  15
ATOM     12  C   UNL     1      44.654   3.600  11.335  0.00  0.00    +0.000 A 
ATOM     13  C   UNL     1      44.904   4.803  10.685  0.00  0.00    +0.000 A 
ATOM     14  C   UNL     1      45.744   5.735  11.302  0.00  0.00    +0.000 A 
ATOM     15  C   UNL     1      46.296   5.429  12.546  0.00  0.00    +0.000 A 
ATOM     16  C   UNL     1      45.982   4.199  13.114  0.00  0.00    +0.000 A 
ATOM     17  N   UNL     1      45.187   3.274  12.528  0.00  0.00    +0.000 NA
BRANCH  12  19
ATOM     18  C   UNL     1      44.330   2.212   9.487  0.00  0.00    +0.000 C 
ATOM     19  O   UNL     1      43.796   2.720  10.709  0.00  0.00    +0.000 OA
ENDBRANCH  12  19
ENDBRANCH   8  15
ENDBRANCH   7  10
ENDBRANCH   1   7
BRANCH   4  20
ATOM     20  C   UNL     1      51.948  10.770  11.054  0.00  0.00    +0.000 C 
BRANCH  20  21
ATOM     21  N   UNL     1      52.109  10.024   9.831  0.00  0.00    +0.000 N 
ATOM     22  C   UNL     1      53.246   9.294   9.589  0.00  0.00    +0.000 C 
ATOM     23  O   UNL     1      54.149   9.209  10.417  0.00  0.00    +0.000 OA
ATOM     24  H   UNL     1      51.497  10.259   9.056  0.00  0.00    +0.000 HD
BRANCH  22  25
ATOM     25  C   UNL     1      53.302   8.571   8.313  0.00  0.00    +0.000 A 
ATOM     26  C   UNL     1      53.201   9.275   7.121  0.00  0.00    +0.000 A 
ATOM     27  S   UNL     1      53.338   8.294   5.733  0.00  0.00    +0.000 S 
ATOM     28  C   UNL     1      53.481   6.886   6.675  0.00  0.00    +0.000 A 
ATOM     29  N   UNL     1      53.604   5.664   6.090  0.00  0.00    +0.000 NA
ATOM     30  C   UNL     1      53.668   4.679   6.925  0.00  0.00    +0.000 A 
ATOM     31  N   UNL     1      53.626   4.805   8.287  0.00  0.00    +0.000 N 
ATOM     32  C   UNL     1      53.540   6.023   8.924  0.00  0.00    +0.000 A 
ATOM     33  O   UNL     1      53.564   6.106  10.147  0.00  0.00    +0.000 OA
ATOM     34  C   UNL     1      53.447   7.161   8.031  0.00  0.00    +0.000 A 
ATOM     35  H   UNL     1      53.691   3.992   8.882  0.00  0.00    +0.000 HD
ENDBRANCH  22  25
ENDBRANCH  20  21
ENDBRANCH   4  20
TORSDOF 7
ENDMDL
MODEL 9
REMARK VINA RESULT:    -5.766      6.456      9.123
REMARK INTER + INTRA:          -9.025
REMARK INTER:                  -8.216
REMARK INTRA:                  -0.809
REMARK UNBOUND:                -0.900
REMARK  Name = 
REMARK  8 active torsions:
REMARK  status: ('A' for Active; 'I' for Inactive)
REMARK    1  A    between atoms: C_1  and  O_2
REMARK    2  A    between atoms: O_2  and  C_3
REMARK    3  A    between atoms: C_6  and  C_7
REMARK    4  A    between atoms: N_9  and  C_10
REMARK    5  A    between atoms: C_10  and  C_11
REMARK    6  A    between atoms: C_14  and  C_15
REMARK    7  A    between atoms: C_15  and  N_16
REMARK    8  A    between atoms: C_17  and  C_19
REMARK                            x       y       z     vdW  Elec       q    Type
REMARK                         _______ _______ _______ _____ _____    ______ ____
ROOT
ATOM      1  C   UNL     1      50.285   3.478  17.785  0.00  0.00    +0.000 A 
ATOM      2  C   UNL     1      51.471   3.878  18.398  0.00  0.00    +0.000 A 
ATOM      3  C   UNL     1      52.564   3.012  18.383  0.00  0.00    +0.000 A 
ATOM      4  C   UNL     1      52.456   1.772  17.753  0.00  0.00    +0.000 A 
ATOM      5  C   UNL     1      51.223   1.444  17.201  0.00  0.00    +0.000 A 
ATOM      6  N   UNL     1      50.141   2.257  17.212  0.00  0.00    +0.000 NA
ENDROOT
BRANCH   1   7
ATOM      7  C   UNL     1      49.081   4.387  17.793  0.00  0.00    +0.000 C 
BRANCH   7  10
ATOM      8  C   UNL     1      47.477   4.415  15.940  0.00  0.00    +0.000 C 
ATOM      9  O   UNL     1      46.690   3.687  16.538  0.00  0.00    +0.000 OA
ATOM     10  N   UNL     1      48.697   4.780  16.451  0.00  0.00    +0.000 N 
ATOM     11  H   UNL     1      49.328   5.394  15.953  0.00  0.00    +0.000 HD
BRANCH   8  15
ATOM     12  C   UNL     1      46.262   5.625  12.093  0.00  0.00    +0.000 A 
ATOM     13  C   UNL     1      47.166   6.451  12.749  0.00  0.00    +0.000 A 
ATOM     14  C   UNL     1      47.611   6.079  14.022  0.00  0.00    +0.000 A 
ATOM     15  C   UNL     1      47.128   4.899  14.589  0.00  0.00    +0.000 A 
ATOM     16  C   UNL     1      46.224   4.144  13.851  0.00  0.00    +0.000 A 
ATOM     17  N   UNL     1      45.793   4.474  12.611  0.00  0.00    +0.000 NA
BRANCH  12  19
ATOM     18  C   UNL     1      44.975   5.084  10.223  0.00  0.00    +0.000 C 
ATOM     19  O   UNL     1      45.824   6.042  10.852  0.00  0.00    +0.000 OA
ENDBRANCH  12  19
ENDBRANCH   8  15
ENDBRANCH   7  10
ENDBRANCH   1   7
BRANCH   4  20
ATOM     20  C   UNL     1      53.601   0.804  17.706  0.00  0.00    +0.000 C 
BRANCH  20  21
ATOM     21  N   UNL     1      53.247  -0.458  18.307  0.00  0.00    +0.000 N 
ATOM     22  C   UNL     1      54.204  -1.397  18.601  0.00  0.00    +0.000 C 
ATOM     23  O   UNL     1      55.398  -1.187  18.409  0.00  0.00    +0.000 OA
ATOM     24  H   UNL     1      52.273  -0.740  18.262  0.00  0.00    +0.000 HD
BRANCH  22  25
ATOM     25  C   UNL     1      53.730  -2.645  19.213  0.00  0.00    +0.000 A 
ATOM     26  C   UNL     1      53.262  -2.634  20.520  0.00  0.00    +0.000 A 
ATOM     27  S   UNL     1      52.702  -4.152  21.059  0.00  0.00    +0.000 S 
ATOM     28  C   UNL     1      53.116  -4.889  19.584  0.00  0.00    +0.000 A 
ATOM     29  N   UNL     1      52.917  -6.221  19.390  0.00  0.00    +0.000 NA
ATOM     30  C   UNL     1      53.309  -6.655  18.237  0.00  0.00    +0.000 A 
ATOM     31  N   UNL     1      53.876  -5.880  17.262  0.00  0.00    +0.000 N 
ATOM     32  C   UNL     1      54.062  -4.522  17.399  0.00  0.00    +0.000 A 
ATOM     33  O   UNL     1      54.518  -3.845  16.484  0.00  0.00    +0.000 OA
ATOM     34  C   UNL     1      53.654  -3.988  18.684  0.00  0.00    +0.000 A 
ATOM     35  H   UNL     1      54.151  -6.282  16.379  0.00  0.00    +0.000 HD
ENDBRANCH  22  25
ENDBRANCH  20  21
ENDBRANCH   4  20
TORSDOF 7
ENDMDL
