MODEL 1
REMARK VINA RESULT:    -7.022      0.000      0.000
REMARK INTER + INTRA:         -11.074
REMARK INTER:                 -10.307
REMARK INTRA:                  -0.768
REMARK UNBOUND:                -0.768
REMARK  Name = 
REMARK  9 active torsions:
REMARK  status: ('A' for Active; 'I' for Inactive)
REMARK    1  A    between atoms: N_1  and  C_2
REMARK    2  A    between atoms: C_2  and  C_3
REMARK    3  A    between atoms: C_2  and  C_21
REMARK    4  A    between atoms: C_3  and  C_4
REMARK    5  A    between atoms: C_7  and  C_8
REMARK    6  A    between atoms: N_10  and  CA_11
REMARK    7  A    between atoms: CA_11  and  C_12
REMARK    8  A    between atoms: CA_11  and  C_14
REMARK    9  A    between atoms: C_12  and  O_13
REMARK                            x       y       z     vdW  Elec       q    Type
REMARK                         _______ _______ _______ _____ _____    ______ ____
ROOT
ATOM      1  C   UNL     1      47.101   6.640  13.082  0.00  0.00    +0.000 A 
ATOM      2  C   UNL     1      47.849   7.722  13.565  0.00  0.00    +0.000 A 
ATOM      3  C   UNL     1      48.593   7.599  14.742  0.00  0.00    +0.000 A 
ATOM      4  C   UNL     1      48.582   6.398  15.462  0.00  0.00    +0.000 A 
ATOM      5  C   UNL     1      47.738   5.360  15.047  0.00  0.00    +0.000 A 
ATOM      6  C   UNL     1      47.006   5.480  13.862  0.00  0.00    +0.000 A 
ENDROOT
BRANCH   4   7
ATOM      7  C   UNL     1      49.463   6.179  16.644  0.00  0.00    +0.000 C 
ATOM      8  O   UNL     1      50.030   7.114  17.204  0.00  0.00    +0.000 OA
ATOM      9  N   UNL     1      49.544   4.889  17.118  0.00  0.00    +0.000 N 
ATOM     10  H   UNL     1      48.861   4.209  16.809  0.00  0.00    +0.000 HD
BRANCH   9  11
ATOM     11  CA  UNL     1      50.356   4.540  18.280  0.00  0.00    +0.000 C 
BRANCH  11  12
ATOM     12  C   UNL     1      51.079   3.260  17.977  0.00  0.00    +0.000 A 
ATOM     13  C   UNL     1      50.606   2.151  17.299  0.00  0.00    +0.000 A 
ATOM     14  N   UNL     1      51.495   1.104  17.157  0.00  0.00    +0.000 NA
ATOM     15  C   UNL     1      52.630   1.419  17.737  0.00  0.00    +0.000 A 
ATOM     16  S   UNL     1      52.703   2.966  18.469  0.00  0.00    +0.000 S 
ENDBRANCH  11  12
BRANCH  11  17
ATOM     17  C   UNL     1      49.539   4.451  19.592  0.00  0.00    +0.000 C 
BRANCH  17  18
ATOM     18  O   UNL     1      48.512   3.460  19.565  0.00  0.00    +0.000 OA
ATOM     19  H   UNL     1      48.921   2.581  19.713  0.00  0.00    +0.000 HD
ENDBRANCH  17  18
ENDBRANCH  11  17
ENDBRANCH   9  11
ENDBRANCH   4   7
BRANCH   1  20
ATOM     20  C   UNL     1      46.486   6.685  11.697  0.00  0.00    +0.000 C 
BRANCH  20  21
ATOM     21  C   UNL     1      44.936   6.547  11.723  0.00  0.00    +0.000 C 
BRANCH  21  22
ATOM     22  C   UNL     1      44.469   5.140  11.410  0.00  0.00    +0.000 A 
ATOM     23  C   UNL     1      43.601   4.439  12.234  0.00  0.00    +0.000 A 
ATOM     24  S   UNL     1      43.357   2.824  11.739  0.00  0.00    +0.000 S 
ATOM     25  C   UNL     1      44.332   3.036  10.361  0.00  0.00    +0.000 A 
ATOM     26  N   UNL     1      44.551   2.016   9.489  0.00  0.00    +0.000 NA
ATOM     27  C   UNL     1      45.237   2.348   8.446  0.00  0.00    +0.000 A 
ATOM     28  N   UNL     1      45.723   3.606   8.195  0.00  0.00    +0.000 N 
ATOM     29  C   UNL     1      45.558   4.661   9.063  0.00  0.00    +0.000 A 
ATOM     30  O   UNL     1      45.991   5.779   8.805  0.00  0.00    +0.000 OA
ATOM     31  C   UNL     1      44.808   4.330  10.263  0.00  0.00    +0.000 A 
ATOM     32  H   UNL     1      46.215   3.807   7.338  0.00  0.00    +0.000 HD
ENDBRANCH  21  22
BRANCH  21  33
ATOM     33  N   UNL     1      44.254   7.484  10.830  0.00  0.00    +0.000 NA
ATOM     34  H   UNL     1      43.355   7.108  10.544  0.00  0.00    +0.000 HD
ATOM     35  H   UNL     1      44.816   7.600   9.980  0.00  0.00    +0.000 HD
ENDBRANCH  21  33
ENDBRANCH  20  21
ENDBRANCH   1  20
TORSDOF 9
ENDMDL
MODEL 2
REMARK VINA RESULT:    -6.549      5.411      6.776
REMARK INTER + INTRA:         -10.380
REMARK INTER:                  -9.315
REMARK INTRA:                  -1.065
REMARK UNBOUND:                -0.768
REMARK  Name = 
REMARK  9 active torsions:
REMARK  status: ('A' for Active; 'I' for Inactive)
REMARK    1  A    between atoms: N_1  and  C_2
REMARK    2  A    between atoms: C_2  and  C_3
REMARK    3  A    between atoms: C_2  and  C_21
REMARK    4  A    between atoms: C_3  and  C_4
REMARK    5  A    between atoms: C_7  and  C_8
REMARK    6  A    between atoms: N_10  and  CA_11
REMARK    7  A    between atoms: CA_11  and  C_12
REMARK    8  A    between atoms: CA_11  and  C_14
REMARK    9  A    between atoms: C_12  and  O_13
REMARK                            x       y       z     vdW  Elec       q    Type
REMARK                         _______ _______ _______ _____ _____    ______ ____
ROOT
ATOM      1  C   UNL     1      49.030   7.870  12.921  0.00  0.00    +0.000 A 
ATOM      2  C   UNL     1      49.082   7.722  11.529  0.00  0.00    +0.000 A 
ATOM      3  C   UNL     1      50.310   7.719  10.862  0.00  0.00    +0.000 A 
ATOM      4  C   UNL     1      51.503   7.884  11.577  0.00  0.00    +0.000 A 
ATOM      5  C   UNL     1      51.443   8.156  12.950  0.00  0.00    +0.000 A 
ATOM      6  C   UNL     1      50.215   8.144  13.618  0.00  0.00    +0.000 A 
ENDROOT
BRANCH   4   7
ATOM      7  C   UNL     1      52.837   7.752  10.927  0.00  0.00    +0.000 C 
ATOM      8  O   UNL     1      53.647   8.676  10.932  0.00  0.00    +0.000 OA
ATOM      9  N   UNL     1      53.140   6.519  10.395  0.00  0.00    +0.000 N 
ATOM     10  H   UNL     1      52.573   5.721  10.649  0.00  0.00    +0.000 HD
BRANCH   9  11
ATOM     11  CA  UNL     1      54.421   6.250   9.746  0.00  0.00    +0.000 C 
BRANCH  11  12
ATOM     12  C   UNL     1      54.144   5.675   8.389  0.00  0.00    +0.000 A 
ATOM     13  C   UNL     1      53.114   5.989   7.520  0.00  0.00    +0.000 A 
ATOM     14  N   UNL     1      53.103   5.303   6.322  0.00  0.00    +0.000 NA
ATOM     15  C   UNL     1      54.114   4.466   6.292  0.00  0.00    +0.000 A 
ATOM     16  S   UNL     1      55.128   4.454   7.673  0.00  0.00    +0.000 S 
ENDBRANCH  11  12
BRANCH  11  17
ATOM     17  C   UNL     1      55.351   5.340  10.586  0.00  0.00    +0.000 C 
BRANCH  17  18
ATOM     18  O   UNL     1      54.658   4.347  11.342  0.00  0.00    +0.000 OA
ATOM     19  H   UNL     1      54.208   3.739  10.719  0.00  0.00    +0.000 HD
ENDBRANCH  17  18
ENDBRANCH  11  17
ENDBRANCH   9  11
ENDBRANCH   4   7
BRANCH   1  20
ATOM     20  C   UNL     1      47.734   7.641  13.674  0.00  0.00    +0.000 C 
BRANCH  20  21
ATOM     21  C   UNL     1      47.232   6.172  13.572  0.00  0.00    +0.000 C 
BRANCH  21  22
ATOM     22  C   UNL     1      45.954   6.045  12.770  0.00  0.00    +0.000 A 
ATOM     23  C   UNL     1      45.330   7.132  12.177  0.00  0.00    +0.000 A 
ATOM     24  S   UNL     1      43.827   6.745  11.467  0.00  0.00    +0.000 S 
ATOM     25  C   UNL     1      44.004   5.096  11.850  0.00  0.00    +0.000 A 
ATOM     26  N   UNL     1      43.045   4.190  11.521  0.00  0.00    +0.000 NA
ATOM     27  C   UNL     1      43.356   2.966  11.795  0.00  0.00    +0.000 A 
ATOM     28  N   UNL     1      44.537   2.567  12.368  0.00  0.00    +0.000 N 
ATOM     29  C   UNL     1      45.521   3.449  12.751  0.00  0.00    +0.000 A 
ATOM     30  O   UNL     1      46.574   3.061  13.248  0.00  0.00    +0.000 OA
ATOM     31  C   UNL     1      45.208   4.842  12.481  0.00  0.00    +0.000 A 
ATOM     32  H   UNL     1      44.734   1.589  12.516  0.00  0.00    +0.000 HD
ENDBRANCH  21  22
BRANCH  21  33
ATOM     33  N   UNL     1      47.044   5.530  14.873  0.00  0.00    +0.000 NA
ATOM     34  H   UNL     1      47.524   6.054  15.598  0.00  0.00    +0.000 HD
ATOM     35  H   UNL     1      47.467   4.596  14.846  0.00  0.00    +0.000 HD
ENDBRANCH  21  33
ENDBRANCH  20  21
ENDBRANCH   1  20
TORSDOF 9
ENDMDL
MODEL 3
REMARK VINA RESULT:    -6.505      1.579      2.236
REMARK INTER + INTRA:         -10.314
REMARK INTER:                  -9.434
REMARK INTRA:                  -0.881
REMARK UNBOUND:                -0.768
REMARK  Name = 
REMARK  9 active torsions:
REMARK  status: ('A' for Active; 'I' for Inactive)
REMARK    1  A    between atoms: N_1  and  C_2
REMARK    2  A    between atoms: C_2  and  C_3
REMARK    3  A    between atoms: C_2  and  C_21
REMARK    4  A    between atoms: C_3  and  C_4
REMARK    5  A    between atoms: C_7  and  C_8
REMARK    6  A    between atoms: N_10  and  CA_11
REMARK    7  A    between atoms: CA_11  and  C_12
REMARK    8  A    between atoms: CA_11  and  C_14
REMARK    9  A    between atoms: C_12  and  O_13
REMARK                            x       y       z     vdW  Elec       q    Type
REMARK                         _______ _______ _______ _____ _____    ______ ____
ROOT
ATOM      1  C   UNL     1      47.445   7.380  12.726  0.00  0.00    +0.000 A 
ATOM      2  C   UNL     1      47.132   6.166  13.353  0.00  0.00    +0.000 A 
ATOM      3  C   UNL     1      47.839   5.750  14.484  0.00  0.00    +0.000 A 
ATOM      4  C   UNL     1      48.882   6.535  14.993  0.00  0.00    +0.000 A 
ATOM      5  C   UNL     1      49.275   7.684  14.295  0.00  0.00    +0.000 A 
ATOM      6  C   UNL     1      48.557   8.106  13.173  0.00  0.00    +0.000 A 
ENDROOT
BRANCH   4   7
ATOM      7  C   UNL     1      49.571   6.199  16.271  0.00  0.00    +0.000 C 
ATOM      8  O   UNL     1      50.435   6.933  16.746  0.00  0.00    +0.000 OA
ATOM      9  N   UNL     1      49.133   5.070  16.926  0.00  0.00    +0.000 N 
ATOM     10  H   UNL     1      48.252   4.654  16.651  0.00  0.00    +0.000 HD
BRANCH   9  11
ATOM     11  CA  UNL     1      49.709   4.639  18.196  0.00  0.00    +0.000 C 
BRANCH  11  12
ATOM     12  C   UNL     1      50.586   3.450  17.931  0.00  0.00    +0.000 A 
ATOM     13  C   UNL     1      50.238   2.243  17.353  0.00  0.00    +0.000 A 
ATOM     14  N   UNL     1      51.255   1.318  17.225  0.00  0.00    +0.000 NA
ATOM     15  C   UNL     1      52.363   1.823  17.716  0.00  0.00    +0.000 A 
ATOM     16  S   UNL     1      52.258   3.413  18.345  0.00  0.00    +0.000 S 
ENDBRANCH  11  12
BRANCH  11  17
ATOM     17  C   UNL     1      48.644   4.347  19.282  0.00  0.00    +0.000 C 
BRANCH  17  18
ATOM     18  O   UNL     1      49.195   4.037  20.561  0.00  0.00    +0.000 OA
ATOM     19  H   UNL     1      49.402   3.079  20.589  0.00  0.00    +0.000 HD
ENDBRANCH  17  18
ENDBRANCH  11  17
ENDBRANCH   9  11
ENDBRANCH   4   7
BRANCH   1  20
ATOM     20  C   UNL     1      46.539   7.949  11.652  0.00  0.00    +0.000 C 
BRANCH  20  21
ATOM     21  C   UNL     1      45.117   7.318  11.668  0.00  0.00    +0.000 C 
BRANCH  21  22
ATOM     22  C   UNL     1      45.057   5.991  10.941  0.00  0.00    +0.000 A 
ATOM     23  C   UNL     1      45.626   5.795   9.692  0.00  0.00    +0.000 A 
ATOM     24  S   UNL     1      45.283   4.261   9.026  0.00  0.00    +0.000 S 
ATOM     25  C   UNL     1      44.438   3.779  10.422  0.00  0.00    +0.000 A 
ATOM     26  N   UNL     1      43.868   2.547  10.510  0.00  0.00    +0.000 NA
ATOM     27  C   UNL     1      43.338   2.289  11.660  0.00  0.00    +0.000 A 
ATOM     28  N   UNL     1      43.326   3.150  12.728  0.00  0.00    +0.000 N 
ATOM     29  C   UNL     1      43.857   4.418  12.676  0.00  0.00    +0.000 A 
ATOM     30  O   UNL     1      43.844   5.160  13.653  0.00  0.00    +0.000 OA
ATOM     31  C   UNL     1      44.448   4.762  11.394  0.00  0.00    +0.000 A 
ATOM     32  H   UNL     1      42.932   2.868  13.613  0.00  0.00    +0.000 HD
ENDBRANCH  21  22
BRANCH  21  33
ATOM     33  N   UNL     1      44.082   8.202  11.132  0.00  0.00    +0.000 NA
ATOM     34  H   UNL     1      44.233   9.155  11.450  0.00  0.00    +0.000 HD
ATOM     35  H   UNL     1      43.171   7.904  11.495  0.00  0.00    +0.000 HD
ENDBRANCH  21  33
ENDBRANCH  20  21
ENDBRANCH   1  20
TORSDOF 9
ENDMDL
MODEL 4
REMARK VINA RESULT:    -6.475      2.843      9.427
REMARK INTER + INTRA:         -10.271
REMARK INTER:                  -9.224
REMARK INTRA:                  -1.047
REMARK UNBOUND:                -0.768
REMARK  Name = 
REMARK  9 active torsions:
REMARK  status: ('A' for Active; 'I' for Inactive)
REMARK    1  A    between atoms: N_1  and  C_2
REMARK    2  A    between atoms: C_2  and  C_3
REMARK    3  A    between atoms: C_2  and  C_21
REMARK    4  A    between atoms: C_3  and  C_4
REMARK    5  A    between atoms: C_7  and  C_8
REMARK    6  A    between atoms: N_10  and  CA_11
REMARK    7  A    between atoms: CA_11  and  C_12
REMARK    8  A    between atoms: CA_11  and  C_14
REMARK    9  A    between atoms: C_12  and  O_13
REMARK                            x       y       z     vdW  Elec       q    Type
REMARK                         _______ _______ _______ _____ _____    ______ ____
ROOT
ATOM      1  C   UNL     1      49.597   7.271  14.844  0.00  0.00    +0.000 A 
ATOM      2  C   UNL     1      48.823   6.508  15.729  0.00  0.00    +0.000 A 
ATOM      3  C   UNL     1      47.795   5.693  15.248  0.00  0.00    +0.000 A 
ATOM      4  C   UNL     1      47.513   5.646  13.876  0.00  0.00    +0.000 A 
ATOM      5  C   UNL     1      48.204   6.502  13.008  0.00  0.00    +0.000 A 
ATOM      6  C   UNL     1      49.242   7.304  13.489  0.00  0.00    +0.000 A 
ENDROOT
BRANCH   4   7
ATOM      7  C   UNL     1      46.519   4.694  13.307  0.00  0.00    +0.000 C 
ATOM      8  O   UNL     1      46.543   3.497  13.588  0.00  0.00    +0.000 OA
ATOM      9  N   UNL     1      45.532   5.237  12.516  0.00  0.00    +0.000 N 
ATOM     10  H   UNL     1      45.386   6.238  12.532  0.00  0.00    +0.000 HD
BRANCH   9  11
ATOM     11  CA  UNL     1      44.486   4.418  11.912  0.00  0.00    +0.000 C 
BRANCH  11  12
ATOM     12  C   UNL     1      44.831   4.211  10.466  0.00  0.00    +0.000 A 
ATOM     13  C   UNL     1      45.470   5.086   9.606  0.00  0.00    +0.000 A 
ATOM     14  N   UNL     1      45.667   4.632   8.317  0.00  0.00    +0.000 NA
ATOM     15  C   UNL     1      45.167   3.423   8.203  0.00  0.00    +0.000 A 
ATOM     16  S   UNL     1      44.448   2.765   9.612  0.00  0.00    +0.000 S 
ENDBRANCH  11  12
BRANCH  11  17
ATOM     17  C   UNL     1      43.066   5.009  12.092  0.00  0.00    +0.000 C 
BRANCH  17  18
ATOM     18  O   UNL     1      42.823   5.537  13.396  0.00  0.00    +0.000 OA
ATOM     19  H   UNL     1      43.643   5.969  13.716  0.00  0.00    +0.000 HD
ENDBRANCH  17  18
ENDBRANCH  11  17
ENDBRANCH   9  11
ENDBRANCH   4   7
BRANCH   1  20
ATOM     20  C   UNL     1      50.855   7.968  15.325  0.00  0.00    +0.000 C 
BRANCH  20  21
ATOM     21  C   UNL     1      51.974   6.970  15.739  0.00  0.00    +0.000 C 
BRANCH  21  22
ATOM     22  C   UNL     1      52.308   7.045  17.215  0.00  0.00    +0.000 A 
ATOM     23  C   UNL     1      52.767   8.205  17.821  0.00  0.00    +0.000 A 
ATOM     24  S   UNL     1      53.218   7.982  19.452  0.00  0.00    +0.000 S 
ATOM     25  C   UNL     1      52.731   6.352  19.426  0.00  0.00    +0.000 A 
ATOM     26  N   UNL     1      52.854   5.562  20.526  0.00  0.00    +0.000 NA
ATOM     27  C   UNL     1      52.361   4.376  20.385  0.00  0.00    +0.000 A 
ATOM     28  N   UNL     1      51.759   3.908  19.244  0.00  0.00    +0.000 N 
ATOM     29  C   UNL     1      51.643   4.657  18.095  0.00  0.00    +0.000 A 
ATOM     30  O   UNL     1      51.084   4.216  17.096  0.00  0.00    +0.000 OA
ATOM     31  C   UNL     1      52.201   5.994  18.200  0.00  0.00    +0.000 A 
ATOM     32  H   UNL     1      51.356   2.983  19.216  0.00  0.00    +0.000 HD
ENDBRANCH  21  22
BRANCH  21  33
ATOM     33  N   UNL     1      53.206   7.123  14.964  0.00  0.00    +0.000 NA
ATOM     34  H   UNL     1      53.774   7.871  15.349  0.00  0.00    +0.000 HD
ATOM     35  H   UNL     1      52.962   7.392  14.005  0.00  0.00    +0.000 HD
ENDBRANCH  21  33
ENDBRANCH  20  21
ENDBRANCH   1  20
TORSDOF 9
ENDMDL
MODEL 5
REMARK VINA RESULT:    -6.428      2.833      8.616
REMARK INTER + INTRA:         -10.202
REMARK INTER:                  -8.832
REMARK INTRA:                  -1.370
REMARK UNBOUND:                -0.768
REMARK  Name = 
REMARK  9 active torsions:
REMARK  status: ('A' for Active; 'I' for Inactive)
REMARK    1  A    between atoms: N_1  and  C_2
REMARK    2  A    between atoms: C_2  and  C_3
REMARK    3  A    between atoms: C_2  and  C_21
REMARK    4  A    between atoms: C_3  and  C_4
REMARK    5  A    between atoms: C_7  and  C_8
REMARK    6  A    between atoms: N_10  and  CA_11
REMARK    7  A    between atoms: CA_11  and  C_12
REMARK    8  A    between atoms: CA_11  and  C_14
REMARK    9  A    between atoms: C_12  and  O_13
REMARK                            x       y       z     vdW  Elec       q    Type
REMARK                         _______ _______ _______ _____ _____    ______ ____
ROOT
ATOM      1  C   UNL     1      48.810   8.605  14.033  0.00  0.00    +0.000 A 
ATOM      2  C   UNL     1      47.448   8.888  13.863  0.00  0.00    +0.000 A 
ATOM      3  C   UNL     1      46.575   7.905  13.388  0.00  0.00    +0.000 A 
ATOM      4  C   UNL     1      47.057   6.632  13.059  0.00  0.00    +0.000 A 
ATOM      5  C   UNL     1      48.435   6.388  13.111  0.00  0.00    +0.000 A 
ATOM      6  C   UNL     1      49.304   7.367  13.601  0.00  0.00    +0.000 A 
ENDROOT
BRANCH   4   7
ATOM      7  C   UNL     1      46.144   5.517  12.680  0.00  0.00    +0.000 C 
ATOM      8  O   UNL     1      45.946   4.565  13.432  0.00  0.00    +0.000 OA
ATOM      9  N   UNL     1      45.478   5.649  11.482  0.00  0.00    +0.000 N 
ATOM     10  H   UNL     1      45.455   6.555  11.031  0.00  0.00    +0.000 HD
BRANCH   9  11
ATOM     11  CA  UNL     1      44.541   4.639  11.001  0.00  0.00    +0.000 C 
BRANCH  11  12
ATOM     12  C   UNL     1      45.039   4.132   9.679  0.00  0.00    +0.000 A 
ATOM     13  C   UNL     1      45.740   4.823   8.707  0.00  0.00    +0.000 A 
ATOM     14  N   UNL     1      46.081   4.103   7.579  0.00  0.00    +0.000 NA
ATOM     15  C   UNL     1      45.626   2.877   7.695  0.00  0.00    +0.000 A 
ATOM     16  S   UNL     1      44.783   2.515   9.143  0.00  0.00    +0.000 S 
ENDBRANCH  11  12
BRANCH  11  17
ATOM     17  C   UNL     1      43.082   5.150  10.916  0.00  0.00    +0.000 C 
BRANCH  17  18
ATOM     18  O   UNL     1      42.839   6.330  11.682  0.00  0.00    +0.000 OA
ATOM     19  H   UNL     1      42.271   6.096  12.445  0.00  0.00    +0.000 HD
ENDBRANCH  17  18
ENDBRANCH  11  17
ENDBRANCH   9  11
ENDBRANCH   4   7
BRANCH   1  20
ATOM     20  C   UNL     1      49.714   9.579  14.763  0.00  0.00    +0.000 C 
BRANCH  20  21
ATOM     21  C   UNL     1      50.330   8.973  16.057  0.00  0.00    +0.000 C 
BRANCH  21  22
ATOM     22  C   UNL     1      49.281   8.589  17.080  0.00  0.00    +0.000 A 
ATOM     23  C   UNL     1      48.407   9.509  17.639  0.00  0.00    +0.000 A 
ATOM     24  S   UNL     1      47.433   8.851  18.876  0.00  0.00    +0.000 S 
ATOM     25  C   UNL     1      48.085   7.296  18.644  0.00  0.00    +0.000 A 
ATOM     26  N   UNL     1      47.680   6.242  19.401  0.00  0.00    +0.000 NA
ATOM     27  C   UNL     1      48.195   5.110  19.053  0.00  0.00    +0.000 A 
ATOM     28  N   UNL     1      49.078   4.936  18.018  0.00  0.00    +0.000 N 
ATOM     29  C   UNL     1      49.545   5.976  17.246  0.00  0.00    +0.000 A 
ATOM     30  O   UNL     1      50.323   5.788  16.317  0.00  0.00    +0.000 OA
ATOM     31  C   UNL     1      49.007   7.275  17.614  0.00  0.00    +0.000 A 
ATOM     32  H   UNL     1      49.410   4.015  17.772  0.00  0.00    +0.000 HD
ENDBRANCH  21  22
BRANCH  21  33
ATOM     33  N   UNL     1      51.319   9.843  16.693  0.00  0.00    +0.000 NA
ATOM     34  H   UNL     1      51.739   9.376  17.491  0.00  0.00    +0.000 HD
ATOM     35  H   UNL     1      50.844  10.679  17.051  0.00  0.00    +0.000 HD
ENDBRANCH  21  33
ENDBRANCH  20  21
ENDBRANCH   1  20
TORSDOF 9
ENDMDL
MODEL 6
REMARK VINA RESULT:    -6.359      1.764      2.431
REMARK INTER + INTRA:         -10.101
REMARK INTER:                 -10.060
REMARK INTRA:                  -0.041
REMARK UNBOUND:                -0.768
REMARK  Name = 
REMARK  9 active torsions:
REMARK  status: ('A' for Active; 'I' for Inactive)
REMARK    1  A    between atoms: N_1  and  C_2
REMARK    2  A    between atoms: C_2  and  C_3
REMARK    3  A    between atoms: C_2  and  C_21
REMARK    4  A    between atoms: C_3  and  C_4
REMARK    5  A    between atoms: C_7  and  C_8
REMARK    6  A    between atoms: N_10  and  CA_11
REMARK    7  A    between atoms: CA_11  and  C_12
REMARK    8  A    between atoms: CA_11  and  C_14
REMARK    9  A    between atoms: C_12  and  O_13
REMARK                            x       y       z     vdW  Elec       q    Type
REMARK                         _______ _______ _______ _____ _____    ______ ____
ROOT
ATOM      1  C   UNL     1      45.725   5.955  11.899  0.00  0.00    +0.000 A 
ATOM      2  C   UNL     1      45.962   4.787  12.637  0.00  0.00    +0.000 A 
ATOM      3  C   UNL     1      46.866   4.795  13.703  0.00  0.00    +0.000 A 
ATOM      4  C   UNL     1      47.559   5.967  14.033  0.00  0.00    +0.000 A 
ATOM      5  C   UNL     1      47.414   7.098  13.219  0.00  0.00    +0.000 A 
ATOM      6  C   UNL     1      46.499   7.093  12.162  0.00  0.00    +0.000 A 
ENDROOT
BRANCH   4   7
ATOM      7  C   UNL     1      48.427   6.057  15.240  0.00  0.00    +0.000 C 
ATOM      8  O   UNL     1      49.438   6.756  15.253  0.00  0.00    +0.000 OA
ATOM      9  N   UNL     1      47.993   5.381  16.359  0.00  0.00    +0.000 N 
ATOM     10  H   UNL     1      47.037   5.052  16.393  0.00  0.00    +0.000 HD
BRANCH   9  11
ATOM     11  CA  UNL     1      48.739   5.402  17.614  0.00  0.00    +0.000 C 
BRANCH  11  12
ATOM     12  C   UNL     1      49.733   4.279  17.584  0.00  0.00    +0.000 A 
ATOM     13  C   UNL     1      51.101   4.341  17.784  0.00  0.00    +0.000 A 
ATOM     14  N   UNL     1      51.780   3.142  17.705  0.00  0.00    +0.000 NA
ATOM     15  C   UNL     1      50.928   2.179  17.435  0.00  0.00    +0.000 A 
ATOM     16  S   UNL     1      49.287   2.645  17.268  0.00  0.00    +0.000 S 
ENDBRANCH  11  12
BRANCH  11  17
ATOM     17  C   UNL     1      47.830   5.343  18.866  0.00  0.00    +0.000 C 
BRANCH  17  18
ATOM     18  O   UNL     1      46.435   5.297  18.564  0.00  0.00    +0.000 OA
ATOM     19  H   UNL     1      45.982   4.779  19.261  0.00  0.00    +0.000 HD
ENDBRANCH  17  18
ENDBRANCH  11  17
ENDBRANCH   9  11
ENDBRANCH   4   7
BRANCH   1  20
ATOM     20  C   UNL     1      44.584   6.018  10.902  0.00  0.00    +0.000 C 
BRANCH  20  21
ATOM     21  C   UNL     1      44.987   5.498   9.493  0.00  0.00    +0.000 C 
BRANCH  21  22
ATOM     22  C   UNL     1      44.905   3.990   9.379  0.00  0.00    +0.000 A 
ATOM     23  C   UNL     1      44.009   3.231  10.117  0.00  0.00    +0.000 A 
ATOM     24  S   UNL     1      44.227   1.549   9.922  0.00  0.00    +0.000 S 
ATOM     25  C   UNL     1      45.465   1.782   8.778  0.00  0.00    +0.000 A 
ATOM     26  N   UNL     1      46.101   0.727   8.203  0.00  0.00    +0.000 NA
ATOM     27  C   UNL     1      46.954   1.055   7.290  0.00  0.00    +0.000 A 
ATOM     28  N   UNL     1      47.230   2.341   6.901  0.00  0.00    +0.000 N 
ATOM     29  C   UNL     1      46.640   3.443   7.477  0.00  0.00    +0.000 A 
ATOM     30  O   UNL     1      46.895   4.581   7.098  0.00  0.00    +0.000 OA
ATOM     31  C   UNL     1      45.685   3.124   8.525  0.00  0.00    +0.000 A 
ATOM     32  H   UNL     1      47.878   2.525   6.150  0.00  0.00    +0.000 HD
ENDBRANCH  21  22
BRANCH  21  33
ATOM     33  N   UNL     1      46.318   5.935   9.071  0.00  0.00    +0.000 NA
ATOM     34  H   UNL     1      46.278   6.879   8.699  0.00  0.00    +0.000 HD
ATOM     35  H   UNL     1      46.642   5.326   8.312  0.00  0.00    +0.000 HD
ENDBRANCH  21  33
ENDBRANCH  20  21
ENDBRANCH   1  20
TORSDOF 9
ENDMDL
MODEL 7
REMARK VINA RESULT:    -5.948      2.842      9.602
REMARK INTER + INTRA:          -9.498
REMARK INTER:                  -8.473
REMARK INTRA:                  -1.025
REMARK UNBOUND:                -0.768
REMARK  Name = 
REMARK  9 active torsions:
REMARK  status: ('A' for Active; 'I' for Inactive)
REMARK    1  A    between atoms: N_1  and  C_2
REMARK    2  A    between atoms: C_2  and  C_3
REMARK    3  A    between atoms: C_2  and  C_21
REMARK    4  A    between atoms: C_3  and  C_4
REMARK    5  A    between atoms: C_7  and  C_8
REMARK    6  A    between atoms: N_10  and  CA_11
REMARK    7  A    between atoms: CA_11  and  C_12
REMARK    8  A    between atoms: CA_11  and  C_14
REMARK    9  A    between atoms: C_12  and  O_13
REMARK                            x       y       z     vdW  Elec       q    Type
REMARK                         _______ _______ _______ _____ _____    ______ ____
ROOT
ATOM      1  C   UNL     1      48.857   6.848  15.088  0.00  0.00    +0.000 A 
ATOM      2  C   UNL     1      48.290   5.756  15.758  0.00  0.00    +0.000 A 
ATOM      3  C   UNL     1      47.369   4.928  15.110  0.00  0.00    +0.000 A 
ATOM      4  C   UNL     1      46.989   5.193  13.788  0.00  0.00    +0.000 A 
ATOM      5  C   UNL     1      47.461   6.354  13.161  0.00  0.00    +0.000 A 
ATOM      6  C   UNL     1      48.392   7.172  13.806  0.00  0.00    +0.000 A 
ENDROOT
BRANCH   4   7
ATOM      7  C   UNL     1      46.118   4.263  13.016  0.00  0.00    +0.000 C 
ATOM      8  O   UNL     1      46.133   3.051  13.220  0.00  0.00    +0.000 OA
ATOM      9  N   UNL     1      45.245   4.840  12.122  0.00  0.00    +0.000 N 
ATOM     10  H   UNL     1      45.069   5.835  12.180  0.00  0.00    +0.000 HD
BRANCH   9  11
ATOM     11  CA  UNL     1      44.323   4.045  11.316  0.00  0.00    +0.000 C 
BRANCH  11  12
ATOM     12  C   UNL     1      44.905   3.909   9.939  0.00  0.00    +0.000 A 
ATOM     13  C   UNL     1      45.509   4.885   9.166  0.00  0.00    +0.000 A 
ATOM     14  N   UNL     1      45.964   4.480   7.927  0.00  0.00    +0.000 NA
ATOM     15  C   UNL     1      45.692   3.206   7.762  0.00  0.00    +0.000 A 
ATOM     16  S   UNL     1      44.894   2.426   9.063  0.00  0.00    +0.000 S 
ENDBRANCH  11  12
BRANCH  11  17
ATOM     17  C   UNL     1      42.885   4.618  11.287  0.00  0.00    +0.000 C 
BRANCH  17  18
ATOM     18  O   UNL     1      42.336   4.863  12.581  0.00  0.00    +0.000 OA
ATOM     19  H   UNL     1      42.613   5.756  12.875  0.00  0.00    +0.000 HD
ENDBRANCH  17  18
ENDBRANCH  11  17
ENDBRANCH   9  11
ENDBRANCH   4   7
BRANCH   1  20
ATOM     20  C   UNL     1      50.021   7.606  15.696  0.00  0.00    +0.000 C 
BRANCH  20  21
ATOM     21  C   UNL     1      51.284   6.717  15.882  0.00  0.00    +0.000 C 
BRANCH  21  22
ATOM     22  C   UNL     1      51.493   6.290  17.320  0.00  0.00    +0.000 A 
ATOM     23  C   UNL     1      51.447   4.963  17.722  0.00  0.00    +0.000 A 
ATOM     24  S   UNL     1      51.556   4.765  19.413  0.00  0.00    +0.000 S 
ATOM     25  C   UNL     1      51.757   6.437  19.656  0.00  0.00    +0.000 A 
ATOM     26  N   UNL     1      51.904   6.956  20.905  0.00  0.00    +0.000 NA
ATOM     27  C   UNL     1      52.136   8.226  20.928  0.00  0.00    +0.000 A 
ATOM     28  N   UNL     1      52.234   9.025  19.816  0.00  0.00    +0.000 N 
ATOM     29  C   UNL     1      52.058   8.555  18.535  0.00  0.00    +0.000 A 
ATOM     30  O   UNL     1      52.167   9.291  17.560  0.00  0.00    +0.000 OA
ATOM     31  C   UNL     1      51.775   7.132  18.460  0.00  0.00    +0.000 A 
ATOM     32  H   UNL     1      52.460  10.005  19.904  0.00  0.00    +0.000 HD
ENDBRANCH  21  22
BRANCH  21  33
ATOM     33  N   UNL     1      52.512   7.341  15.389  0.00  0.00    +0.000 NA
ATOM     34  H   UNL     1      52.899   7.964  16.092  0.00  0.00    +0.000 HD
ATOM     35  H   UNL     1      52.286   7.916  14.570  0.00  0.00    +0.000 HD
ENDBRANCH  21  33
ENDBRANCH  20  21
ENDBRANCH   1  20
TORSDOF 9
ENDMDL
MODEL 8
REMARK VINA RESULT:    -5.515      5.841      7.469
REMARK INTER + INTRA:          -8.862
REMARK INTER:                  -8.110
REMARK INTRA:                  -0.752
REMARK UNBOUND:                -0.768
REMARK  Name = 
REMARK  9 active torsions:
REMARK  status: ('A' for Active; 'I' for Inactive)
REMARK    1  A    between atoms: N_1  and  C_2
REMARK    2  A    between atoms: C_2  and  C_3
REMARK    3  A    between atoms: C_2  and  C_21
REMARK    4  A    between atoms: C_3  and  C_4
REMARK    5  A    between atoms: C_7  and  C_8
REMARK    6  A    between atoms: N_10  and  CA_11
REMARK    7  A    between atoms: CA_11  and  C_12
REMARK    8  A    between atoms: CA_11  and  C_14
REMARK    9  A    between atoms: C_12  and  O_13
REMARK                            x       y       z     vdW  Elec       q    Type
REMARK                         _______ _______ _______ _____ _____    ______ ____
ROOT
ATOM      1  C   UNL     1      49.507   7.756  13.444  0.00  0.00    +0.000 A 
ATOM      2  C   UNL     1      50.573   8.565  13.858  0.00  0.00    +0.000 A 
ATOM      3  C   UNL     1      51.525   9.009  12.935  0.00  0.00    +0.000 A 
ATOM      4  C   UNL     1      51.433   8.633  11.589  0.00  0.00    +0.000 A 
ATOM      5  C   UNL     1      50.439   7.725  11.200  0.00  0.00    +0.000 A 
ATOM      6  C   UNL     1      49.480   7.295  12.121  0.00  0.00    +0.000 A 
ENDROOT
BRANCH   4   7
ATOM      7  C   UNL     1      52.344   9.190  10.550  0.00  0.00    +0.000 C 
ATOM      8  O   UNL     1      52.205  10.334  10.123  0.00  0.00    +0.000 OA
ATOM      9  N   UNL     1      53.390   8.386  10.156  0.00  0.00    +0.000 N 
ATOM     10  H   UNL     1      53.627   7.579  10.719  0.00  0.00    +0.000 HD
BRANCH   9  11
ATOM     11  CA  UNL     1      54.366   8.817   9.160  0.00  0.00    +0.000 C 
BRANCH  11  12
ATOM     12  C   UNL     1      54.388   7.801   8.057  0.00  0.00    +0.000 A 
ATOM     13  C   UNL     1      55.291   6.772   7.860  0.00  0.00    +0.000 A 
ATOM     14  N   UNL     1      55.069   5.974   6.755  0.00  0.00    +0.000 NA
ATOM     15  C   UNL     1      54.008   6.409   6.114  0.00  0.00    +0.000 A 
ATOM     16  S   UNL     1      53.221   7.773   6.790  0.00  0.00    +0.000 S 
ENDBRANCH  11  12
BRANCH  11  17
ATOM     17  C   UNL     1      55.775   9.065   9.753  0.00  0.00    +0.000 C 
BRANCH  17  18
ATOM     18  O   UNL     1      55.763   9.773  10.992  0.00  0.00    +0.000 OA
ATOM     19  H   UNL     1      55.770   9.122  11.724  0.00  0.00    +0.000 HD
ENDBRANCH  17  18
ENDBRANCH  11  17
ENDBRANCH   9  11
ENDBRANCH   4   7
BRANCH   1  20
ATOM     20  C   UNL     1      48.350   7.467  14.381  0.00  0.00    +0.000 C 
BRANCH  20  21
ATOM     21  C   UNL     1      47.742   6.052  14.165  0.00  0.00    +0.000 C 
BRANCH  21  22
ATOM     22  C   UNL     1      46.556   6.061  13.222  0.00  0.00    +0.000 A 
ATOM     23  C   UNL     1      46.087   7.218  12.620  0.00  0.00    +0.000 A 
ATOM     24  S   UNL     1      44.649   6.983  11.731  0.00  0.00    +0.000 S 
ATOM     25  C   UNL     1      44.657   5.311  12.048  0.00  0.00    +0.000 A 
ATOM     26  N   UNL     1      43.676   4.499  11.571  0.00  0.00    +0.000 NA
ATOM     27  C   UNL     1      43.861   3.244  11.816  0.00  0.00    +0.000 A 
ATOM     28  N   UNL     1      44.936   2.728  12.495  0.00  0.00    +0.000 N 
ATOM     29  C   UNL     1      45.934   3.511  13.027  0.00  0.00    +0.000 A 
ATOM     30  O   UNL     1      46.892   3.020  13.616  0.00  0.00    +0.000 OA
ATOM     31  C   UNL     1      45.759   4.935  12.794  0.00  0.00    +0.000 A 
ATOM     32  H   UNL     1      45.040   1.732  12.615  0.00  0.00    +0.000 HD
ENDBRANCH  21  22
BRANCH  21  33
ATOM     33  N   UNL     1      47.354   5.390  15.411  0.00  0.00    +0.000 NA
ATOM     34  H   UNL     1      48.027   5.593  16.143  0.00  0.00    +0.000 HD
ATOM     35  H   UNL     1      47.366   4.375  15.265  0.00  0.00    +0.000 HD
ENDBRANCH  21  33
ENDBRANCH  20  21
ENDBRANCH   1  20
TORSDOF 9
ENDMDL
MODEL 9
REMARK VINA RESULT:    -5.470      3.620      9.939
REMARK INTER + INTRA:          -8.796
REMARK INTER:                  -7.762
REMARK INTRA:                  -1.034
REMARK UNBOUND:                -0.768
REMARK  Name = 
REMARK  9 active torsions:
REMARK  status: ('A' for Active; 'I' for Inactive)
REMARK    1  A    between atoms: N_1  and  C_2
REMARK    2  A    between atoms: C_2  and  C_3
REMARK    3  A    between atoms: C_2  and  C_21
REMARK    4  A    between atoms: C_3  and  C_4
REMARK    5  A    between atoms: C_7  and  C_8
REMARK    6  A    between atoms: N_10  and  CA_11
REMARK    7  A    between atoms: CA_11  and  C_12
REMARK    8  A    between atoms: CA_11  and  C_14
REMARK    9  A    between atoms: C_12  and  O_13
REMARK                            x       y       z     vdW  Elec       q    Type
REMARK                         _______ _______ _______ _____ _____    ______ ____
ROOT
ATOM      1  C   UNL     1      49.374   7.026  14.637  0.00  0.00    +0.000 A 
ATOM      2  C   UNL     1      48.577   6.212  15.454  0.00  0.00    +0.000 A 
ATOM      3  C   UNL     1      47.524   5.475  14.906  0.00  0.00    +0.000 A 
ATOM      4  C   UNL     1      47.241   5.558  13.537  0.00  0.00    +0.000 A 
ATOM      5  C   UNL     1      47.957   6.465  12.745  0.00  0.00    +0.000 A 
ATOM      6  C   UNL     1      49.020   7.190  13.291  0.00  0.00    +0.000 A 
ENDROOT
BRANCH   4   7
ATOM      7  C   UNL     1      46.218   4.690  12.889  0.00  0.00    +0.000 C 
ATOM      8  O   UNL     1      46.023   3.536  13.266  0.00  0.00    +0.000 OA
ATOM      9  N   UNL     1      45.454   5.273  11.903  0.00  0.00    +0.000 N 
ATOM     10  H   UNL     1      45.454   6.281  11.814  0.00  0.00    +0.000 HD
BRANCH   9  11
ATOM     11  CA  UNL     1      44.404   4.540  11.201  0.00  0.00    +0.000 C 
BRANCH  11  12
ATOM     12  C   UNL     1      44.954   4.087   9.881  0.00  0.00    +0.000 A 
ATOM     13  C   UNL     1      45.619   4.839   8.929  0.00  0.00    +0.000 A 
ATOM     14  N   UNL     1      46.025   4.160   7.797  0.00  0.00    +0.000 NA
ATOM     15  C   UNL     1      45.655   2.903   7.890  0.00  0.00    +0.000 A 
ATOM     16  S   UNL     1      44.819   2.464   9.320  0.00  0.00    +0.000 S 
ENDBRANCH  11  12
BRANCH  11  17
ATOM     17  C   UNL     1      43.095   5.351  11.040  0.00  0.00    +0.000 C 
BRANCH  17  18
ATOM     18  O   UNL     1      42.236   5.292  12.178  0.00  0.00    +0.000 OA
ATOM     19  H   UNL     1      41.337   5.570  11.905  0.00  0.00    +0.000 HD
ENDBRANCH  17  18
ENDBRANCH  11  17
ENDBRANCH   9  11
ENDBRANCH   4   7
BRANCH   1  20
ATOM     20  C   UNL     1      50.653   7.640  15.173  0.00  0.00    +0.000 C 
BRANCH  20  21
ATOM     21  C   UNL     1      50.726   7.615  16.727  0.00  0.00    +0.000 C 
BRANCH  21  22
ATOM     22  C   UNL     1      50.874   8.997  17.329  0.00  0.00    +0.000 A 
ATOM     23  C   UNL     1      51.203  10.112  16.572  0.00  0.00    +0.000 A 
ATOM     24  S   UNL     1      51.462  11.513  17.512  0.00  0.00    +0.000 S 
ATOM     25  C   UNL     1      51.055  10.697  18.948  0.00  0.00    +0.000 A 
ATOM     26  N   UNL     1      51.078  11.332  20.151  0.00  0.00    +0.000 NA
ATOM     27  C   UNL     1      50.661  10.613  21.139  0.00  0.00    +0.000 A 
ATOM     28  N   UNL     1      50.223   9.317  21.035  0.00  0.00    +0.000 N 
ATOM     29  C   UNL     1      50.214   8.620  19.848  0.00  0.00    +0.000 A 
ATOM     30  O   UNL     1      49.803   7.466  19.783  0.00  0.00    +0.000 OA
ATOM     31  C   UNL     1      50.695   9.384  18.709  0.00  0.00    +0.000 A 
ATOM     32  H   UNL     1      49.869   8.825  21.842  0.00  0.00    +0.000 HD
ENDBRANCH  21  22
BRANCH  21  33
ATOM     33  N   UNL     1      51.790   6.754  17.245  0.00  0.00    +0.000 NA
ATOM     34  H   UNL     1      51.694   5.813  16.875  0.00  0.00    +0.000 HD
ATOM     35  H   UNL     1      51.696   6.688  18.264  0.00  0.00    +0.000 HD
ENDBRANCH  21  33
ENDBRANCH  20  21
ENDBRANCH   1  20
TORSDOF 9
ENDMDL
