MODEL 1
REMARK VINA RESULT:    -8.482      0.000      0.000
REMARK INTER + INTRA:         -13.575
REMARK INTER:                 -12.696
REMARK INTRA:                  -0.879
REMARK UNBOUND:                -0.879
REMARK  Name = 
REMARK  10 active torsions:
REMARK  status: ('A' for Active; 'I' for Inactive)
REMARK    1  A    between atoms: C_1  and  C_2
REMARK    2  A    between atoms: C_2  and  N_3
REMARK    3  A    between atoms: C_2  and  C_20
REMARK    4  A    between atoms: N_3  and  C_4
REMARK    5  A    between atoms: C_4  and  C_5
REMARK    6  A    between atoms: C_8  and  C_9
REMARK    7  A    between atoms: C_9  and  O_10
REMARK    8  A    between atoms: C_9  and  C_11
REMARK    9  A    between atoms: C_11  and  N_12
REMARK   10  A    between atoms: N_12  and  C_13
REMARK                            x       y       z     vdW  Elec       q    Type
REMARK                         _______ _______ _______ _____ _____    ______ ____
ROOT
ATOM      1  C   UNL     1      46.896   5.284  13.673  0.00  0.00    +0.000 A 
ATOM      2  C   UNL     1      46.381   4.002  13.448  0.00  0.00    +0.000 A 
ATOM      3  C   UNL     1      45.418   3.788  12.456  0.00  0.00    +0.000 A 
ATOM      4  C   UNL     1      44.919   4.854  11.688  0.00  0.00    +0.000 A 
ATOM      5  C   UNL     1      45.466   6.127  11.898  0.00  0.00    +0.000 A 
ATOM      6  C   UNL     1      46.440   6.341  12.876  0.00  0.00    +0.000 A 
ENDROOT
BRANCH   1   7
ATOM      7  C   UNL     1      47.898   5.547  14.772  0.00  0.00    +0.000 C 
BRANCH   7   8
ATOM      8  N   UNL     1      47.384   5.164  16.085  0.00  0.00    +0.000 NA
ATOM      9  H   UNL     1      47.603   5.911  16.742  0.00  0.00    +0.000 HD
BRANCH   8  11
ATOM     10  C   UNL     1      47.033   3.104  17.454  0.00  0.00    +0.000 C 
ATOM     11  C   UNL     1      47.995   3.924  16.586  0.00  0.00    +0.000 C 
BRANCH  11  12
ATOM     12  C   UNL     1      49.228   4.292  17.391  0.00  0.00    +0.000 A 
ATOM     13  C   UNL     1      49.395   5.446  18.142  0.00  0.00    +0.000 A 
ATOM     14  S   UNL     1      50.895   5.511  18.957  0.00  0.00    +0.000 S 
ATOM     15  C   UNL     1      51.353   3.984  18.360  0.00  0.00    +0.000 A 
ATOM     16  N   UNL     1      52.540   3.415  18.707  0.00  0.00    +0.000 NA
ATOM     17  C   UNL     1      52.732   2.244  18.193  0.00  0.00    +0.000 A 
ATOM     18  N   UNL     1      51.857   1.596  17.357  0.00  0.00    +0.000 N 
ATOM     19  C   UNL     1      50.652   2.133  16.978  0.00  0.00    +0.000 A 
ATOM     20  O   UNL     1      49.887   1.528  16.231  0.00  0.00    +0.000 OA
ATOM     21  C   UNL     1      50.384   3.445  17.535  0.00  0.00    +0.000 A 
ATOM     22  H   UNL     1      52.074   0.681  16.994  0.00  0.00    +0.000 HD
ENDBRANCH  11  12
ENDBRANCH   8  11
ENDBRANCH   7   8
ENDBRANCH   1   7
BRANCH   4  23
ATOM     23  C   UNL     1      43.826   4.612  10.658  0.00  0.00    +0.000 C 
BRANCH  23  24
ATOM     24  O   UNL     1      42.651   4.098  11.299  0.00  0.00    +0.000 OA
ATOM     25  H   UNL     1      42.956   3.477  11.979  0.00  0.00    +0.000 HD
ENDBRANCH  23  24
BRANCH  23  26
ATOM     26  C   UNL     1      44.292   3.644   9.529  0.00  0.00    +0.000 C 
BRANCH  26  27
ATOM     27  N   UNL     1      44.960   4.332   8.415  0.00  0.00    +0.000 NA
ATOM     28  H   UNL     1      45.657   4.985   8.770  0.00  0.00    +0.000 HD
BRANCH  27  29
ATOM     29  C   UNL     1      45.632   3.423   7.523  0.00  0.00    +0.000 C 
ATOM     30  C   UNL     1      46.083   2.096   8.117  0.00  0.00    +0.000 C 
ATOM     31  C   UNL     1      47.192   1.677   7.171  0.00  0.00    +0.000 C 
ATOM     32  C   UNL     1      47.770   2.996   6.671  0.00  0.00    +0.000 C 
ATOM     33  N   UNL     1      46.900   4.046   7.206  0.00  0.00    +0.000 NA
ATOM     34  H   UNL     1      46.756   4.791   6.529  0.00  0.00    +0.000 HD
ENDBRANCH  27  29
ENDBRANCH  26  27
ENDBRANCH  23  26
ENDBRANCH   4  23
TORSDOF 9
ENDMDL
MODEL 2
REMARK VINA RESULT:    -8.229      1.128      1.289
REMARK INTER + INTRA:         -13.197
REMARK INTER:                 -12.201
REMARK INTRA:                  -0.996
REMARK UNBOUND:                -0.879
REMARK  Name = 
REMARK  10 active torsions:
REMARK  status: ('A' for Active; 'I' for Inactive)
REMARK    1  A    between atoms: C_1  and  C_2
REMARK    2  A    between atoms: C_2  and  N_3
REMARK    3  A    between atoms: C_2  and  C_20
REMARK    4  A    between atoms: N_3  and  C_4
REMARK    5  A    between atoms: C_4  and  C_5
REMARK    6  A    between atoms: C_8  and  C_9
REMARK    7  A    between atoms: C_9  and  O_10
REMARK    8  A    between atoms: C_9  and  C_11
REMARK    9  A    between atoms: C_11  and  N_12
REMARK   10  A    between atoms: N_12  and  C_13
REMARK                            x       y       z     vdW  Elec       q    Type
REMARK                         _______ _______ _______ _____ _____    ______ ____
ROOT
ATOM      1  C   UNL     1      47.076   5.361  13.915  0.00  0.00    +0.000 A 
ATOM      2  C   UNL     1      46.508   4.103  13.681  0.00  0.00    +0.000 A 
ATOM      3  C   UNL     1      45.739   3.872  12.536  0.00  0.00    +0.000 A 
ATOM      4  C   UNL     1      45.488   4.901  11.612  0.00  0.00    +0.000 A 
ATOM      5  C   UNL     1      46.088   6.147  11.838  0.00  0.00    +0.000 A 
ATOM      6  C   UNL     1      46.871   6.375  12.972  0.00  0.00    +0.000 A 
ENDROOT
BRANCH   1   7
ATOM      7  C   UNL     1      47.867   5.647  15.169  0.00  0.00    +0.000 C 
BRANCH   7   8
ATOM      8  N   UNL     1      48.403   4.426  15.767  0.00  0.00    +0.000 NA
ATOM      9  H   UNL     1      47.849   3.639  15.435  0.00  0.00    +0.000 HD
BRANCH   8  11
ATOM     10  C   UNL     1      47.679   5.720  17.778  0.00  0.00    +0.000 C 
ATOM     11  C   UNL     1      48.333   4.444  17.236  0.00  0.00    +0.000 C 
BRANCH  11  12
ATOM     12  C   UNL     1      49.744   4.316  17.782  0.00  0.00    +0.000 A 
ATOM     13  C   UNL     1      50.395   5.245  18.581  0.00  0.00    +0.000 A 
ATOM     14  S   UNL     1      51.961   4.752  19.050  0.00  0.00    +0.000 S 
ATOM     15  C   UNL     1      51.806   3.269  18.230  0.00  0.00    +0.000 A 
ATOM     16  N   UNL     1      52.799   2.337  18.255  0.00  0.00    +0.000 NA
ATOM     17  C   UNL     1      52.520   1.254  17.607  0.00  0.00    +0.000 A 
ATOM     18  N   UNL     1      51.351   1.019  16.927  0.00  0.00    +0.000 N 
ATOM     19  C   UNL     1      50.325   1.930  16.871  0.00  0.00    +0.000 A 
ATOM     20  O   UNL     1      49.288   1.691  16.258  0.00  0.00    +0.000 OA
ATOM     21  C   UNL     1      50.585   3.162  17.591  0.00  0.00    +0.000 A 
ATOM     22  H   UNL     1      51.203   0.148  16.444  0.00  0.00    +0.000 HD
ENDBRANCH  11  12
ENDBRANCH   8  11
ENDBRANCH   7   8
ENDBRANCH   1   7
BRANCH   4  23
ATOM     23  C   UNL     1      44.596   4.649  10.406  0.00  0.00    +0.000 C 
BRANCH  23  24
ATOM     24  O   UNL     1      43.439   5.491  10.464  0.00  0.00    +0.000 OA
ATOM     25  H   UNL     1      43.760   6.406  10.421  0.00  0.00    +0.000 HD
ENDBRANCH  23  24
BRANCH  23  26
ATOM     26  C   UNL     1      44.171   3.153  10.298  0.00  0.00    +0.000 C 
BRANCH  26  27
ATOM     27  N   UNL     1      44.333   2.600   8.945  0.00  0.00    +0.000 NA
ATOM     28  H   UNL     1      43.859   3.191   8.263  0.00  0.00    +0.000 HD
BRANCH  27  29
ATOM     29  C   UNL     1      45.713   2.501   8.547  0.00  0.00    +0.000 C 
ATOM     30  C   UNL     1      46.083   3.133   7.213  0.00  0.00    +0.000 C 
ATOM     31  C   UNL     1      47.349   2.385   6.840  0.00  0.00    +0.000 C 
ATOM     32  C   UNL     1      47.171   1.014   7.479  0.00  0.00    +0.000 C 
ATOM     33  N   UNL     1      45.947   1.098   8.280  0.00  0.00    +0.000 NA
ATOM     34  H   UNL     1      46.041   0.593   9.158  0.00  0.00    +0.000 HD
ENDBRANCH  27  29
ENDBRANCH  26  27
ENDBRANCH  23  26
ENDBRANCH   4  23
TORSDOF 9
ENDMDL
MODEL 3
REMARK VINA RESULT:    -7.779      1.639      2.222
REMARK INTER + INTRA:         -12.523
REMARK INTER:                 -11.473
REMARK INTRA:                  -1.051
REMARK UNBOUND:                -0.879
REMARK  Name = 
REMARK  10 active torsions:
REMARK  status: ('A' for Active; 'I' for Inactive)
REMARK    1  A    between atoms: C_1  and  C_2
REMARK    2  A    between atoms: C_2  and  N_3
REMARK    3  A    between atoms: C_2  and  C_20
REMARK    4  A    between atoms: N_3  and  C_4
REMARK    5  A    between atoms: C_4  and  C_5
REMARK    6  A    between atoms: C_8  and  C_9
REMARK    7  A    between atoms: C_9  and  O_10
REMARK    8  A    between atoms: C_9  and  C_11
REMARK    9  A    between atoms: C_11  and  N_12
REMARK   10  A    between atoms: N_12  and  C_13
REMARK                            x       y       z     vdW  Elec       q    Type
REMARK                         _______ _______ _______ _____ _____    ______ ____
ROOT
ATOM      1  C   UNL     1      47.003   6.124  12.962  0.00  0.00    +0.000 A 
ATOM      2  C   UNL     1      46.503   6.888  11.901  0.00  0.00    +0.000 A 
ATOM      3  C   UNL     1      45.422   6.429  11.142  0.00  0.00    +0.000 A 
ATOM      4  C   UNL     1      44.835   5.178  11.401  0.00  0.00    +0.000 A 
ATOM      5  C   UNL     1      45.321   4.436  12.486  0.00  0.00    +0.000 A 
ATOM      6  C   UNL     1      46.389   4.901  13.256  0.00  0.00    +0.000 A 
ENDROOT
BRANCH   1   7
ATOM      7  C   UNL     1      48.201   6.578  13.762  0.00  0.00    +0.000 C 
BRANCH   7   8
ATOM      8  N   UNL     1      48.214   5.998  15.103  0.00  0.00    +0.000 NA
ATOM      9  H   UNL     1      47.254   5.787  15.368  0.00  0.00    +0.000 HD
BRANCH   8  11
ATOM     10  C   UNL     1      48.617   8.390  15.703  0.00  0.00    +0.000 C 
ATOM     11  C   UNL     1      48.770   6.919  16.106  0.00  0.00    +0.000 C 
BRANCH  11  12
ATOM     12  C   UNL     1      50.240   6.586  16.294  0.00  0.00    +0.000 A 
ATOM     13  C   UNL     1      51.309   7.339  15.833  0.00  0.00    +0.000 A 
ATOM     14  S   UNL     1      52.829   6.690  16.267  0.00  0.00    +0.000 S 
ATOM     15  C   UNL     1      52.104   5.404  17.114  0.00  0.00    +0.000 A 
ATOM     16  N   UNL     1      52.854   4.475  17.770  0.00  0.00    +0.000 NA
ATOM     17  C   UNL     1      52.159   3.577  18.387  0.00  0.00    +0.000 A 
ATOM     18  N   UNL     1      50.787   3.513  18.401  0.00  0.00    +0.000 N 
ATOM     19  C   UNL     1      49.992   4.424  17.750  0.00  0.00    +0.000 A 
ATOM     20  O   UNL     1      48.766   4.342  17.783  0.00  0.00    +0.000 OA
ATOM     21  C   UNL     1      50.725   5.459  17.049  0.00  0.00    +0.000 A 
ATOM     22  H   UNL     1      50.311   2.782  18.906  0.00  0.00    +0.000 HD
ENDBRANCH  11  12
ENDBRANCH   8  11
ENDBRANCH   7   8
ENDBRANCH   1   7
BRANCH   4  23
ATOM     23  C   UNL     1      43.701   4.666  10.525  0.00  0.00    +0.000 C 
BRANCH  23  24
ATOM     24  O   UNL     1      42.691   4.053  11.336  0.00  0.00    +0.000 OA
ATOM     25  H   UNL     1      42.239   3.405  10.772  0.00  0.00    +0.000 HD
ENDBRANCH  23  24
BRANCH  23  26
ATOM     26  C   UNL     1      44.207   3.664   9.443  0.00  0.00    +0.000 C 
BRANCH  26  27
ATOM     27  N   UNL     1      45.005   4.304   8.388  0.00  0.00    +0.000 NA
ATOM     28  H   UNL     1      45.734   4.885   8.800  0.00  0.00    +0.000 HD
BRANCH  27  29
ATOM     29  C   UNL     1      45.649   3.351   7.522  0.00  0.00    +0.000 C 
ATOM     30  C   UNL     1      46.164   2.077   8.177  0.00  0.00    +0.000 C 
ATOM     31  C   UNL     1      47.229   1.618   7.198  0.00  0.00    +0.000 C 
ATOM     32  C   UNL     1      47.745   2.911   6.580  0.00  0.00    +0.000 C 
ATOM     33  N   UNL     1      46.881   3.977   7.092  0.00  0.00    +0.000 NA
ATOM     34  H   UNL     1      46.681   4.671   6.376  0.00  0.00    +0.000 HD
ENDBRANCH  27  29
ENDBRANCH  26  27
ENDBRANCH  23  26
ENDBRANCH   4  23
TORSDOF 9
ENDMDL
MODEL 4
REMARK VINA RESULT:    -7.660      2.655      3.552
REMARK INTER + INTRA:         -12.346
REMARK INTER:                 -11.513
REMARK INTRA:                  -0.833
REMARK UNBOUND:                -0.879
REMARK  Name = 
REMARK  10 active torsions:
REMARK  status: ('A' for Active; 'I' for Inactive)
REMARK    1  A    between atoms: C_1  and  C_2
REMARK    2  A    between atoms: C_2  and  N_3
REMARK    3  A    between atoms: C_2  and  C_20
REMARK    4  A    between atoms: N_3  and  C_4
REMARK    5  A    between atoms: C_4  and  C_5
REMARK    6  A    between atoms: C_8  and  C_9
REMARK    7  A    between atoms: C_9  and  O_10
REMARK    8  A    between atoms: C_9  and  C_11
REMARK    9  A    between atoms: C_11  and  N_12
REMARK   10  A    between atoms: N_12  and  C_13
REMARK                            x       y       z     vdW  Elec       q    Type
REMARK                         _______ _______ _______ _____ _____    ______ ____
ROOT
ATOM      1  C   UNL     1      46.880   6.050  12.862  0.00  0.00    +0.000 A 
ATOM      2  C   UNL     1      46.385   4.801  13.254  0.00  0.00    +0.000 A 
ATOM      3  C   UNL     1      45.397   4.160  12.500  0.00  0.00    +0.000 A 
ATOM      4  C   UNL     1      44.853   4.766  11.354  0.00  0.00    +0.000 A 
ATOM      5  C   UNL     1      45.379   6.000  10.952  0.00  0.00    +0.000 A 
ATOM      6  C   UNL     1      46.378   6.635  11.693  0.00  0.00    +0.000 A 
ENDROOT
BRANCH   1   7
ATOM      7  C   UNL     1      47.910   6.783  13.688  0.00  0.00    +0.000 C 
BRANCH   7   8
ATOM      8  N   UNL     1      48.456   5.944  14.752  0.00  0.00    +0.000 NA
ATOM      9  H   UNL     1      47.719   5.318  15.073  0.00  0.00    +0.000 HD
BRANCH   8  11
ATOM     10  C   UNL     1      50.390   7.139  15.789  0.00  0.00    +0.000 C 
ATOM     11  C   UNL     1      48.917   6.731  15.906  0.00  0.00    +0.000 C 
BRANCH  11  12
ATOM     12  C   UNL     1      48.710   5.901  17.161  0.00  0.00    +0.000 A 
ATOM     13  C   UNL     1      48.980   4.548  17.296  0.00  0.00    +0.000 A 
ATOM     14  S   UNL     1      48.670   3.950  18.865  0.00  0.00    +0.000 S 
ATOM     15  C   UNL     1      48.199   5.488  19.423  0.00  0.00    +0.000 A 
ATOM     16  N   UNL     1      47.834   5.690  20.719  0.00  0.00    +0.000 NA
ATOM     17  C   UNL     1      47.528   6.916  20.994  0.00  0.00    +0.000 A 
ATOM     18  N   UNL     1      47.540   7.953  20.095  0.00  0.00    +0.000 N 
ATOM     19  C   UNL     1      47.896   7.794  18.778  0.00  0.00    +0.000 A 
ATOM     20  O   UNL     1      47.901   8.743  17.997  0.00  0.00    +0.000 OA
ATOM     21  C   UNL     1      48.258   6.437  18.420  0.00  0.00    +0.000 A 
ATOM     22  H   UNL     1      47.289   8.886  20.382  0.00  0.00    +0.000 HD
ENDBRANCH  11  12
ENDBRANCH   8  11
ENDBRANCH   7   8
ENDBRANCH   1   7
BRANCH   4  23
ATOM     23  C   UNL     1      43.734   4.082  10.583  0.00  0.00    +0.000 C 
BRANCH  23  24
ATOM     24  O   UNL     1      42.747   3.577  11.492  0.00  0.00    +0.000 OA
ATOM     25  H   UNL     1      41.906   3.562  11.008  0.00  0.00    +0.000 HD
ENDBRANCH  23  24
BRANCH  23  26
ATOM     26  C   UNL     1      44.268   2.934   9.674  0.00  0.00    +0.000 C 
BRANCH  26  27
ATOM     27  N   UNL     1      44.606   3.380   8.315  0.00  0.00    +0.000 NA
ATOM     28  H   UNL     1      44.507   4.392   8.240  0.00  0.00    +0.000 HD
BRANCH  27  29
ATOM     29  C   UNL     1      45.955   3.048   7.939  0.00  0.00    +0.000 C 
ATOM     30  C   UNL     1      46.304   3.188   6.464  0.00  0.00    +0.000 C 
ATOM     31  C   UNL     1      47.497   2.260   6.324  0.00  0.00    +0.000 C 
ATOM     32  C   UNL     1      47.255   1.185   7.376  0.00  0.00    +0.000 C 
ATOM     33  N   UNL     1      46.079   1.619   8.134  0.00  0.00    +0.000 NA
ATOM     34  H   UNL     1      46.179   1.416   9.126  0.00  0.00    +0.000 HD
ENDBRANCH  27  29
ENDBRANCH  26  27
ENDBRANCH  23  26
ENDBRANCH   4  23
TORSDOF 9
ENDMDL
MODEL 5
REMARK VINA RESULT:    -7.532      2.522      3.144
REMARK INTER + INTRA:         -12.153
REMARK INTER:                 -10.864
REMARK INTRA:                  -1.289
REMARK UNBOUND:                -0.879
REMARK  Name = 
REMARK  10 active torsions:
REMARK  status: ('A' for Active; 'I' for Inactive)
REMARK    1  A    between atoms: C_1  and  C_2
REMARK    2  A    between atoms: C_2  and  N_3
REMARK    3  A    between atoms: C_2  and  C_20
REMARK    4  A    between atoms: N_3  and  C_4
REMARK    5  A    between atoms: C_4  and  C_5
REMARK    6  A    between atoms: C_8  and  C_9
REMARK    7  A    between atoms: C_9  and  O_10
REMARK    8  A    between atoms: C_9  and  C_11
REMARK    9  A    between atoms: C_11  and  N_12
REMARK   10  A    between atoms: N_12  and  C_13
REMARK                            x       y       z     vdW  Elec       q    Type
REMARK                         _______ _______ _______ _____ _____    ______ ____
ROOT
ATOM      1  C   UNL     1      47.572   6.485  13.031  0.00  0.00    +0.000 A 
ATOM      2  C   UNL     1      47.195   5.185  13.387  0.00  0.00    +0.000 A 
ATOM      3  C   UNL     1      45.891   4.735  13.156  0.00  0.00    +0.000 A 
ATOM      4  C   UNL     1      44.920   5.584  12.596  0.00  0.00    +0.000 A 
ATOM      5  C   UNL     1      45.316   6.872  12.213  0.00  0.00    +0.000 A 
ATOM      6  C   UNL     1      46.623   7.318  12.426  0.00  0.00    +0.000 A 
ENDROOT
BRANCH   1   7
ATOM      7  C   UNL     1      48.960   7.008  13.317  0.00  0.00    +0.000 C 
BRANCH   7   8
ATOM      8  N   UNL     1      49.388   6.705  14.681  0.00  0.00    +0.000 NA
ATOM      9  H   UNL     1      49.160   5.732  14.877  0.00  0.00    +0.000 HD
BRANCH   8  11
ATOM     10  C   UNL     1      48.781   9.036  15.348  0.00  0.00    +0.000 C 
ATOM     11  C   UNL     1      48.706   7.541  15.681  0.00  0.00    +0.000 C 
BRANCH  11  12
ATOM     12  C   UNL     1      49.345   7.282  17.033  0.00  0.00    +0.000 A 
ATOM     13  C   UNL     1      50.257   8.108  17.674  0.00  0.00    +0.000 A 
ATOM     14  S   UNL     1      50.734   7.526  19.207  0.00  0.00    +0.000 S 
ATOM     15  C   UNL     1      49.711   6.171  19.078  0.00  0.00    +0.000 A 
ATOM     16  N   UNL     1      49.610   5.260  20.085  0.00  0.00    +0.000 NA
ATOM     17  C   UNL     1      48.774   4.304  19.848  0.00  0.00    +0.000 A 
ATOM     18  N   UNL     1      48.040   4.164  18.695  0.00  0.00    +0.000 N 
ATOM     19  C   UNL     1      48.114   5.055  17.653  0.00  0.00    +0.000 A 
ATOM     20  O   UNL     1      47.442   4.907  16.635  0.00  0.00    +0.000 OA
ATOM     21  C   UNL     1      49.033   6.154  17.874  0.00  0.00    +0.000 A 
ATOM     22  H   UNL     1      47.406   3.391  18.580  0.00  0.00    +0.000 HD
ENDBRANCH  11  12
ENDBRANCH   8  11
ENDBRANCH   7   8
ENDBRANCH   1   7
BRANCH   4  23
ATOM     23  C   UNL     1      43.490   5.098  12.412  0.00  0.00    +0.000 C 
BRANCH  23  24
ATOM     24  O   UNL     1      42.672   5.553  13.496  0.00  0.00    +0.000 OA
ATOM     25  H   UNL     1      41.787   5.708  13.130  0.00  0.00    +0.000 HD
ENDBRANCH  23  24
BRANCH  23  26
ATOM     26  C   UNL     1      43.412   3.546  12.292  0.00  0.00    +0.000 C 
BRANCH  26  27
ATOM     27  N   UNL     1      43.265   3.079  10.906  0.00  0.00    +0.000 NA
ATOM     28  H   UNL     1      42.583   3.651  10.410  0.00  0.00    +0.000 HD
BRANCH  27  29
ATOM     29  C   UNL     1      44.499   3.137  10.165  0.00  0.00    +0.000 C 
ATOM     30  C   UNL     1      44.514   4.038   8.938  0.00  0.00    +0.000 C 
ATOM     31  C   UNL     1      45.646   3.450   8.118  0.00  0.00    +0.000 C 
ATOM     32  C   UNL     1      45.643   1.972   8.488  0.00  0.00    +0.000 C 
ATOM     33  N   UNL     1      44.663   1.828   9.568  0.00  0.00    +0.000 NA
ATOM     34  H   UNL     1      44.980   1.167  10.273  0.00  0.00    +0.000 HD
ENDBRANCH  27  29
ENDBRANCH  26  27
ENDBRANCH  23  26
ENDBRANCH   4  23
TORSDOF 9
ENDMDL
MODEL 6
REMARK VINA RESULT:    -7.384      1.567      2.094
REMARK INTER + INTRA:         -11.932
REMARK INTER:                 -10.912
REMARK INTRA:                  -1.020
REMARK UNBOUND:                -0.879
REMARK  Name = 
REMARK  10 active torsions:
REMARK  status: ('A' for Active; 'I' for Inactive)
REMARK    1  A    between atoms: C_1  and  C_2
REMARK    2  A    between atoms: C_2  and  N_3
REMARK    3  A    between atoms: C_2  and  C_20
REMARK    4  A    between atoms: N_3  and  C_4
REMARK    5  A    between atoms: C_4  and  C_5
REMARK    6  A    between atoms: C_8  and  C_9
REMARK    7  A    between atoms: C_9  and  O_10
REMARK    8  A    between atoms: C_9  and  C_11
REMARK    9  A    between atoms: C_11  and  N_12
REMARK   10  A    between atoms: N_12  and  C_13
REMARK                            x       y       z     vdW  Elec       q    Type
REMARK                         _______ _______ _______ _____ _____    ______ ____
ROOT
ATOM      1  C   UNL     1      48.098   7.012  14.445  0.00  0.00    +0.000 A 
ATOM      2  C   UNL     1      47.689   5.728  14.065  0.00  0.00    +0.000 A 
ATOM      3  C   UNL     1      46.720   5.556  13.071  0.00  0.00    +0.000 A 
ATOM      4  C   UNL     1      46.108   6.662  12.457  0.00  0.00    +0.000 A 
ATOM      5  C   UNL     1      46.548   7.942  12.820  0.00  0.00    +0.000 A 
ATOM      6  C   UNL     1      47.528   8.116  13.800  0.00  0.00    +0.000 A 
ENDROOT
BRANCH   1   7
ATOM      7  C   UNL     1      49.105   7.222  15.550  0.00  0.00    +0.000 C 
BRANCH   7   8
ATOM      8  N   UNL     1      49.758   5.974  15.939  0.00  0.00    +0.000 NA
ATOM      9  H   UNL     1      49.323   5.212  15.422  0.00  0.00    +0.000 HD
BRANCH   8  11
ATOM     10  C   UNL     1      49.405   6.959  18.208  0.00  0.00    +0.000 C 
ATOM     11  C   UNL     1      49.613   5.689  17.375  0.00  0.00    +0.000 C 
BRANCH  11  12
ATOM     12  C   UNL     1      50.862   4.964  17.844  0.00  0.00    +0.000 A 
ATOM     13  C   UNL     1      51.915   5.528  18.547  0.00  0.00    +0.000 A 
ATOM     14  S   UNL     1      53.136   4.405  18.953  0.00  0.00    +0.000 S 
ATOM     15  C   UNL     1      52.278   3.122  18.234  0.00  0.00    +0.000 A 
ATOM     16  N   UNL     1      52.757   1.848  18.257  0.00  0.00    +0.000 NA
ATOM     17  C   UNL     1      51.980   0.983  17.692  0.00  0.00    +0.000 A 
ATOM     18  N   UNL     1      50.777   1.273  17.097  0.00  0.00    +0.000 N 
ATOM     19  C   UNL     1      50.258   2.543  17.046  0.00  0.00    +0.000 A 
ATOM     20  O   UNL     1      49.176   2.773  16.509  0.00  0.00    +0.000 OA
ATOM     21  C   UNL     1      51.089   3.551  17.675  0.00  0.00    +0.000 A 
ATOM     22  H   UNL     1      50.223   0.546  16.675  0.00  0.00    +0.000 HD
ENDBRANCH  11  12
ENDBRANCH   8  11
ENDBRANCH   7   8
ENDBRANCH   1   7
BRANCH   4  23
ATOM     23  C   UNL     1      45.010   6.456  11.424  0.00  0.00    +0.000 C 
BRANCH  23  24
ATOM     24  O   UNL     1      43.723   6.572  12.044  0.00  0.00    +0.000 OA
ATOM     25  H   UNL     1      43.089   6.758  11.333  0.00  0.00    +0.000 HD
ENDBRANCH  23  24
BRANCH  23  26
ATOM     26  C   UNL     1      45.140   5.081  10.701  0.00  0.00    +0.000 C 
BRANCH  26  27
ATOM     27  N   UNL     1      44.200   4.924   9.582  0.00  0.00    +0.000 NA
ATOM     28  H   UNL     1      44.041   5.822   9.125  0.00  0.00    +0.000 HD
BRANCH  27  29
ATOM     29  C   UNL     1      44.677   4.006   8.580  0.00  0.00    +0.000 C 
ATOM     30  C   UNL     1      45.180   2.658   9.077  0.00  0.00    +0.000 C 
ATOM     31  C   UNL     1      46.094   2.218   7.949  0.00  0.00    +0.000 C 
ATOM     32  C   UNL     1      46.619   3.524   7.366  0.00  0.00    +0.000 C 
ATOM     33  N   UNL     1      45.890   4.594   8.052  0.00  0.00    +0.000 NA
ATOM     34  H   UNL     1      45.655   5.352   7.415  0.00  0.00    +0.000 HD
ENDBRANCH  27  29
ENDBRANCH  26  27
ENDBRANCH  23  26
ENDBRANCH   4  23
TORSDOF 9
ENDMDL
MODEL 7
REMARK VINA RESULT:    -6.896      4.169      5.497
REMARK INTER + INTRA:         -11.202
REMARK INTER:                 -10.113
REMARK INTRA:                  -1.089
REMARK UNBOUND:                -0.879
REMARK  Name = 
REMARK  10 active torsions:
REMARK  status: ('A' for Active; 'I' for Inactive)
REMARK    1  A    between atoms: C_1  and  C_2
REMARK    2  A    between atoms: C_2  and  N_3
REMARK    3  A    between atoms: C_2  and  C_20
REMARK    4  A    between atoms: N_3  and  C_4
REMARK    5  A    between atoms: C_4  and  C_5
REMARK    6  A    between atoms: C_8  and  C_9
REMARK    7  A    between atoms: C_9  and  O_10
REMARK    8  A    between atoms: C_9  and  C_11
REMARK    9  A    between atoms: C_11  and  N_12
REMARK   10  A    between atoms: N_12  and  C_13
REMARK                            x       y       z     vdW  Elec       q    Type
REMARK                         _______ _______ _______ _____ _____    ______ ____
ROOT
ATOM      1  C   UNL     1      47.142   5.733  13.319  0.00  0.00    +0.000 A 
ATOM      2  C   UNL     1      46.677   4.446  13.617  0.00  0.00    +0.000 A 
ATOM      3  C   UNL     1      45.689   3.847  12.829  0.00  0.00    +0.000 A 
ATOM      4  C   UNL     1      45.114   4.531  11.744  0.00  0.00    +0.000 A 
ATOM      5  C   UNL     1      45.609   5.805  11.434  0.00  0.00    +0.000 A 
ATOM      6  C   UNL     1      46.608   6.398  12.209  0.00  0.00    +0.000 A 
ENDROOT
BRANCH   1   7
ATOM      7  C   UNL     1      48.171   6.419  14.186  0.00  0.00    +0.000 C 
BRANCH   7   8
ATOM      8  N   UNL     1      47.709   7.723  14.654  0.00  0.00    +0.000 NA
ATOM      9  H   UNL     1      47.031   8.081  13.984  0.00  0.00    +0.000 HD
BRANCH   8  11
ATOM     10  C   UNL     1      48.553   9.751  15.846  0.00  0.00    +0.000 C 
ATOM     11  C   UNL     1      48.804   8.701  14.758  0.00  0.00    +0.000 C 
BRANCH  11  12
ATOM     12  C   UNL     1      48.962   9.382  13.411  0.00  0.00    +0.000 A 
ATOM     13  C   UNL     1      47.983  10.105  12.745  0.00  0.00    +0.000 A 
ATOM     14  S   UNL     1      48.524  10.774  11.269  0.00  0.00    +0.000 S 
ATOM     15  C   UNL     1      50.092  10.149  11.491  0.00  0.00    +0.000 A 
ATOM     16  N   UNL     1      51.084  10.387  10.590  0.00  0.00    +0.000 NA
ATOM     17  C   UNL     1      52.223   9.867  10.912  0.00  0.00    +0.000 A 
ATOM     18  N   UNL     1      52.461   9.123  12.041  0.00  0.00    +0.000 N 
ATOM     19  C   UNL     1      51.490   8.854  12.974  0.00  0.00    +0.000 A 
ATOM     20  O   UNL     1      51.732   8.188  13.978  0.00  0.00    +0.000 OA
ATOM     21  C   UNL     1      50.193   9.424  12.663  0.00  0.00    +0.000 A 
ATOM     22  H   UNL     1      53.377   8.748  12.227  0.00  0.00    +0.000 HD
ENDBRANCH  11  12
ENDBRANCH   8  11
ENDBRANCH   7   8
ENDBRANCH   1   7
BRANCH   4  23
ATOM     23  C   UNL     1      43.995   3.889  10.938  0.00  0.00    +0.000 C 
BRANCH  23  24
ATOM     24  O   UNL     1      43.896   2.495  11.258  0.00  0.00    +0.000 OA
ATOM     25  H   UNL     1      43.299   2.102  10.601  0.00  0.00    +0.000 HD
ENDBRANCH  23  24
BRANCH  23  26
ATOM     26  C   UNL     1      44.199   4.077   9.404  0.00  0.00    +0.000 C 
BRANCH  26  27
ATOM     27  N   UNL     1      44.421   2.812   8.689  0.00  0.00    +0.000 NA
ATOM     28  H   UNL     1      43.867   2.788   7.833  0.00  0.00    +0.000 HD
BRANCH  27  29
ATOM     29  C   UNL     1      45.799   2.615   8.320  0.00  0.00    +0.000 C 
ATOM     30  C   UNL     1      46.190   3.031   6.909  0.00  0.00    +0.000 C 
ATOM     31  C   UNL     1      47.435   2.200   6.661  0.00  0.00    +0.000 C 
ATOM     32  C   UNL     1      47.216   0.945   7.496  0.00  0.00    +0.000 C 
ATOM     33  N   UNL     1      45.993   1.182   8.266  0.00  0.00    +0.000 NA
ATOM     34  H   UNL     1      46.069   0.811   9.211  0.00  0.00    +0.000 HD
ENDBRANCH  27  29
ENDBRANCH  26  27
ENDBRANCH  23  26
ENDBRANCH   4  23
TORSDOF 9
ENDMDL
MODEL 8
REMARK VINA RESULT:    -6.813      3.778      8.787
REMARK INTER + INTRA:         -11.077
REMARK INTER:                  -9.402
REMARK INTRA:                  -1.675
REMARK UNBOUND:                -0.879
REMARK  Name = 
REMARK  10 active torsions:
REMARK  status: ('A' for Active; 'I' for Inactive)
REMARK    1  A    between atoms: C_1  and  C_2
REMARK    2  A    between atoms: C_2  and  N_3
REMARK    3  A    between atoms: C_2  and  C_20
REMARK    4  A    between atoms: N_3  and  C_4
REMARK    5  A    between atoms: C_4  and  C_5
REMARK    6  A    between atoms: C_8  and  C_9
REMARK    7  A    between atoms: C_9  and  O_10
REMARK    8  A    between atoms: C_9  and  C_11
REMARK    9  A    between atoms: C_11  and  N_12
REMARK   10  A    between atoms: N_12  and  C_13
REMARK                            x       y       z     vdW  Elec       q    Type
REMARK                         _______ _______ _______ _____ _____    ______ ____
ROOT
ATOM      1  C   UNL     1      48.643   8.015  15.320  0.00  0.00    +0.000 A 
ATOM      2  C   UNL     1      49.640   7.035  15.251  0.00  0.00    +0.000 A 
ATOM      3  C   UNL     1      50.245   6.552  16.416  0.00  0.00    +0.000 A 
ATOM      4  C   UNL     1      49.895   7.062  17.678  0.00  0.00    +0.000 A 
ATOM      5  C   UNL     1      48.872   8.018  17.740  0.00  0.00    +0.000 A 
ATOM      6  C   UNL     1      48.254   8.489  16.579  0.00  0.00    +0.000 A 
ENDROOT
BRANCH   1   7
ATOM      7  C   UNL     1      48.013   8.586  14.073  0.00  0.00    +0.000 C 
BRANCH   7   8
ATOM      8  N   UNL     1      46.726   7.961  13.775  0.00  0.00    +0.000 NA
ATOM      9  H   UNL     1      46.290   7.695  14.657  0.00  0.00    +0.000 HD
BRANCH   8  11
ATOM     10  C   UNL     1      47.898   6.917  11.832  0.00  0.00    +0.000 C 
ATOM     11  C   UNL     1      46.867   6.749  12.954  0.00  0.00    +0.000 C 
BRANCH  11  12
ATOM     12  C   UNL     1      45.510   6.415  12.362  0.00  0.00    +0.000 A 
ATOM     13  C   UNL     1      44.651   7.308  11.739  0.00  0.00    +0.000 A 
ATOM     14  S   UNL     1      43.226   6.576  11.149  0.00  0.00    +0.000 S 
ATOM     15  C   UNL     1      43.728   5.036  11.675  0.00  0.00    +0.000 A 
ATOM     16  N   UNL     1      42.969   3.928  11.450  0.00  0.00    +0.000 NA
ATOM     17  C   UNL     1      43.497   2.832  11.886  0.00  0.00    +0.000 A 
ATOM     18  N   UNL     1      44.703   2.740  12.535  0.00  0.00    +0.000 N 
ATOM     19  C   UNL     1      45.498   3.831  12.788  0.00  0.00    +0.000 A 
ATOM     20  O   UNL     1      46.576   3.717  13.368  0.00  0.00    +0.000 OA
ATOM     21  C   UNL     1      44.954   5.087  12.309  0.00  0.00    +0.000 A 
ATOM     22  H   UNL     1      45.053   1.849  12.848  0.00  0.00    +0.000 HD
ENDBRANCH  11  12
ENDBRANCH   8  11
ENDBRANCH   7   8
ENDBRANCH   1   7
BRANCH   4  23
ATOM     23  C   UNL     1      50.609   6.571  18.929  0.00  0.00    +0.000 C 
BRANCH  23  24
ATOM     24  O   UNL     1      51.928   7.128  18.993  0.00  0.00    +0.000 OA
ATOM     25  H   UNL     1      51.917   7.786  19.706  0.00  0.00    +0.000 HD
ENDBRANCH  23  24
BRANCH  23  26
ATOM     26  C   UNL     1      50.676   5.015  18.990  0.00  0.00    +0.000 C 
BRANCH  26  27
ATOM     27  N   UNL     1      49.521   4.412  19.670  0.00  0.00    +0.000 NA
ATOM     28  H   UNL     1      48.907   5.138  20.038  0.00  0.00    +0.000 HD
BRANCH  27  29
ATOM     29  C   UNL     1      48.733   3.581  18.797  0.00  0.00    +0.000 C 
ATOM     30  C   UNL     1      49.382   3.168  17.483  0.00  0.00    +0.000 C 
ATOM     31  C   UNL     1      48.179   2.850  16.615  0.00  0.00    +0.000 C 
ATOM     32  C   UNL     1      47.085   3.768  17.146  0.00  0.00    +0.000 C 
ATOM     33  N   UNL     1      47.643   4.415  18.335  0.00  0.00    +0.000 NA
ATOM     34  H   UNL     1      46.947   4.507  19.071  0.00  0.00    +0.000 HD
ENDBRANCH  27  29
ENDBRANCH  26  27
ENDBRANCH  23  26
ENDBRANCH   4  23
TORSDOF 9
ENDMDL
MODEL 9
REMARK VINA RESULT:    -6.627      2.442      3.332
REMARK INTER + INTRA:         -10.798
REMARK INTER:                  -9.996
REMARK INTRA:                  -0.802
REMARK UNBOUND:                -0.879
REMARK  Name = 
REMARK  10 active torsions:
REMARK  status: ('A' for Active; 'I' for Inactive)
REMARK    1  A    between atoms: C_1  and  C_2
REMARK    2  A    between atoms: C_2  and  N_3
REMARK    3  A    between atoms: C_2  and  C_20
REMARK    4  A    between atoms: N_3  and  C_4
REMARK    5  A    between atoms: C_4  and  C_5
REMARK    6  A    between atoms: C_8  and  C_9
REMARK    7  A    between atoms: C_9  and  O_10
REMARK    8  A    between atoms: C_9  and  C_11
REMARK    9  A    between atoms: C_11  and  N_12
REMARK   10  A    between atoms: N_12  and  C_13
REMARK                            x       y       z     vdW  Elec       q    Type
REMARK                         _______ _______ _______ _____ _____    ______ ____
ROOT
ATOM      1  C   UNL     1      46.536   4.409  13.953  0.00  0.00    +0.000 A 
ATOM      2  C   UNL     1      46.265   5.730  13.576  0.00  0.00    +0.000 A 
ATOM      3  C   UNL     1      45.575   6.004  12.391  0.00  0.00    +0.000 A 
ATOM      4  C   UNL     1      45.169   4.967  11.533  0.00  0.00    +0.000 A 
ATOM      5  C   UNL     1      45.415   3.647  11.936  0.00  0.00    +0.000 A 
ATOM      6  C   UNL     1      46.088   3.371  13.128  0.00  0.00    +0.000 A 
ENDROOT
BRANCH   1   7
ATOM      7  C   UNL     1      47.322   4.093  15.203  0.00  0.00    +0.000 C 
BRANCH   7   8
ATOM      8  N   UNL     1      47.757   5.303  15.897  0.00  0.00    +0.000 NA
ATOM      9  H   UNL     1      47.927   6.026  15.200  0.00  0.00    +0.000 HD
BRANCH   8  11
ATOM     10  C   UNL     1      49.030   3.755  17.388  0.00  0.00    +0.000 C 
ATOM     11  C   UNL     1      49.002   5.099  16.653  0.00  0.00    +0.000 C 
BRANCH  11  12
ATOM     12  C   UNL     1      49.144   6.235  17.650  0.00  0.00    +0.000 A 
ATOM     13  C   UNL     1      48.664   6.241  18.951  0.00  0.00    +0.000 A 
ATOM     14  S   UNL     1      49.046   7.669  19.806  0.00  0.00    +0.000 S 
ATOM     15  C   UNL     1      49.895   8.309  18.477  0.00  0.00    +0.000 A 
ATOM     16  N   UNL     1      50.516   9.519  18.548  0.00  0.00    +0.000 NA
ATOM     17  C   UNL     1      51.139   9.855  17.467  0.00  0.00    +0.000 A 
ATOM     18  N   UNL     1      51.190   9.104  16.319  0.00  0.00    +0.000 N 
ATOM     19  C   UNL     1      50.575   7.882  16.200  0.00  0.00    +0.000 A 
ATOM     20  O   UNL     1      50.641   7.229  15.161  0.00  0.00    +0.000 OA
ATOM     21  C   UNL     1      49.868   7.454  17.392  0.00  0.00    +0.000 A 
ATOM     22  H   UNL     1      51.697   9.430  15.512  0.00  0.00    +0.000 HD
ENDBRANCH  11  12
ENDBRANCH   8  11
ENDBRANCH   7   8
ENDBRANCH   1   7
BRANCH   4  23
ATOM     23  C   UNL     1      44.477   5.287  10.217  0.00  0.00    +0.000 C 
BRANCH  23  24
ATOM     24  O   UNL     1      43.084   5.536  10.442  0.00  0.00    +0.000 OA
ATOM     25  H   UNL     1      42.705   4.708  10.778  0.00  0.00    +0.000 HD
ENDBRANCH  23  24
BRANCH  23  26
ATOM     26  C   UNL     1      44.659   4.147   9.170  0.00  0.00    +0.000 C 
BRANCH  26  27
ATOM     27  N   UNL     1      45.600   4.493   8.094  0.00  0.00    +0.000 NA
ATOM     28  H   UNL     1      46.506   4.747   8.486  0.00  0.00    +0.000 HD
BRANCH  27  29
ATOM     29  C   UNL     1      45.815   3.407   7.173  0.00  0.00    +0.000 C 
ATOM     30  C   UNL     1      46.454   2.148   7.742  0.00  0.00    +0.000 C 
ATOM     31  C   UNL     1      47.049   1.500   6.506  0.00  0.00    +0.000 C 
ATOM     32  C   UNL     1      47.381   2.675   5.595  0.00  0.00    +0.000 C 
ATOM     33  N   UNL     1      46.838   3.864   6.256  0.00  0.00    +0.000 NA
ATOM     34  H   UNL     1      46.431   4.511   5.584  0.00  0.00    +0.000 HD
ENDBRANCH  27  29
ENDBRANCH  26  27
ENDBRANCH  23  26
ENDBRANCH   4  23
TORSDOF 9
ENDMDL
