MODEL 1
REMARK VINA RESULT:    -7.880      0.000      0.000
REMARK INTER + INTRA:         -12.683
REMARK INTER:                 -11.565
REMARK INTRA:                  -1.118
REMARK UNBOUND:                -1.118
REMARK  Name = 
REMARK  9 active torsions:
REMARK  status: ('A' for Active; 'I' for Inactive)
REMARK    1  A    between atoms: C_1  and  O_2
REMARK    2  A    between atoms: O_2  and  C_3
REMARK    3  A    between atoms: C_10  and  C_11
REMARK    4  A    between atoms: N_13  and  C_14
REMARK    5  A    between atoms: C_14  and  C_15
REMARK    6  A    between atoms: C_18  and  C_19
REMARK    7  A    between atoms: C_19  and  O_20
REMARK    8  A    between atoms: O_20  and  C_21
REMARK    9  A    between atoms: C_21  and  C_22
REMARK                            x       y       z     vdW  Elec       q    Type
REMARK                         _______ _______ _______ _____ _____    ______ ____
ROOT
ATOM      1  C   UNL     1      47.796   7.155  13.166  0.00  0.00    +0.000 C 
ENDROOT
BRANCH   1   2
ATOM      2  C   UNL     1      46.769   6.190  12.633  0.00  0.00    +0.000 A 
ATOM      3  C   UNL     1      46.253   5.140  13.408  0.00  0.00    +0.000 A 
ATOM      4  C   UNL     1      45.248   4.305  12.897  0.00  0.00    +0.000 A 
ATOM      5  C   UNL     1      44.721   4.520  11.612  0.00  0.00    +0.000 A 
ATOM      6  C   UNL     1      45.263   5.550  10.836  0.00  0.00    +0.000 A 
ATOM      7  C   UNL     1      46.297   6.348  11.326  0.00  0.00    +0.000 A 
BRANCH   5   8
ATOM      8  C   UNL     1      43.622   3.660  11.038  0.00  0.00    +0.000 C 
BRANCH   8   9
ATOM      9  O   UNL     1      43.892   3.387   9.670  0.00  0.00    +0.000 OA
BRANCH   9  10
ATOM     10  C   UNL     1      44.516   2.110   9.501  0.00  0.00    +0.000 C 
BRANCH  10  11
ATOM     11  C   UNL     1      45.597   2.198   8.449  0.00  0.00    +0.000 A 
ATOM     12  N   UNL     1      46.321   1.087   8.192  0.00  0.00    +0.000 NA
ATOM     13  C   UNL     1      47.300   1.209   7.277  0.00  0.00    +0.000 A 
ATOM     14  C   UNL     1      47.574   2.378   6.609  0.00  0.00    +0.000 A 
ATOM     15  C   UNL     1      46.778   3.449   6.935  0.00  0.00    +0.000 A 
ATOM     16  N   UNL     1      45.784   3.389   7.840  0.00  0.00    +0.000 NA
ENDBRANCH  10  11
ENDBRANCH   9  10
ENDBRANCH   8   9
ENDBRANCH   5   8
ENDBRANCH   1   2
BRANCH   1  19
ATOM     17  C   UNL     1      48.954   7.054  15.332  0.00  0.00    +0.000 C 
ATOM     18  O   UNL     1      50.037   6.858  14.777  0.00  0.00    +0.000 OA
ATOM     19  N   UNL     1      47.798   7.203  14.614  0.00  0.00    +0.000 N 
ATOM     20  H   UNL     1      46.912   7.343  15.082  0.00  0.00    +0.000 HD
BRANCH  17  28
ATOM     21  C   UNL     1      48.916   4.715  17.907  0.00  0.00    +0.000 A 
ATOM     22  N   UNL     1      48.879   4.056  19.087  0.00  0.00    +0.000 NA
ATOM     23  C   UNL     1      48.790   4.764  20.212  0.00  0.00    +0.000 A 
ATOM     24  N   UNL     1      48.720   6.084  20.311  0.00  0.00    +0.000 NA
ATOM     25  C   UNL     1      48.743   6.706  19.118  0.00  0.00    +0.000 A 
ATOM     26  S   UNL     1      48.647   8.399  19.070  0.00  0.00    +0.000 S 
ATOM     27  C   UNL     1      48.742   8.405  17.376  0.00  0.00    +0.000 A 
ATOM     28  C   UNL     1      48.851   7.136  16.804  0.00  0.00    +0.000 A 
ATOM     29  C   UNL     1      48.840   6.119  17.857  0.00  0.00    +0.000 A 
BRANCH  21  31
ATOM     30  C   UNL     1      47.721   3.526  16.314  0.00  0.00    +0.000 C 
ATOM     31  O   UNL     1      49.012   3.953  16.758  0.00  0.00    +0.000 OA
ENDBRANCH  21  31
ENDBRANCH  17  28
ENDBRANCH   1  19
TORSDOF 8
ENDMDL
MODEL 2
REMARK VINA RESULT:    -7.310      1.354      2.366
REMARK INTER + INTRA:         -11.846
REMARK INTER:                 -10.902
REMARK INTRA:                  -0.945
REMARK UNBOUND:                -1.118
REMARK  Name = 
REMARK  9 active torsions:
REMARK  status: ('A' for Active; 'I' for Inactive)
REMARK    1  A    between atoms: C_1  and  O_2
REMARK    2  A    between atoms: O_2  and  C_3
REMARK    3  A    between atoms: C_10  and  C_11
REMARK    4  A    between atoms: N_13  and  C_14
REMARK    5  A    between atoms: C_14  and  C_15
REMARK    6  A    between atoms: C_18  and  C_19
REMARK    7  A    between atoms: C_19  and  O_20
REMARK    8  A    between atoms: O_20  and  C_21
REMARK    9  A    between atoms: C_21  and  C_22
REMARK                            x       y       z     vdW  Elec       q    Type
REMARK                         _______ _______ _______ _____ _____    ______ ____
ROOT
ATOM      1  C   UNL     1      47.950   6.677  13.621  0.00  0.00    +0.000 C 
ENDROOT
BRANCH   1   2
ATOM      2  C   UNL     1      46.852   6.013  12.830  0.00  0.00    +0.000 A 
ATOM      3  C   UNL     1      46.124   4.921  13.327  0.00  0.00    +0.000 A 
ATOM      4  C   UNL     1      45.064   4.375  12.587  0.00  0.00    +0.000 A 
ATOM      5  C   UNL     1      44.695   4.928  11.349  0.00  0.00    +0.000 A 
ATOM      6  C   UNL     1      45.445   5.997  10.848  0.00  0.00    +0.000 A 
ATOM      7  C   UNL     1      46.531   6.506  11.561  0.00  0.00    +0.000 A 
BRANCH   5   8
ATOM      8  C   UNL     1      43.545   4.386  10.536  0.00  0.00    +0.000 C 
BRANCH   8   9
ATOM      9  O   UNL     1      44.018   3.946   9.271  0.00  0.00    +0.000 OA
BRANCH   9  10
ATOM     10  C   UNL     1      44.539   2.614   9.337  0.00  0.00    +0.000 C 
BRANCH  10  11
ATOM     11  C   UNL     1      45.596   2.420   8.274  0.00  0.00    +0.000 A 
ATOM     12  N   UNL     1      45.770   3.406   7.368  0.00  0.00    +0.000 NA
ATOM     13  C   UNL     1      46.692   3.187   6.413  0.00  0.00    +0.000 A 
ATOM     14  C   UNL     1      47.446   2.041   6.335  0.00  0.00    +0.000 A 
ATOM     15  C   UNL     1      47.201   1.101   7.307  0.00  0.00    +0.000 A 
ATOM     16  N   UNL     1      46.292   1.263   8.287  0.00  0.00    +0.000 NA
ENDBRANCH  10  11
ENDBRANCH   9  10
ENDBRANCH   8   9
ENDBRANCH   5   8
ENDBRANCH   1   2
BRANCH   1  19
ATOM     17  C   UNL     1      49.067   6.360  15.788  0.00  0.00    +0.000 C 
ATOM     18  O   UNL     1      50.131   6.784  15.334  0.00  0.00    +0.000 OA
ATOM     19  N   UNL     1      47.944   6.265  15.011  0.00  0.00    +0.000 N 
ATOM     20  H   UNL     1      47.081   5.896  15.389  0.00  0.00    +0.000 HD
BRANCH  17  28
ATOM     21  C   UNL     1      49.053   8.017  18.847  0.00  0.00    +0.000 A 
ATOM     22  N   UNL     1      49.012   8.377  20.149  0.00  0.00    +0.000 NA
ATOM     23  C   UNL     1      48.848   7.429  21.070  0.00  0.00    +0.000 A 
ATOM     24  N   UNL     1      48.728   6.126  20.849  0.00  0.00    +0.000 NA
ATOM     25  C   UNL     1      48.790   5.803  19.545  0.00  0.00    +0.000 A 
ATOM     26  S   UNL     1      48.666   4.173  19.094  0.00  0.00    +0.000 S 
ATOM     27  C   UNL     1      48.810   4.565  17.450  0.00  0.00    +0.000 A 
ATOM     28  C   UNL     1      48.951   5.931  17.198  0.00  0.00    +0.000 A 
ATOM     29  C   UNL     1      48.949   6.668  18.463  0.00  0.00    +0.000 A 
BRANCH  21  31
ATOM     30  C   UNL     1      47.959   9.546  17.488  0.00  0.00    +0.000 C 
ATOM     31  O   UNL     1      49.221   9.025  17.916  0.00  0.00    +0.000 OA
ENDBRANCH  21  31
ENDBRANCH  17  28
ENDBRANCH   1  19
TORSDOF 8
ENDMDL
MODEL 3
REMARK VINA RESULT:    -6.988      4.825      9.429
REMARK INTER + INTRA:         -11.373
REMARK INTER:                 -10.559
REMARK INTRA:                  -0.814
REMARK UNBOUND:                -1.118
REMARK  Name = 
REMARK  9 active torsions:
REMARK  status: ('A' for Active; 'I' for Inactive)
REMARK    1  A    between atoms: C_1  and  O_2
REMARK    2  A    between atoms: O_2  and  C_3
REMARK    3  A    between atoms: C_10  and  C_11
REMARK    4  A    between atoms: N_13  and  C_14
REMARK    5  A    between atoms: C_14  and  C_15
REMARK    6  A    between atoms: C_18  and  C_19
REMARK    7  A    between atoms: C_19  and  O_20
REMARK    8  A    between atoms: O_20  and  C_21
REMARK    9  A    between atoms: C_21  and  C_22
REMARK                            x       y       z     vdW  Elec       q    Type
REMARK                         _______ _______ _______ _____ _____    ______ ____
ROOT
ATOM      1  C   UNL     1      47.182   3.373  16.871  0.00  0.00    +0.000 C 
ENDROOT
BRANCH   1   2
ATOM      2  C   UNL     1      48.664   3.319  17.141  0.00  0.00    +0.000 A 
ATOM      3  C   UNL     1      49.376   4.419  17.640  0.00  0.00    +0.000 A 
ATOM      4  C   UNL     1      50.742   4.307  17.941  0.00  0.00    +0.000 A 
ATOM      5  C   UNL     1      51.415   3.085  17.775  0.00  0.00    +0.000 A 
ATOM      6  C   UNL     1      50.703   2.001  17.249  0.00  0.00    +0.000 A 
ATOM      7  C   UNL     1      49.359   2.128  16.902  0.00  0.00    +0.000 A 
BRANCH   5   8
ATOM      8  C   UNL     1      52.876   2.917  18.113  0.00  0.00    +0.000 C 
BRANCH   8   9
ATOM      9  O   UNL     1      53.130   1.571  18.486  0.00  0.00    +0.000 OA
BRANCH   9  10
ATOM     10  C   UNL     1      54.373   1.101  17.951  0.00  0.00    +0.000 C 
BRANCH  10  11
ATOM     11  C   UNL     1      54.456  -0.403  18.080  0.00  0.00    +0.000 A 
ATOM     12  N   UNL     1      54.971  -1.098  17.043  0.00  0.00    +0.000 NA
ATOM     13  C   UNL     1      54.996  -2.436  17.174  0.00  0.00    +0.000 A 
ATOM     14  C   UNL     1      54.545  -3.099  18.290  0.00  0.00    +0.000 A 
ATOM     15  C   UNL     1      54.047  -2.303  19.292  0.00  0.00    +0.000 A 
ATOM     16  N   UNL     1      53.995  -0.960  19.220  0.00  0.00    +0.000 NA
ENDBRANCH  10  11
ENDBRANCH   9  10
ENDBRANCH   8   9
ENDBRANCH   5   8
ENDBRANCH   1   2
BRANCH   1  19
ATOM     17  C   UNL     1      46.919   4.202  14.571  0.00  0.00    +0.000 C 
ATOM     18  O   UNL     1      47.298   3.124  14.109  0.00  0.00    +0.000 OA
ATOM     19  N   UNL     1      46.841   4.414  15.922  0.00  0.00    +0.000 N 
ATOM     20  H   UNL     1      46.548   5.309  16.290  0.00  0.00    +0.000 HD
BRANCH  17  28
ATOM     21  C   UNL     1      44.099   4.947  12.676  0.00  0.00    +0.000 A 
ATOM     22  N   UNL     1      43.162   5.492  11.869  0.00  0.00    +0.000 NA
ATOM     23  C   UNL     1      43.410   6.673  11.307  0.00  0.00    +0.000 A 
ATOM     24  N   UNL     1      44.514   7.397  11.443  0.00  0.00    +0.000 NA
ATOM     25  C   UNL     1      45.430   6.817  12.239  0.00  0.00    +0.000 A 
ATOM     26  S   UNL     1      46.906   7.609  12.505  0.00  0.00    +0.000 S 
ATOM     27  C   UNL     1      47.448   6.362  13.521  0.00  0.00    +0.000 A 
ATOM     28  C   UNL     1      46.532   5.321  13.688  0.00  0.00    +0.000 A 
ATOM     29  C   UNL     1      45.325   5.597  12.905  0.00  0.00    +0.000 A 
BRANCH  21  31
ATOM     30  C   UNL     1      43.501   2.747  12.246  0.00  0.00    +0.000 C 
ATOM     31  O   UNL     1      43.810   3.723  13.247  0.00  0.00    +0.000 OA
ENDBRANCH  21  31
ENDBRANCH  17  28
ENDBRANCH   1  19
TORSDOF 8
ENDMDL
MODEL 4
REMARK VINA RESULT:    -6.943      2.061      2.350
REMARK INTER + INTRA:         -11.308
REMARK INTER:                 -10.258
REMARK INTRA:                  -1.050
REMARK UNBOUND:                -1.118
REMARK  Name = 
REMARK  9 active torsions:
REMARK  status: ('A' for Active; 'I' for Inactive)
REMARK    1  A    between atoms: C_1  and  O_2
REMARK    2  A    between atoms: O_2  and  C_3
REMARK    3  A    between atoms: C_10  and  C_11
REMARK    4  A    between atoms: N_13  and  C_14
REMARK    5  A    between atoms: C_14  and  C_15
REMARK    6  A    between atoms: C_18  and  C_19
REMARK    7  A    between atoms: C_19  and  O_20
REMARK    8  A    between atoms: O_20  and  C_21
REMARK    9  A    between atoms: C_21  and  C_22
REMARK                            x       y       z     vdW  Elec       q    Type
REMARK                         _______ _______ _______ _____ _____    ______ ____
ROOT
ATOM      1  C   UNL     1      48.214   7.597  14.257  0.00  0.00    +0.000 C 
ENDROOT
BRANCH   1   2
ATOM      2  C   UNL     1      47.178   6.819  13.488  0.00  0.00    +0.000 A 
ATOM      3  C   UNL     1      46.903   5.469  13.753  0.00  0.00    +0.000 A 
ATOM      4  C   UNL     1      45.883   4.800  13.059  0.00  0.00    +0.000 A 
ATOM      5  C   UNL     1      45.102   5.475  12.107  0.00  0.00    +0.000 A 
ATOM      6  C   UNL     1      45.402   6.813  11.828  0.00  0.00    +0.000 A 
ATOM      7  C   UNL     1      46.449   7.462  12.481  0.00  0.00    +0.000 A 
BRANCH   5   8
ATOM      8  C   UNL     1      43.979   4.797  11.360  0.00  0.00    +0.000 C 
BRANCH   8   9
ATOM      9  O   UNL     1      44.510   3.801  10.499  0.00  0.00    +0.000 OA
BRANCH   9  10
ATOM     10  C   UNL     1      44.537   4.240   9.137  0.00  0.00    +0.000 C 
BRANCH  10  11
ATOM     11  C   UNL     1      45.494   3.386   8.337  0.00  0.00    +0.000 A 
ATOM     12  N   UNL     1      45.575   2.073   8.641  0.00  0.00    +0.000 NA
ATOM     13  C   UNL     1      46.462   1.348   7.937  0.00  0.00    +0.000 A 
ATOM     14  C   UNL     1      47.255   1.874   6.945  0.00  0.00    +0.000 A 
ATOM     15  C   UNL     1      47.093   3.217   6.705  0.00  0.00    +0.000 A 
ATOM     16  N   UNL     1      46.222   3.994   7.376  0.00  0.00    +0.000 NA
ENDBRANCH  10  11
ENDBRANCH   9  10
ENDBRANCH   8   9
ENDBRANCH   5   8
ENDBRANCH   1   2
BRANCH   1  19
ATOM     17  C   UNL     1      49.250   6.677  16.288  0.00  0.00    +0.000 C 
ATOM     18  O   UNL     1      48.537   7.381  17.006  0.00  0.00    +0.000 OA
ATOM     19  N   UNL     1      49.163   6.727  14.922  0.00  0.00    +0.000 N 
ATOM     20  H   UNL     1      49.768   6.159  14.344  0.00  0.00    +0.000 HD
BRANCH  17  28
ATOM     21  C   UNL     1      49.425   3.220  16.637  0.00  0.00    +0.000 A 
ATOM     22  N   UNL     1      49.764   1.940  16.903  0.00  0.00    +0.000 NA
ATOM     23  C   UNL     1      50.933   1.698  17.496  0.00  0.00    +0.000 A 
ATOM     24  N   UNL     1      51.827   2.601  17.877  0.00  0.00    +0.000 NA
ATOM     25  C   UNL     1      51.449   3.864  17.611  0.00  0.00    +0.000 A 
ATOM     26  S   UNL     1      52.477   5.140  18.050  0.00  0.00    +0.000 S 
ATOM     27  C   UNL     1      51.396   6.290  17.426  0.00  0.00    +0.000 A 
ATOM     28  C   UNL     1      50.238   5.744  16.869  0.00  0.00    +0.000 A 
ATOM     29  C   UNL     1      50.272   4.285  16.994  0.00  0.00    +0.000 A 
BRANCH  21  31
ATOM     30  C   UNL     1      47.161   3.588  16.981  0.00  0.00    +0.000 C 
ATOM     31  O   UNL     1      48.209   3.438  16.018  0.00  0.00    +0.000 OA
ENDBRANCH  21  31
ENDBRANCH  17  28
ENDBRANCH   1  19
TORSDOF 8
ENDMDL
MODEL 5
REMARK VINA RESULT:    -6.921      1.924      3.530
REMARK INTER + INTRA:         -11.276
REMARK INTER:                 -10.029
REMARK INTRA:                  -1.247
REMARK UNBOUND:                -1.118
REMARK  Name = 
REMARK  9 active torsions:
REMARK  status: ('A' for Active; 'I' for Inactive)
REMARK    1  A    between atoms: C_1  and  O_2
REMARK    2  A    between atoms: O_2  and  C_3
REMARK    3  A    between atoms: C_10  and  C_11
REMARK    4  A    between atoms: N_13  and  C_14
REMARK    5  A    between atoms: C_14  and  C_15
REMARK    6  A    between atoms: C_18  and  C_19
REMARK    7  A    between atoms: C_19  and  O_20
REMARK    8  A    between atoms: O_20  and  C_21
REMARK    9  A    between atoms: C_21  and  C_22
REMARK                            x       y       z     vdW  Elec       q    Type
REMARK                         _______ _______ _______ _____ _____    ______ ____
ROOT
ATOM      1  C   UNL     1      47.242   4.449  14.918  0.00  0.00    +0.000 C 
ENDROOT
BRANCH   1   2
ATOM      2  C   UNL     1      46.378   4.486  13.684  0.00  0.00    +0.000 A 
ATOM      3  C   UNL     1      45.917   3.321  13.055  0.00  0.00    +0.000 A 
ATOM      4  C   UNL     1      45.059   3.401  11.947  0.00  0.00    +0.000 A 
ATOM      5  C   UNL     1      44.625   4.647  11.465  0.00  0.00    +0.000 A 
ATOM      6  C   UNL     1      45.114   5.805  12.080  0.00  0.00    +0.000 A 
ATOM      7  C   UNL     1      46.007   5.725  13.148  0.00  0.00    +0.000 A 
BRANCH   5   8
ATOM      8  C   UNL     1      43.682   4.773  10.293  0.00  0.00    +0.000 C 
BRANCH   8   9
ATOM      9  O   UNL     1      44.058   3.858   9.275  0.00  0.00    +0.000 OA
BRANCH   9  10
ATOM     10  C   UNL     1      45.147   4.359   8.491  0.00  0.00    +0.000 C 
BRANCH  10  11
ATOM     11  C   UNL     1      45.998   3.211   7.996  0.00  0.00    +0.000 A 
ATOM     12  N   UNL     1      46.991   3.492   7.125  0.00  0.00    +0.000 NA
ATOM     13  C   UNL     1      47.705   2.445   6.674  0.00  0.00    +0.000 A 
ATOM     14  C   UNL     1      47.478   1.146   7.063  0.00  0.00    +0.000 A 
ATOM     15  C   UNL     1      46.450   0.966   7.957  0.00  0.00    +0.000 A 
ATOM     16  N   UNL     1      45.701   1.972   8.443  0.00  0.00    +0.000 NA
ENDBRANCH  10  11
ENDBRANCH   9  10
ENDBRANCH   8   9
ENDBRANCH   5   8
ENDBRANCH   1   2
BRANCH   1  19
ATOM     17  C   UNL     1      48.691   5.987  16.175  0.00  0.00    +0.000 C 
ATOM     18  O   UNL     1      49.394   5.052  16.565  0.00  0.00    +0.000 OA
ATOM     19  N   UNL     1      47.605   5.778  15.368  0.00  0.00    +0.000 N 
ATOM     20  H   UNL     1      47.024   6.551  15.071  0.00  0.00    +0.000 HD
BRANCH  17  28
ATOM     21  C   UNL     1      48.774   9.023  14.479  0.00  0.00    +0.000 A 
ATOM     22  N   UNL     1      48.879  10.314  14.097  0.00  0.00    +0.000 NA
ATOM     23  C   UNL     1      49.192  11.229  15.014  0.00  0.00    +0.000 A 
ATOM     24  N   UNL     1      49.430  11.008  16.300  0.00  0.00    +0.000 NA
ATOM     25  C   UNL     1      49.332   9.711  16.641  0.00  0.00    +0.000 A 
ATOM     26  S   UNL     1      49.621   9.259  18.250  0.00  0.00    +0.000 S 
ATOM     27  C   UNL     1      49.316   7.627  17.898  0.00  0.00    +0.000 A 
ATOM     28  C   UNL     1      48.987   7.381  16.563  0.00  0.00    +0.000 A 
ATOM     29  C   UNL     1      49.008   8.638  15.812  0.00  0.00    +0.000 A 
BRANCH  21  31
ATOM     30  C   UNL     1      48.704   8.615  12.196  0.00  0.00    +0.000 C 
ATOM     31  O   UNL     1      48.445   8.098  13.506  0.00  0.00    +0.000 OA
ENDBRANCH  21  31
ENDBRANCH  17  28
ENDBRANCH   1  19
TORSDOF 8
ENDMDL
MODEL 6
REMARK VINA RESULT:    -6.693      1.601      1.958
REMARK INTER + INTRA:         -10.941
REMARK INTER:                  -9.930
REMARK INTRA:                  -1.011
REMARK UNBOUND:                -1.118
REMARK  Name = 
REMARK  9 active torsions:
REMARK  status: ('A' for Active; 'I' for Inactive)
REMARK    1  A    between atoms: C_1  and  O_2
REMARK    2  A    between atoms: O_2  and  C_3
REMARK    3  A    between atoms: C_10  and  C_11
REMARK    4  A    between atoms: N_13  and  C_14
REMARK    5  A    between atoms: C_14  and  C_15
REMARK    6  A    between atoms: C_18  and  C_19
REMARK    7  A    between atoms: C_19  and  O_20
REMARK    8  A    between atoms: O_20  and  C_21
REMARK    9  A    between atoms: C_21  and  C_22
REMARK                            x       y       z     vdW  Elec       q    Type
REMARK                         _______ _______ _______ _____ _____    ______ ____
ROOT
ATOM      1  C   UNL     1      48.020   8.821  14.356  0.00  0.00    +0.000 C 
ENDROOT
BRANCH   1   2
ATOM      2  C   UNL     1      47.199   7.973  13.419  0.00  0.00    +0.000 A 
ATOM      3  C   UNL     1      47.559   6.659  13.085  0.00  0.00    +0.000 A 
ATOM      4  C   UNL     1      46.731   5.881  12.261  0.00  0.00    +0.000 A 
ATOM      5  C   UNL     1      45.514   6.392  11.780  0.00  0.00    +0.000 A 
ATOM      6  C   UNL     1      45.177   7.713  12.095  0.00  0.00    +0.000 A 
ATOM      7  C   UNL     1      46.026   8.503  12.871  0.00  0.00    +0.000 A 
BRANCH   5   8
ATOM      8  C   UNL     1      44.584   5.578  10.915  0.00  0.00    +0.000 C 
BRANCH   8   9
ATOM      9  O   UNL     1      45.289   5.085   9.785  0.00  0.00    +0.000 OA
BRANCH   9  10
ATOM     10  C   UNL     1      44.659   3.923   9.236  0.00  0.00    +0.000 C 
BRANCH  10  11
ATOM     11  C   UNL     1      45.619   3.199   8.319  0.00  0.00    +0.000 A 
ATOM     12  N   UNL     1      45.820   1.880   8.528  0.00  0.00    +0.000 NA
ATOM     13  C   UNL     1      46.707   1.275   7.719  0.00  0.00    +0.000 A 
ATOM     14  C   UNL     1      47.385   1.922   6.714  0.00  0.00    +0.000 A 
ATOM     15  C   UNL     1      47.105   3.261   6.577  0.00  0.00    +0.000 A 
ATOM     16  N   UNL     1      46.228   3.922   7.355  0.00  0.00    +0.000 NA
ENDBRANCH  10  11
ENDBRANCH   9  10
ENDBRANCH   8   9
ENDBRANCH   5   8
ENDBRANCH   1   2
BRANCH   1  19
ATOM     17  C   UNL     1      48.166   9.277  16.768  0.00  0.00    +0.000 C 
ATOM     18  O   UNL     1      48.647  10.392  16.557  0.00  0.00    +0.000 OA
ATOM     19  N   UNL     1      47.836   8.433  15.741  0.00  0.00    +0.000 N 
ATOM     20  H   UNL     1      47.461   7.513  15.927  0.00  0.00    +0.000 HD
BRANCH  17  28
ATOM     21  C   UNL     1      48.466   6.198  18.359  0.00  0.00    +0.000 A 
ATOM     22  N   UNL     1      48.487   5.160  19.224  0.00  0.00    +0.000 NA
ATOM     23  C   UNL     1      48.139   5.376  20.491  0.00  0.00    +0.000 A 
ATOM     24  N   UNL     1      47.751   6.530  21.018  0.00  0.00    +0.000 NA
ATOM     25  C   UNL     1      47.726   7.537  20.126  0.00  0.00    +0.000 A 
ATOM     26  S   UNL     1      47.237   9.078  20.638  0.00  0.00    +0.000 S 
ATOM     27  C   UNL     1      47.470   9.721  19.085  0.00  0.00    +0.000 A 
ATOM     28  C   UNL     1      47.923   8.795  18.143  0.00  0.00    +0.000 A 
ATOM     29  C   UNL     1      48.065   7.481  18.775  0.00  0.00    +0.000 A 
BRANCH  21  31
ATOM     30  C   UNL     1      47.952   4.997  16.443  0.00  0.00    +0.000 C 
ATOM     31  O   UNL     1      48.836   5.943  17.053  0.00  0.00    +0.000 OA
ENDBRANCH  21  31
ENDBRANCH  17  28
ENDBRANCH   1  19
TORSDOF 8
ENDMDL
MODEL 7
REMARK VINA RESULT:    -6.489      3.750      8.721
REMARK INTER + INTRA:         -10.641
REMARK INTER:                  -9.462
REMARK INTRA:                  -1.179
REMARK UNBOUND:                -1.118
REMARK  Name = 
REMARK  9 active torsions:
REMARK  status: ('A' for Active; 'I' for Inactive)
REMARK    1  A    between atoms: C_1  and  O_2
REMARK    2  A    between atoms: O_2  and  C_3
REMARK    3  A    between atoms: C_10  and  C_11
REMARK    4  A    between atoms: N_13  and  C_14
REMARK    5  A    between atoms: C_14  and  C_15
REMARK    6  A    between atoms: C_18  and  C_19
REMARK    7  A    between atoms: C_19  and  O_20
REMARK    8  A    between atoms: O_20  and  C_21
REMARK    9  A    between atoms: C_21  and  C_22
REMARK                            x       y       z     vdW  Elec       q    Type
REMARK                         _______ _______ _______ _____ _____    ______ ____
ROOT
ATOM      1  C   UNL     1      47.288   3.272  17.019  0.00  0.00    +0.000 C 
ENDROOT
BRANCH   1   2
ATOM      2  C   UNL     1      48.745   3.212  17.398  0.00  0.00    +0.000 A 
ATOM      3  C   UNL     1      49.592   2.182  16.961  0.00  0.00    +0.000 A 
ATOM      4  C   UNL     1      50.958   2.199  17.281  0.00  0.00    +0.000 A 
ATOM      5  C   UNL     1      51.508   3.261  18.019  0.00  0.00    +0.000 A 
ATOM      6  C   UNL     1      50.651   4.268  18.475  0.00  0.00    +0.000 A 
ATOM      7  C   UNL     1      49.284   4.223  18.200  0.00  0.00    +0.000 A 
BRANCH   5   8
ATOM      8  C   UNL     1      52.977   3.328  18.359  0.00  0.00    +0.000 C 
BRANCH   8   9
ATOM      9  O   UNL     1      53.689   3.939  17.293  0.00  0.00    +0.000 OA
BRANCH   9  10
ATOM     10  C   UNL     1      54.075   5.280  17.616  0.00  0.00    +0.000 C 
BRANCH  10  11
ATOM     11  C   UNL     1      53.710   6.210  16.482  0.00  0.00    +0.000 A 
ATOM     12  N   UNL     1      54.638   6.436  15.527  0.00  0.00    +0.000 NA
ATOM     13  C   UNL     1      54.296   7.297  14.552  0.00  0.00    +0.000 A 
ATOM     14  C   UNL     1      53.076   7.926  14.487  0.00  0.00    +0.000 A 
ATOM     15  C   UNL     1      52.199   7.625  15.501  0.00  0.00    +0.000 A 
ATOM     16  N   UNL     1      52.483   6.772  16.503  0.00  0.00    +0.000 NA
ENDBRANCH  10  11
ENDBRANCH   9  10
ENDBRANCH   8   9
ENDBRANCH   5   8
ENDBRANCH   1   2
BRANCH   1  19
ATOM     17  C   UNL     1      47.053   4.134  14.729  0.00  0.00    +0.000 C 
ATOM     18  O   UNL     1      47.337   3.033  14.254  0.00  0.00    +0.000 OA
ATOM     19  N   UNL     1      47.014   4.343  16.082  0.00  0.00    +0.000 N 
ATOM     20  H   UNL     1      46.800   5.256  16.459  0.00  0.00    +0.000 HD
BRANCH  17  28
ATOM     21  C   UNL     1      44.340   5.022  12.740  0.00  0.00    +0.000 A 
ATOM     22  N   UNL     1      43.456   5.618  11.910  0.00  0.00    +0.000 NA
ATOM     23  C   UNL     1      43.768   6.803  11.387  0.00  0.00    +0.000 A 
ATOM     24  N   UNL     1      44.889   7.483  11.585  0.00  0.00    +0.000 NA
ATOM     25  C   UNL     1      45.752   6.854  12.402  0.00  0.00    +0.000 A 
ATOM     26  S   UNL     1      47.242   7.586  12.747  0.00  0.00    +0.000 S 
ATOM     27  C   UNL     1      47.698   6.298  13.753  0.00  0.00    +0.000 A 
ATOM     28  C   UNL     1      46.741   5.287  13.858  0.00  0.00    +0.000 A 
ATOM     29  C   UNL     1      45.578   5.623  13.034  0.00  0.00    +0.000 A 
BRANCH  21  31
ATOM     30  C   UNL     1      43.606   2.880  12.237  0.00  0.00    +0.000 C 
ATOM     31  O   UNL     1      43.986   3.796  13.269  0.00  0.00    +0.000 OA
ENDBRANCH  21  31
ENDBRANCH  17  28
ENDBRANCH   1  19
TORSDOF 8
ENDMDL
MODEL 8
REMARK VINA RESULT:    -6.414      2.484      3.019
REMARK INTER + INTRA:         -10.531
REMARK INTER:                  -9.581
REMARK INTRA:                  -0.950
REMARK UNBOUND:                -1.118
REMARK  Name = 
REMARK  9 active torsions:
REMARK  status: ('A' for Active; 'I' for Inactive)
REMARK    1  A    between atoms: C_1  and  O_2
REMARK    2  A    between atoms: O_2  and  C_3
REMARK    3  A    between atoms: C_10  and  C_11
REMARK    4  A    between atoms: N_13  and  C_14
REMARK    5  A    between atoms: C_14  and  C_15
REMARK    6  A    between atoms: C_18  and  C_19
REMARK    7  A    between atoms: C_19  and  O_20
REMARK    8  A    between atoms: O_20  and  C_21
REMARK    9  A    between atoms: C_21  and  C_22
REMARK                            x       y       z     vdW  Elec       q    Type
REMARK                         _______ _______ _______ _____ _____    ______ ____
ROOT
ATOM      1  C   UNL     1      46.241   8.635  13.132  0.00  0.00    +0.000 C 
ENDROOT
BRANCH   1   2
ATOM      2  C   UNL     1      45.971   7.225  12.675  0.00  0.00    +0.000 A 
ATOM      3  C   UNL     1      46.443   6.105  13.375  0.00  0.00    +0.000 A 
ATOM      4  C   UNL     1      46.113   4.808  12.952  0.00  0.00    +0.000 A 
ATOM      5  C   UNL     1      45.281   4.608  11.838  0.00  0.00    +0.000 A 
ATOM      6  C   UNL     1      44.839   5.730  11.128  0.00  0.00    +0.000 A 
ATOM      7  C   UNL     1      45.210   7.016  11.519  0.00  0.00    +0.000 A 
BRANCH   5   8
ATOM      8  C   UNL     1      44.882   3.230  11.368  0.00  0.00    +0.000 C 
BRANCH   8   9
ATOM      9  O   UNL     1      44.248   3.321  10.101  0.00  0.00    +0.000 OA
BRANCH   9  10
ATOM     10  C   UNL     1      44.393   2.111   9.351  0.00  0.00    +0.000 C 
BRANCH  10  11
ATOM     11  C   UNL     1      45.571   2.224   8.410  0.00  0.00    +0.000 A 
ATOM     12  N   UNL     1      45.815   3.427   7.845  0.00  0.00    +0.000 NA
ATOM     13  C   UNL     1      46.847   3.486   6.984  0.00  0.00    +0.000 A 
ATOM     14  C   UNL     1      47.643   2.408   6.678  0.00  0.00    +0.000 A 
ATOM     15  C   UNL     1      47.318   1.232   7.309  0.00  0.00    +0.000 A 
ATOM     16  N   UNL     1      46.299   1.111   8.179  0.00  0.00    +0.000 NA
ENDBRANCH  10  11
ENDBRANCH   9  10
ENDBRANCH   8   9
ENDBRANCH   5   8
ENDBRANCH   1   2
BRANCH   1  19
ATOM     17  C   UNL     1      48.220   9.159  14.495  0.00  0.00    +0.000 C 
ATOM     18  O   UNL     1      48.826   9.574  13.506  0.00  0.00    +0.000 OA
ATOM     19  N   UNL     1      46.944   8.670  14.399  0.00  0.00    +0.000 N 
ATOM     20  H   UNL     1      46.464   8.313  15.215  0.00  0.00    +0.000 HD
BRANCH  17  28
ATOM     21  C   UNL     1      51.337   8.247  15.740  0.00  0.00    +0.000 A 
ATOM     22  N   UNL     1      52.429   7.986  16.492  0.00  0.00    +0.000 NA
ATOM     23  C   UNL     1      52.387   8.257  17.796  0.00  0.00    +0.000 A 
ATOM     24  N   UNL     1      51.359   8.760  18.465  0.00  0.00    +0.000 NA
ATOM     25  C   UNL     1      50.285   8.991  17.689  0.00  0.00    +0.000 A 
ATOM     26  S   UNL     1      48.878   9.622  18.397  0.00  0.00    +0.000 S 
ATOM     27  C   UNL     1      48.073   9.634  16.903  0.00  0.00    +0.000 A 
ATOM     28  C   UNL     1      48.842   9.167  15.835  0.00  0.00    +0.000 A 
ATOM     29  C   UNL     1      50.167   8.773  16.317  0.00  0.00    +0.000 A 
BRANCH  21  31
ATOM     30  C   UNL     1      52.516   8.635  13.780  0.00  0.00    +0.000 C 
ATOM     31  O   UNL     1      51.413   7.958  14.391  0.00  0.00    +0.000 OA
ENDBRANCH  21  31
ENDBRANCH  17  28
ENDBRANCH   1  19
TORSDOF 8
ENDMDL
MODEL 9
REMARK VINA RESULT:    -6.073      4.481      9.146
REMARK INTER + INTRA:         -10.031
REMARK INTER:                  -8.916
REMARK INTRA:                  -1.114
REMARK UNBOUND:                -1.118
REMARK  Name = 
REMARK  9 active torsions:
REMARK  status: ('A' for Active; 'I' for Inactive)
REMARK    1  A    between atoms: C_1  and  O_2
REMARK    2  A    between atoms: O_2  and  C_3
REMARK    3  A    between atoms: C_10  and  C_11
REMARK    4  A    between atoms: N_13  and  C_14
REMARK    5  A    between atoms: C_14  and  C_15
REMARK    6  A    between atoms: C_18  and  C_19
REMARK    7  A    between atoms: C_19  and  O_20
REMARK    8  A    between atoms: O_20  and  C_21
REMARK    9  A    between atoms: C_21  and  C_22
REMARK                            x       y       z     vdW  Elec       q    Type
REMARK                         _______ _______ _______ _____ _____    ______ ____
ROOT
ATOM      1  C   UNL     1      47.348   3.200  17.138  0.00  0.00    +0.000 C 
ENDROOT
BRANCH   1   2
ATOM      2  C   UNL     1      48.808   3.277  17.501  0.00  0.00    +0.000 A 
ATOM      3  C   UNL     1      49.742   2.326  17.064  0.00  0.00    +0.000 A 
ATOM      4  C   UNL     1      51.104   2.472  17.369  0.00  0.00    +0.000 A 
ATOM      5  C   UNL     1      51.561   3.586  18.093  0.00  0.00    +0.000 A 
ATOM      6  C   UNL     1      50.619   4.514  18.551  0.00  0.00    +0.000 A 
ATOM      7  C   UNL     1      49.260   4.341  18.291  0.00  0.00    +0.000 A 
BRANCH   5   8
ATOM      8  C   UNL     1      53.021   3.792  18.418  0.00  0.00    +0.000 C 
BRANCH   8   9
ATOM      9  O   UNL     1      53.797   2.775  17.801  0.00  0.00    +0.000 OA
BRANCH   9  10
ATOM     10  C   UNL     1      54.570   2.046  18.761  0.00  0.00    +0.000 C 
BRANCH  10  11
ATOM     11  C   UNL     1      54.683   0.598  18.340  0.00  0.00    +0.000 A 
ATOM     12  N   UNL     1      55.047   0.337  17.066  0.00  0.00    +0.000 NA
ATOM     13  C   UNL     1      55.103  -0.960  16.714  0.00  0.00    +0.000 A 
ATOM     14  C   UNL     1      54.824  -1.994  17.575  0.00  0.00    +0.000 A 
ATOM     15  C   UNL     1      54.470  -1.625  18.850  0.00  0.00    +0.000 A 
ATOM     16  N   UNL     1      54.397  -0.346  19.262  0.00  0.00    +0.000 NA
ENDBRANCH  10  11
ENDBRANCH   9  10
ENDBRANCH   8   9
ENDBRANCH   5   8
ENDBRANCH   1   2
BRANCH   1  19
ATOM     17  C   UNL     1      47.035   4.030  14.845  0.00  0.00    +0.000 C 
ATOM     18  O   UNL     1      47.437   2.965  14.373  0.00  0.00    +0.000 OA
ATOM     19  N   UNL     1      46.967   4.235  16.197  0.00  0.00    +0.000 N 
ATOM     20  H   UNL     1      46.654   5.121  16.573  0.00  0.00    +0.000 HD
BRANCH  17  28
ATOM     21  C   UNL     1      48.465   7.044  13.858  0.00  0.00    +0.000 A 
ATOM     22  N   UNL     1      48.760   8.245  13.314  0.00  0.00    +0.000 NA
ATOM     23  C   UNL     1      47.880   8.805  12.485  0.00  0.00    +0.000 A 
ATOM     24  N   UNL     1      46.703   8.309  12.131  0.00  0.00    +0.000 NA
ATOM     25  C   UNL     1      46.435   7.121  12.704  0.00  0.00    +0.000 A 
ATOM     26  S   UNL     1      44.960   6.357  12.363  0.00  0.00    +0.000 S 
ATOM     27  C   UNL     1      45.355   5.042  13.360  0.00  0.00    +0.000 A 
ATOM     28  C   UNL     1      46.606   5.143  13.971  0.00  0.00    +0.000 A 
ATOM     29  C   UNL     1      47.246   6.401  13.580  0.00  0.00    +0.000 A 
BRANCH  21  31
ATOM     30  C   UNL     1      49.358   7.109  15.999  0.00  0.00    +0.000 C 
ATOM     31  O   UNL     1      49.400   6.487  14.710  0.00  0.00    +0.000 OA
ENDBRANCH  21  31
ENDBRANCH  17  28
ENDBRANCH   1  19
TORSDOF 8
ENDMDL
