MODEL 1
REMARK VINA RESULT:    -8.234      0.000      0.000
REMARK INTER + INTRA:         -13.258
REMARK INTER:                 -12.326
REMARK INTRA:                  -0.932
REMARK UNBOUND:                -0.932
REMARK  Name = 
REMARK  10 active torsions:
REMARK  status: ('A' for Active; 'I' for Inactive)
REMARK    1  A    between atoms: C_1  and  C_2
REMARK    2  A    between atoms: C_2  and  N_3
REMARK    3  A    between atoms: C_2  and  C_19
REMARK    4  A    between atoms: N_3  and  C_4
REMARK    5  A    between atoms: C_4  and  C_5
REMARK    6  A    between atoms: C_8  and  C_9
REMARK    7  A    between atoms: C_9  and  O_10
REMARK    8  A    between atoms: C_9  and  C_11
REMARK    9  A    between atoms: C_11  and  N_12
REMARK   10  A    between atoms: C_19  and  C_21
REMARK                            x       y       z     vdW  Elec       q    Type
REMARK                         _______ _______ _______ _____ _____    ______ ____
ROOT
ATOM      1  N   UNL     1      47.891   5.177  15.782  0.00  0.00    +0.000 NA
ATOM      2  H   UNL     1      48.016   4.182  15.571  0.00  0.00    +0.000 HD
ENDROOT
BRANCH   1   4
ATOM      3  C   UNL     1      48.600   6.936  17.291  0.00  0.00    +0.000 C 
ATOM      4  C   UNL     1      49.005   5.610  16.652  0.00  0.00    +0.000 C 
BRANCH   4   5
ATOM      5  C   UNL     1      49.284   4.549  17.745  0.00  0.00    +0.000 C 
ATOM      6  O   UNL     1      48.354   4.003  18.339  0.00  0.00    +0.000 OA
BRANCH   5   7
ATOM      7  C   UNL     1      50.677   4.212  18.055  0.00  0.00    +0.000 A 
ATOM      8  C   UNL     1      51.541   5.076  18.707  0.00  0.00    +0.000 A 
ATOM      9  S   UNL     1      53.056   4.367  19.058  0.00  0.00    +0.000 S 
ATOM     10  C   UNL     1      52.602   2.893  18.339  0.00  0.00    +0.000 A 
ATOM     11  N   UNL     1      53.436   1.821  18.340  0.00  0.00    +0.000 NA
ATOM     12  C   UNL     1      52.946   0.766  17.776  0.00  0.00    +0.000 A 
ATOM     13  N   UNL     1      51.712   0.697  17.178  0.00  0.00    +0.000 N 
ATOM     14  C   UNL     1      50.899   1.802  17.022  0.00  0.00    +0.000 A 
ATOM     15  O   UNL     1      49.964   1.802  16.231  0.00  0.00    +0.000 OA
ATOM     16  C   UNL     1      51.341   2.963  17.778  0.00  0.00    +0.000 A 
ATOM     17  H   UNL     1      51.435  -0.129  16.670  0.00  0.00    +0.000 HD
ENDBRANCH   5   7
ENDBRANCH   4   5
ENDBRANCH   1   4
BRANCH   1  18
ATOM     18  C   UNL     1      47.877   5.908  14.515  0.00  0.00    +0.000 C 
BRANCH  18  19
ATOM     19  C   UNL     1      46.890   5.293  13.571  0.00  0.00    +0.000 A 
ATOM     20  C   UNL     1      46.302   6.037  12.546  0.00  0.00    +0.000 A 
ATOM     21  C   UNL     1      45.411   5.425  11.676  0.00  0.00    +0.000 A 
ATOM     22  C   UNL     1      45.133   4.070  11.845  0.00  0.00    +0.000 A 
ATOM     23  N   UNL     1      45.690   3.322  12.833  0.00  0.00    +0.000 NA
ATOM     24  C   UNL     1      46.542   3.953  13.672  0.00  0.00    +0.000 A 
BRANCH  22  25
ATOM     25  C   UNL     1      44.261   3.339  10.845  0.00  0.00    +0.000 C 
BRANCH  25  26
ATOM     26  O   UNL     1      42.947   3.231  11.412  0.00  0.00    +0.000 OA
ATOM     27  H   UNL     1      42.402   2.855  10.694  0.00  0.00    +0.000 HD
ENDBRANCH  25  26
BRANCH  25  28
ATOM     28  C   UNL     1      44.202   4.086   9.486  0.00  0.00    +0.000 C 
BRANCH  28  29
ATOM     29  N   UNL     1      44.554   3.235   8.332  0.00  0.00    +0.000 NA
ATOM     30  C   UNL     1      44.765   1.825   8.669  0.00  0.00    +0.000 C 
ATOM     31  C   UNL     1      46.218   1.534   8.360  0.00  0.00    +0.000 C 
ATOM     32  C   UNL     1      46.533   2.495   7.237  0.00  0.00    +0.000 C 
ATOM     33  C   UNL     1      45.721   3.729   7.594  0.00  0.00    +0.000 C 
ENDBRANCH  28  29
ENDBRANCH  25  28
ENDBRANCH  22  25
ENDBRANCH  18  19
ENDBRANCH   1  18
TORSDOF 9
ENDMDL
MODEL 2
REMARK VINA RESULT:    -7.668      2.898      8.773
REMARK INTER + INTRA:         -12.411
REMARK INTER:                 -11.316
REMARK INTRA:                  -1.094
REMARK UNBOUND:                -0.932
REMARK  Name = 
REMARK  10 active torsions:
REMARK  status: ('A' for Active; 'I' for Inactive)
REMARK    1  A    between atoms: C_1  and  C_2
REMARK    2  A    between atoms: C_2  and  N_3
REMARK    3  A    between atoms: C_2  and  C_19
REMARK    4  A    between atoms: N_3  and  C_4
REMARK    5  A    between atoms: C_4  and  C_5
REMARK    6  A    between atoms: C_8  and  C_9
REMARK    7  A    between atoms: C_9  and  O_10
REMARK    8  A    between atoms: C_9  and  C_11
REMARK    9  A    between atoms: C_11  and  N_12
REMARK   10  A    between atoms: C_19  and  C_21
REMARK                            x       y       z     vdW  Elec       q    Type
REMARK                         _______ _______ _______ _____ _____    ______ ____
ROOT
ATOM      1  N   UNL     1      46.971   6.597  11.890  0.00  0.00    +0.000 NA
ATOM      2  H   UNL     1      46.835   5.582  11.843  0.00  0.00    +0.000 HD
ENDROOT
BRANCH   1   4
ATOM      3  C   UNL     1      45.884   8.716  12.338  0.00  0.00    +0.000 C 
ATOM      4  C   UNL     1      45.757   7.201  12.478  0.00  0.00    +0.000 C 
BRANCH   4   5
ATOM      5  C   UNL     1      44.491   6.697  11.743  0.00  0.00    +0.000 C 
ATOM      6  O   UNL     1      43.678   7.497  11.276  0.00  0.00    +0.000 OA
BRANCH   5   7
ATOM      7  C   UNL     1      44.281   5.251  11.619  0.00  0.00    +0.000 A 
ATOM      8  C   UNL     1      43.701   4.479  12.611  0.00  0.00    +0.000 A 
ATOM      9  S   UNL     1      43.456   2.855  12.138  0.00  0.00    +0.000 S 
ATOM     10  C   UNL     1      44.128   3.139  10.600  0.00  0.00    +0.000 A 
ATOM     11  N   UNL     1      44.180   2.158   9.661  0.00  0.00    +0.000 NA
ATOM     12  C   UNL     1      44.697   2.527   8.536  0.00  0.00    +0.000 A 
ATOM     13  N   UNL     1      45.203   3.776   8.276  0.00  0.00    +0.000 N 
ATOM     14  C   UNL     1      45.308   4.752   9.248  0.00  0.00    +0.000 A 
ATOM     15  O   UNL     1      46.028   5.731   9.097  0.00  0.00    +0.000 OA
ATOM     16  C   UNL     1      44.596   4.433  10.475  0.00  0.00    +0.000 A 
ATOM     17  H   UNL     1      45.682   3.965   7.410  0.00  0.00    +0.000 HD
ENDBRANCH   5   7
ENDBRANCH   4   5
ENDBRANCH   1   4
BRANCH   1  18
ATOM     18  C   UNL     1      48.155   6.855  12.709  0.00  0.00    +0.000 C 
BRANCH  18  19
ATOM     19  C   UNL     1      48.044   6.143  14.022  0.00  0.00    +0.000 A 
ATOM     20  C   UNL     1      48.611   6.668  15.185  0.00  0.00    +0.000 A 
ATOM     21  C   UNL     1      48.465   5.991  16.389  0.00  0.00    +0.000 A 
ATOM     22  C   UNL     1      47.741   4.800  16.403  0.00  0.00    +0.000 A 
ATOM     23  N   UNL     1      47.179   4.266  15.287  0.00  0.00    +0.000 NA
ATOM     24  C   UNL     1      47.353   4.943  14.131  0.00  0.00    +0.000 A 
BRANCH  22  25
ATOM     25  C   UNL     1      47.457   4.096  17.715  0.00  0.00    +0.000 C 
BRANCH  25  26
ATOM     26  O   UNL     1      46.596   2.983  17.433  0.00  0.00    +0.000 OA
ATOM     27  H   UNL     1      45.704   3.374  17.375  0.00  0.00    +0.000 HD
ENDBRANCH  25  26
BRANCH  25  28
ATOM     28  C   UNL     1      48.764   3.609  18.395  0.00  0.00    +0.000 C 
BRANCH  28  29
ATOM     29  N   UNL     1      49.876   3.396  17.447  0.00  0.00    +0.000 NA
ATOM     30  C   UNL     1      49.976   2.026  16.939  0.00  0.00    +0.000 C 
ATOM     31  C   UNL     1      51.302   1.491  17.438  0.00  0.00    +0.000 C 
ATOM     32  C   UNL     1      52.159   2.732  17.543  0.00  0.00    +0.000 C 
ATOM     33  C   UNL     1      51.176   3.799  17.994  0.00  0.00    +0.000 C 
ENDBRANCH  28  29
ENDBRANCH  25  28
ENDBRANCH  22  25
ENDBRANCH  18  19
ENDBRANCH   1  18
TORSDOF 9
ENDMDL
MODEL 3
REMARK VINA RESULT:    -7.353      3.061      3.798
REMARK INTER + INTRA:         -11.939
REMARK INTER:                 -10.618
REMARK INTRA:                  -1.321
REMARK UNBOUND:                -0.932
REMARK  Name = 
REMARK  10 active torsions:
REMARK  status: ('A' for Active; 'I' for Inactive)
REMARK    1  A    between atoms: C_1  and  C_2
REMARK    2  A    between atoms: C_2  and  N_3
REMARK    3  A    between atoms: C_2  and  C_19
REMARK    4  A    between atoms: N_3  and  C_4
REMARK    5  A    between atoms: C_4  and  C_5
REMARK    6  A    between atoms: C_8  and  C_9
REMARK    7  A    between atoms: C_9  and  O_10
REMARK    8  A    between atoms: C_9  and  C_11
REMARK    9  A    between atoms: C_11  and  N_12
REMARK   10  A    between atoms: C_19  and  C_21
REMARK                            x       y       z     vdW  Elec       q    Type
REMARK                         _______ _______ _______ _____ _____    ______ ____
ROOT
ATOM      1  N   UNL     1      48.797   6.486  13.865  0.00  0.00    +0.000 NA
ATOM      2  H   UNL     1      49.094   6.145  12.946  0.00  0.00    +0.000 HD
ENDROOT
BRANCH   1   4
ATOM      3  C   UNL     1      48.704   8.842  14.430  0.00  0.00    +0.000 C 
ATOM      4  C   UNL     1      49.636   7.651  14.220  0.00  0.00    +0.000 C 
BRANCH   4   5
ATOM      5  C   UNL     1      50.441   7.365  15.512  0.00  0.00    +0.000 C 
ATOM      6  O   UNL     1      51.609   6.981  15.449  0.00  0.00    +0.000 OA
BRANCH   5   7
ATOM      7  C   UNL     1      49.781   7.561  16.807  0.00  0.00    +0.000 A 
ATOM      8  C   UNL     1      49.989   8.674  17.605  0.00  0.00    +0.000 A 
ATOM      9  S   UNL     1      48.985   8.702  18.988  0.00  0.00    +0.000 S 
ATOM     10  C   UNL     1      48.256   7.223  18.563  0.00  0.00    +0.000 A 
ATOM     11  N   UNL     1      47.255   6.690  19.311  0.00  0.00    +0.000 NA
ATOM     12  C   UNL     1      46.786   5.576  18.853  0.00  0.00    +0.000 A 
ATOM     13  N   UNL     1      47.251   4.928  17.736  0.00  0.00    +0.000 N 
ATOM     14  C   UNL     1      48.362   5.357  17.037  0.00  0.00    +0.000 A 
ATOM     15  O   UNL     1      48.947   4.622  16.251  0.00  0.00    +0.000 OA
ATOM     16  C   UNL     1      48.818   6.683  17.422  0.00  0.00    +0.000 A 
ATOM     17  H   UNL     1      46.905   4.013  17.494  0.00  0.00    +0.000 HD
ENDBRANCH   5   7
ENDBRANCH   4   5
ENDBRANCH   1   4
BRANCH   1  18
ATOM     18  C   UNL     1      47.382   6.846  13.776  0.00  0.00    +0.000 C 
BRANCH  18  19
ATOM     19  C   UNL     1      46.625   5.793  13.026  0.00  0.00    +0.000 A 
ATOM     20  C   UNL     1      46.579   4.471  13.474  0.00  0.00    +0.000 A 
ATOM     21  C   UNL     1      45.847   3.529  12.765  0.00  0.00    +0.000 A 
ATOM     22  C   UNL     1      45.163   3.936  11.621  0.00  0.00    +0.000 A 
ATOM     23  N   UNL     1      45.191   5.214  11.161  0.00  0.00    +0.000 NA
ATOM     24  C   UNL     1      45.925   6.102  11.867  0.00  0.00    +0.000 A 
BRANCH  22  25
ATOM     25  C   UNL     1      44.257   2.966  10.889  0.00  0.00    +0.000 C 
BRANCH  25  26
ATOM     26  O   UNL     1      42.908   3.243  11.292  0.00  0.00    +0.000 OA
ATOM     27  H   UNL     1      42.762   2.668  12.067  0.00  0.00    +0.000 HD
ENDBRANCH  25  26
BRANCH  25  28
ATOM     28  C   UNL     1      44.399   3.104   9.350  0.00  0.00    +0.000 C 
BRANCH  28  29
ATOM     29  N   UNL     1      45.782   2.917   8.868  0.00  0.00    +0.000 NA
ATOM     30  C   UNL     1      46.203   3.895   7.863  0.00  0.00    +0.000 C 
ATOM     31  C   UNL     1      46.462   3.108   6.595  0.00  0.00    +0.000 C 
ATOM     32  C   UNL     1      46.885   1.751   7.111  0.00  0.00    +0.000 C 
ATOM     33  C   UNL     1      46.029   1.566   8.353  0.00  0.00    +0.000 C 
ENDBRANCH  28  29
ENDBRANCH  25  28
ENDBRANCH  22  25
ENDBRANCH  18  19
ENDBRANCH   1  18
TORSDOF 9
ENDMDL
MODEL 4
REMARK VINA RESULT:    -7.222      2.593      4.075
REMARK INTER + INTRA:         -11.742
REMARK INTER:                 -10.935
REMARK INTRA:                  -0.807
REMARK UNBOUND:                -0.932
REMARK  Name = 
REMARK  10 active torsions:
REMARK  status: ('A' for Active; 'I' for Inactive)
REMARK    1  A    between atoms: C_1  and  C_2
REMARK    2  A    between atoms: C_2  and  N_3
REMARK    3  A    between atoms: C_2  and  C_19
REMARK    4  A    between atoms: N_3  and  C_4
REMARK    5  A    between atoms: C_4  and  C_5
REMARK    6  A    between atoms: C_8  and  C_9
REMARK    7  A    between atoms: C_9  and  O_10
REMARK    8  A    between atoms: C_9  and  C_11
REMARK    9  A    between atoms: C_11  and  N_12
REMARK   10  A    between atoms: C_19  and  C_21
REMARK                            x       y       z     vdW  Elec       q    Type
REMARK                         _______ _______ _______ _____ _____    ______ ____
ROOT
ATOM      1  N   UNL     1      47.863   3.547  15.303  0.00  0.00    +0.000 NA
ATOM      2  H   UNL     1      48.715   3.629  14.740  0.00  0.00    +0.000 HD
ENDROOT
BRANCH   1   4
ATOM      3  C   UNL     1      48.909   2.017  16.865  0.00  0.00    +0.000 C 
ATOM      4  C   UNL     1      48.256   3.390  16.719  0.00  0.00    +0.000 C 
BRANCH   4   5
ATOM      5  C   UNL     1      49.249   4.503  17.134  0.00  0.00    +0.000 C 
ATOM      6  O   UNL     1      50.464   4.337  17.012  0.00  0.00    +0.000 OA
BRANCH   5   7
ATOM      7  C   UNL     1      48.711   5.757  17.674  0.00  0.00    +0.000 A 
ATOM      8  C   UNL     1      47.929   5.818  18.815  0.00  0.00    +0.000 A 
ATOM      9  S   UNL     1      47.561   7.418  19.288  0.00  0.00    +0.000 S 
ATOM     10  C   UNL     1      48.428   8.070  17.975  0.00  0.00    +0.000 A 
ATOM     11  N   UNL     1      48.557   9.412  17.812  0.00  0.00    +0.000 NA
ATOM     12  C   UNL     1      49.259   9.757  16.783  0.00  0.00    +0.000 A 
ATOM     13  N   UNL     1      49.812   8.882  15.881  0.00  0.00    +0.000 N 
ATOM     14  C   UNL     1      49.578   7.522  15.926  0.00  0.00    +0.000 A 
ATOM     15  O   UNL     1      49.809   6.801  14.963  0.00  0.00    +0.000 OA
ATOM     16  C   UNL     1      48.930   7.082  17.151  0.00  0.00    +0.000 A 
ATOM     17  H   UNL     1      50.263   9.224  15.047  0.00  0.00    +0.000 HD
ENDBRANCH   5   7
ENDBRANCH   4   5
ENDBRANCH   1   4
BRANCH   1  18
ATOM     18  C   UNL     1      47.067   4.757  15.094  0.00  0.00    +0.000 C 
BRANCH  18  19
ATOM     19  C   UNL     1      46.317   4.668  13.800  0.00  0.00    +0.000 A 
ATOM     20  C   UNL     1      45.841   5.811  13.155  0.00  0.00    +0.000 A 
ATOM     21  C   UNL     1      45.172   5.689  11.944  0.00  0.00    +0.000 A 
ATOM     22  C   UNL     1      45.001   4.419  11.399  0.00  0.00    +0.000 A 
ATOM     23  N   UNL     1      45.453   3.290  12.005  0.00  0.00    +0.000 NA
ATOM     24  C   UNL     1      46.087   3.443  13.189  0.00  0.00    +0.000 A 
BRANCH  22  25
ATOM     25  C   UNL     1      44.384   4.255  10.025  0.00  0.00    +0.000 C 
BRANCH  25  26
ATOM     26  O   UNL     1      43.366   5.257   9.884  0.00  0.00    +0.000 OA
ATOM     27  H   UNL     1      43.731   6.041  10.336  0.00  0.00    +0.000 HD
ENDBRANCH  25  26
BRANCH  25  28
ATOM     28  C   UNL     1      45.444   4.402   8.902  0.00  0.00    +0.000 C 
BRANCH  28  29
ATOM     29  N   UNL     1      45.373   3.336   7.883  0.00  0.00    +0.000 NA
ATOM     30  C   UNL     1      45.523   1.982   8.422  0.00  0.00    +0.000 C 
ATOM     31  C   UNL     1      46.796   1.429   7.816  0.00  0.00    +0.000 C 
ATOM     32  C   UNL     1      46.885   2.142   6.486  0.00  0.00    +0.000 C 
ATOM     33  C   UNL     1      46.335   3.525   6.792  0.00  0.00    +0.000 C 
ENDBRANCH  28  29
ENDBRANCH  25  28
ENDBRANCH  22  25
ENDBRANCH  18  19
ENDBRANCH   1  18
TORSDOF 9
ENDMDL
MODEL 5
REMARK VINA RESULT:    -6.881      2.128      2.810
REMARK INTER + INTRA:         -11.232
REMARK INTER:                  -9.897
REMARK INTRA:                  -1.335
REMARK UNBOUND:                -0.932
REMARK  Name = 
REMARK  10 active torsions:
REMARK  status: ('A' for Active; 'I' for Inactive)
REMARK    1  A    between atoms: C_1  and  C_2
REMARK    2  A    between atoms: C_2  and  N_3
REMARK    3  A    between atoms: C_2  and  C_19
REMARK    4  A    between atoms: N_3  and  C_4
REMARK    5  A    between atoms: C_4  and  C_5
REMARK    6  A    between atoms: C_8  and  C_9
REMARK    7  A    between atoms: C_9  and  O_10
REMARK    8  A    between atoms: C_9  and  C_11
REMARK    9  A    between atoms: C_11  and  N_12
REMARK   10  A    between atoms: C_19  and  C_21
REMARK                            x       y       z     vdW  Elec       q    Type
REMARK                         _______ _______ _______ _____ _____    ______ ____
ROOT
ATOM      1  N   UNL     1      49.869   6.617  15.335  0.00  0.00    +0.000 NA
ATOM      2  H   UNL     1      50.746   6.447  14.833  0.00  0.00    +0.000 HD
ENDROOT
BRANCH   1   4
ATOM      3  C   UNL     1      49.811   8.590  16.741  0.00  0.00    +0.000 C 
ATOM      4  C   UNL     1      50.197   7.114  16.688  0.00  0.00    +0.000 C 
BRANCH   4   5
ATOM      5  C   UNL     1      49.419   6.316  17.763  0.00  0.00    +0.000 C 
ATOM      6  O   UNL     1      48.961   6.883  18.755  0.00  0.00    +0.000 OA
BRANCH   5   7
ATOM      7  C   UNL     1      49.243   4.872  17.572  0.00  0.00    +0.000 A 
ATOM      8  C   UNL     1      48.036   4.295  17.216  0.00  0.00    +0.000 A 
ATOM      9  S   UNL     1      48.157   2.614  16.929  0.00  0.00    +0.000 S 
ATOM     10  C   UNL     1      49.822   2.612  17.284  0.00  0.00    +0.000 A 
ATOM     11  N   UNL     1      50.564   1.479  17.180  0.00  0.00    +0.000 NA
ATOM     12  C   UNL     1      51.816   1.637  17.461  0.00  0.00    +0.000 A 
ATOM     13  N   UNL     1      52.386   2.816  17.873  0.00  0.00    +0.000 N 
ATOM     14  C   UNL     1      51.641   3.949  18.136  0.00  0.00    +0.000 A 
ATOM     15  O   UNL     1      52.101   4.879  18.787  0.00  0.00    +0.000 OA
ATOM     16  C   UNL     1      50.263   3.860  17.683  0.00  0.00    +0.000 A 
ATOM     17  H   UNL     1      53.349   2.842  18.171  0.00  0.00    +0.000 HD
ENDBRANCH   5   7
ENDBRANCH   4   5
ENDBRANCH   1   4
BRANCH   1  18
ATOM     18  C   UNL     1      49.096   7.596  14.572  0.00  0.00    +0.000 C 
BRANCH  18  19
ATOM     19  C   UNL     1      47.862   6.959  14.009  0.00  0.00    +0.000 A 
ATOM     20  C   UNL     1      47.607   5.596  14.174  0.00  0.00    +0.000 A 
ATOM     21  C   UNL     1      46.440   5.047  13.659  0.00  0.00    +0.000 A 
ATOM     22  C   UNL     1      45.544   5.882  12.996  0.00  0.00    +0.000 A 
ATOM     23  N   UNL     1      45.766   7.211  12.820  0.00  0.00    +0.000 NA
ATOM     24  C   UNL     1      46.918   7.710  13.320  0.00  0.00    +0.000 A 
BRANCH  22  25
ATOM     25  C   UNL     1      44.206   5.346  12.526  0.00  0.00    +0.000 C 
BRANCH  25  26
ATOM     26  O   UNL     1      43.193   5.901  13.377  0.00  0.00    +0.000 OA
ATOM     27  H   UNL     1      42.712   5.126  13.722  0.00  0.00    +0.000 HD
ENDBRANCH  25  26
BRANCH  25  28
ATOM     28  C   UNL     1      43.931   5.716  11.046  0.00  0.00    +0.000 C 
BRANCH  28  29
ATOM     29  N   UNL     1      43.596   4.552  10.201  0.00  0.00    +0.000 NA
ATOM     30  C   UNL     1      43.698   3.263  10.889  0.00  0.00    +0.000 C 
ATOM     31  C   UNL     1      44.799   2.499  10.185  0.00  0.00    +0.000 C 
ATOM     32  C   UNL     1      44.743   3.034   8.772  0.00  0.00    +0.000 C 
ATOM     33  C   UNL     1      44.385   4.498   8.966  0.00  0.00    +0.000 C 
ENDBRANCH  28  29
ENDBRANCH  25  28
ENDBRANCH  22  25
ENDBRANCH  18  19
ENDBRANCH   1  18
TORSDOF 9
ENDMDL
MODEL 6
REMARK VINA RESULT:    -6.841      2.030      2.671
REMARK INTER + INTRA:         -11.172
REMARK INTER:                 -10.120
REMARK INTRA:                  -1.052
REMARK UNBOUND:                -0.932
REMARK  Name = 
REMARK  10 active torsions:
REMARK  status: ('A' for Active; 'I' for Inactive)
REMARK    1  A    between atoms: C_1  and  C_2
REMARK    2  A    between atoms: C_2  and  N_3
REMARK    3  A    between atoms: C_2  and  C_19
REMARK    4  A    between atoms: N_3  and  C_4
REMARK    5  A    between atoms: C_4  and  C_5
REMARK    6  A    between atoms: C_8  and  C_9
REMARK    7  A    between atoms: C_9  and  O_10
REMARK    8  A    between atoms: C_9  and  C_11
REMARK    9  A    between atoms: C_11  and  N_12
REMARK   10  A    between atoms: C_19  and  C_21
REMARK                            x       y       z     vdW  Elec       q    Type
REMARK                         _______ _______ _______ _____ _____    ______ ____
ROOT
ATOM      1  N   UNL     1      48.950   6.233  13.735  0.00  0.00    +0.000 NA
ATOM      2  H   UNL     1      48.919   6.178  12.713  0.00  0.00    +0.000 HD
ENDROOT
BRANCH   1   4
ATOM      3  C   UNL     1      48.517   8.616  13.816  0.00  0.00    +0.000 C 
ATOM      4  C   UNL     1      49.549   7.531  14.113  0.00  0.00    +0.000 C 
BRANCH   4   5
ATOM      5  C   UNL     1      49.921   7.540  15.616  0.00  0.00    +0.000 C 
ATOM      6  O   UNL     1      49.193   8.097  16.438  0.00  0.00    +0.000 OA
BRANCH   5   7
ATOM      7  C   UNL     1      51.158   6.871  16.035  0.00  0.00    +0.000 A 
ATOM      8  C   UNL     1      52.421   7.350  15.729  0.00  0.00    +0.000 A 
ATOM      9  S   UNL     1      53.673   6.448  16.464  0.00  0.00    +0.000 S 
ATOM     10  C   UNL     1      52.561   5.389  17.200  0.00  0.00    +0.000 A 
ATOM     11  N   UNL     1      52.975   4.393  18.026  0.00  0.00    +0.000 NA
ATOM     12  C   UNL     1      52.017   3.685  18.526  0.00  0.00    +0.000 A 
ATOM     13  N   UNL     1      50.685   3.858  18.247  0.00  0.00    +0.000 N 
ATOM     14  C   UNL     1      50.235   4.757  17.299  0.00  0.00    +0.000 A 
ATOM     15  O   UNL     1      49.101   4.688  16.840  0.00  0.00    +0.000 OA
ATOM     16  C   UNL     1      51.260   5.676  16.834  0.00  0.00    +0.000 A 
ATOM     17  H   UNL     1      49.999   3.205  18.595  0.00  0.00    +0.000 HD
ENDBRANCH   5   7
ENDBRANCH   4   5
ENDBRANCH   1   4
BRANCH   1  18
ATOM     18  C   UNL     1      47.582   6.102  14.235  0.00  0.00    +0.000 C 
BRANCH  18  19
ATOM     19  C   UNL     1      46.762   5.273  13.294  0.00  0.00    +0.000 A 
ATOM     20  C   UNL     1      46.534   3.916  13.531  0.00  0.00    +0.000 A 
ATOM     21  C   UNL     1      45.748   3.186  12.650  0.00  0.00    +0.000 A 
ATOM     22  C   UNL     1      45.197   3.837  11.548  0.00  0.00    +0.000 A 
ATOM     23  N   UNL     1      45.404   5.155  11.292  0.00  0.00    +0.000 NA
ATOM     24  C   UNL     1      46.185   5.832  12.163  0.00  0.00    +0.000 A 
BRANCH  22  25
ATOM     25  C   UNL     1      44.239   3.106  10.630  0.00  0.00    +0.000 C 
BRANCH  25  26
ATOM     26  O   UNL     1      42.905   3.474  11.012  0.00  0.00    +0.000 OA
ATOM     27  H   UNL     1      43.027   4.203  11.650  0.00  0.00    +0.000 HD
ENDBRANCH  25  26
BRANCH  25  28
ATOM     28  C   UNL     1      44.491   3.460   9.141  0.00  0.00    +0.000 C 
BRANCH  28  29
ATOM     29  N   UNL     1      45.852   3.123   8.680  0.00  0.00    +0.000 NA
ATOM     30  C   UNL     1      46.303   3.903   7.525  0.00  0.00    +0.000 C 
ATOM     31  C   UNL     1      46.495   2.909   6.398  0.00  0.00    +0.000 C 
ATOM     32  C   UNL     1      46.856   1.632   7.120  0.00  0.00    +0.000 C 
ATOM     33  C   UNL     1      46.018   1.695   8.386  0.00  0.00    +0.000 C 
ENDBRANCH  28  29
ENDBRANCH  25  28
ENDBRANCH  22  25
ENDBRANCH  18  19
ENDBRANCH   1  18
TORSDOF 9
ENDMDL
MODEL 7
REMARK VINA RESULT:    -6.787      3.154      9.708
REMARK INTER + INTRA:         -11.092
REMARK INTER:                  -9.690
REMARK INTRA:                  -1.402
REMARK UNBOUND:                -0.932
REMARK  Name = 
REMARK  10 active torsions:
REMARK  status: ('A' for Active; 'I' for Inactive)
REMARK    1  A    between atoms: C_1  and  C_2
REMARK    2  A    between atoms: C_2  and  N_3
REMARK    3  A    between atoms: C_2  and  C_19
REMARK    4  A    between atoms: N_3  and  C_4
REMARK    5  A    between atoms: C_4  and  C_5
REMARK    6  A    between atoms: C_8  and  C_9
REMARK    7  A    between atoms: C_9  and  O_10
REMARK    8  A    between atoms: C_9  and  C_11
REMARK    9  A    between atoms: C_11  and  N_12
REMARK   10  A    between atoms: C_19  and  C_21
REMARK                            x       y       z     vdW  Elec       q    Type
REMARK                         _______ _______ _______ _____ _____    ______ ____
ROOT
ATOM      1  N   UNL     1      47.878   4.278  15.365  0.00  0.00    +0.000 NA
ATOM      2  H   UNL     1      47.087   3.700  15.067  0.00  0.00    +0.000 HD
ENDROOT
BRANCH   1   4
ATOM      3  C   UNL     1      48.634   6.556  15.702  0.00  0.00    +0.000 C 
ATOM      4  C   UNL     1      47.581   5.685  15.021  0.00  0.00    +0.000 C 
BRANCH   4   5
ATOM      5  C   UNL     1      47.625   5.889  13.487  0.00  0.00    +0.000 C 
ATOM      6  O   UNL     1      48.701   5.894  12.886  0.00  0.00    +0.000 OA
BRANCH   5   7
ATOM      7  C   UNL     1      46.360   6.075  12.768  0.00  0.00    +0.000 A 
ATOM      8  C   UNL     1      45.839   7.320  12.459  0.00  0.00    +0.000 A 
ATOM      9  S   UNL     1      44.428   7.234  11.498  0.00  0.00    +0.000 S 
ATOM     10  C   UNL     1      44.471   5.533  11.480  0.00  0.00    +0.000 A 
ATOM     11  N   UNL     1      43.557   4.811  10.779  0.00  0.00    +0.000 NA
ATOM     12  C   UNL     1      43.729   3.532  10.842  0.00  0.00    +0.000 A 
ATOM     13  N   UNL     1      44.709   2.907  11.572  0.00  0.00    +0.000 N 
ATOM     14  C   UNL     1      45.560   3.594  12.416  0.00  0.00    +0.000 A 
ATOM     15  O   UNL     1      46.207   3.016  13.280  0.00  0.00    +0.000 OA
ATOM     16  C   UNL     1      45.504   5.037  12.252  0.00  0.00    +0.000 A 
ATOM     17  H   UNL     1      44.723   1.902  11.656  0.00  0.00    +0.000 HD
ENDBRANCH   5   7
ENDBRANCH   4   5
ENDBRANCH   1   4
BRANCH   1  18
ATOM     18  C   UNL     1      48.050   4.098  16.806  0.00  0.00    +0.000 C 
BRANCH  18  19
ATOM     19  C   UNL     1      49.361   3.431  17.094  0.00  0.00    +0.000 A 
ATOM     20  C   UNL     1      50.391   4.105  17.752  0.00  0.00    +0.000 A 
ATOM     21  C   UNL     1      51.583   3.446  18.022  0.00  0.00    +0.000 A 
ATOM     22  C   UNL     1      51.713   2.114  17.634  0.00  0.00    +0.000 A 
ATOM     23  N   UNL     1      50.728   1.434  16.992  0.00  0.00    +0.000 NA
ATOM     24  C   UNL     1      49.587   2.110  16.732  0.00  0.00    +0.000 A 
BRANCH  22  25
ATOM     25  C   UNL     1      52.949   1.325  18.018  0.00  0.00    +0.000 C 
BRANCH  25  26
ATOM     26  O   UNL     1      52.753  -0.029  17.583  0.00  0.00    +0.000 OA
ATOM     27  H   UNL     1      52.179   0.048  16.797  0.00  0.00    +0.000 HD
ENDBRANCH  25  26
BRANCH  25  28
ATOM     28  C   UNL     1      54.228   1.919  17.372  0.00  0.00    +0.000 C 
BRANCH  28  29
ATOM     29  N   UNL     1      55.143   2.543  18.348  0.00  0.00    +0.000 NA
ATOM     30  C   UNL     1      54.793   2.288  19.747  0.00  0.00    +0.000 C 
ATOM     31  C   UNL     1      54.453   3.636  20.347  0.00  0.00    +0.000 C 
ATOM     32  C   UNL     1      55.300   4.596  19.542  0.00  0.00    +0.000 C 
ATOM     33  C   UNL     1      55.289   3.989  18.149  0.00  0.00    +0.000 C 
ENDBRANCH  28  29
ENDBRANCH  25  28
ENDBRANCH  22  25
ENDBRANCH  18  19
ENDBRANCH   1  18
TORSDOF 9
ENDMDL
MODEL 8
REMARK VINA RESULT:    -6.672      3.300      4.440
REMARK INTER + INTRA:         -10.920
REMARK INTER:                  -9.613
REMARK INTRA:                  -1.307
REMARK UNBOUND:                -0.932
REMARK  Name = 
REMARK  10 active torsions:
REMARK  status: ('A' for Active; 'I' for Inactive)
REMARK    1  A    between atoms: C_1  and  C_2
REMARK    2  A    between atoms: C_2  and  N_3
REMARK    3  A    between atoms: C_2  and  C_19
REMARK    4  A    between atoms: N_3  and  C_4
REMARK    5  A    between atoms: C_4  and  C_5
REMARK    6  A    between atoms: C_8  and  C_9
REMARK    7  A    between atoms: C_9  and  O_10
REMARK    8  A    between atoms: C_9  and  C_11
REMARK    9  A    between atoms: C_11  and  N_12
REMARK   10  A    between atoms: C_19  and  C_21
REMARK                            x       y       z     vdW  Elec       q    Type
REMARK                         _______ _______ _______ _____ _____    ______ ____
ROOT
ATOM      1  N   UNL     1      47.444   7.959  13.489  0.00  0.00    +0.000 NA
ATOM      2  H   UNL     1      47.807   7.020  13.298  0.00  0.00    +0.000 HD
ENDROOT
BRANCH   1   4
ATOM      3  C   UNL     1      47.440  10.015  12.206  0.00  0.00    +0.000 C 
ATOM      4  C   UNL     1      48.329   8.941  12.827  0.00  0.00    +0.000 C 
BRANCH   4   5
ATOM      5  C   UNL     1      49.300   9.574  13.854  0.00  0.00    +0.000 C 
ATOM      6  O   UNL     1      48.966  10.567  14.501  0.00  0.00    +0.000 OA
BRANCH   5   7
ATOM      7  C   UNL     1      50.623   8.966  14.036  0.00  0.00    +0.000 A 
ATOM      8  C   UNL     1      51.747   9.372  13.338  0.00  0.00    +0.000 A 
ATOM      9  S   UNL     1      53.174   8.585  13.853  0.00  0.00    +0.000 S 
ATOM     10  C   UNL     1      52.324   7.673  15.013  0.00  0.00    +0.000 A 
ATOM     11  N   UNL     1      52.969   6.819  15.849  0.00  0.00    +0.000 NA
ATOM     12  C   UNL     1      52.196   6.213  16.689  0.00  0.00    +0.000 A 
ATOM     13  N   UNL     1      50.832   6.356  16.745  0.00  0.00    +0.000 N 
ATOM     14  C   UNL     1      50.124   7.096  15.818  0.00  0.00    +0.000 A 
ATOM     15  O   UNL     1      48.913   6.969  15.688  0.00  0.00    +0.000 OA
ATOM     16  C   UNL     1      50.965   7.915  14.960  0.00  0.00    +0.000 A 
ATOM     17  H   UNL     1      50.281   5.777  17.360  0.00  0.00    +0.000 HD
ENDBRANCH   5   7
ENDBRANCH   4   5
ENDBRANCH   1   4
BRANCH   1  18
ATOM     18  C   UNL     1      46.077   8.028  12.973  0.00  0.00    +0.000 C 
BRANCH  18  19
ATOM     19  C   UNL     1      45.654   6.692  12.443  0.00  0.00    +0.000 A 
ATOM     20  C   UNL     1      46.075   5.504  13.045  0.00  0.00    +0.000 A 
ATOM     21  C   UNL     1      45.642   4.286  12.540  0.00  0.00    +0.000 A 
ATOM     22  C   UNL     1      44.783   4.284  11.442  0.00  0.00    +0.000 A 
ATOM     23  N   UNL     1      44.359   5.423  10.836  0.00  0.00    +0.000 NA
ATOM     24  C   UNL     1      44.811   6.591  11.344  0.00  0.00    +0.000 A 
BRANCH  22  25
ATOM     25  C   UNL     1      44.194   2.982  10.938  0.00  0.00    +0.000 C 
BRANCH  25  26
ATOM     26  O   UNL     1      42.817   2.943  11.342  0.00  0.00    +0.000 OA
ATOM     27  H   UNL     1      42.845   3.033  12.314  0.00  0.00    +0.000 HD
ENDBRANCH  25  26
BRANCH  25  28
ATOM     28  C   UNL     1      44.306   2.864   9.395  0.00  0.00    +0.000 C 
BRANCH  28  29
ATOM     29  N   UNL     1      45.700   2.827   8.909  0.00  0.00    +0.000 NA
ATOM     30  C   UNL     1      46.029   3.885   7.951  0.00  0.00    +0.000 C 
ATOM     31  C   UNL     1      46.356   3.184   6.649  0.00  0.00    +0.000 C 
ATOM     32  C   UNL     1      46.901   1.848   7.102  0.00  0.00    +0.000 C 
ATOM     33  C   UNL     1      46.067   1.529   8.332  0.00  0.00    +0.000 C 
ENDBRANCH  28  29
ENDBRANCH  25  28
ENDBRANCH  22  25
ENDBRANCH  18  19
ENDBRANCH   1  18
TORSDOF 9
ENDMDL
MODEL 9
REMARK VINA RESULT:    -6.439      3.128      4.123
REMARK INTER + INTRA:         -10.571
REMARK INTER:                  -9.137
REMARK INTRA:                  -1.434
REMARK UNBOUND:                -0.932
REMARK  Name = 
REMARK  10 active torsions:
REMARK  status: ('A' for Active; 'I' for Inactive)
REMARK    1  A    between atoms: C_1  and  C_2
REMARK    2  A    between atoms: C_2  and  N_3
REMARK    3  A    between atoms: C_2  and  C_19
REMARK    4  A    between atoms: N_3  and  C_4
REMARK    5  A    between atoms: C_4  and  C_5
REMARK    6  A    between atoms: C_8  and  C_9
REMARK    7  A    between atoms: C_9  and  O_10
REMARK    8  A    between atoms: C_9  and  C_11
REMARK    9  A    between atoms: C_11  and  N_12
REMARK   10  A    between atoms: C_19  and  C_21
REMARK                            x       y       z     vdW  Elec       q    Type
REMARK                         _______ _______ _______ _____ _____    ______ ____
ROOT
ATOM      1  N   UNL     1      50.147   8.924  14.270  0.00  0.00    +0.000 NA
ATOM      2  H   UNL     1      49.306   9.375  14.642  0.00  0.00    +0.000 HD
ENDROOT
BRANCH   1   4
ATOM      3  C   UNL     1      51.825   7.678  15.497  0.00  0.00    +0.000 C 
ATOM      4  C   UNL     1      50.373   7.672  15.023  0.00  0.00    +0.000 C 
BRANCH   4   5
ATOM      5  C   UNL     1      49.413   7.587  16.234  0.00  0.00    +0.000 C 
ATOM      6  O   UNL     1      48.601   8.486  16.455  0.00  0.00    +0.000 OA
BRANCH   5   7
ATOM      7  C   UNL     1      49.494   6.414  17.112  0.00  0.00    +0.000 A 
ATOM      8  C   UNL     1      50.338   6.341  18.207  0.00  0.00    +0.000 A 
ATOM      9  S   UNL     1      50.120   4.916  19.125  0.00  0.00    +0.000 S 
ATOM     10  C   UNL     1      48.902   4.355  18.077  0.00  0.00    +0.000 A 
ATOM     11  N   UNL     1      48.244   3.191  18.319  0.00  0.00    +0.000 NA
ATOM     12  C   UNL     1      47.332   2.905  17.449  0.00  0.00    +0.000 A 
ATOM     13  N   UNL     1      47.043   3.659  16.339  0.00  0.00    +0.000 N 
ATOM     14  C   UNL     1      47.787   4.764  15.977  0.00  0.00    +0.000 A 
ATOM     15  O   UNL     1      47.724   5.236  14.848  0.00  0.00    +0.000 OA
ATOM     16  C   UNL     1      48.713   5.207  17.006  0.00  0.00    +0.000 A 
ATOM     17  H   UNL     1      46.387   3.324  15.650  0.00  0.00    +0.000 HD
ENDBRANCH   5   7
ENDBRANCH   4   5
ENDBRANCH   1   4
BRANCH   1  18
ATOM     18  C   UNL     1      49.927   8.667  12.847  0.00  0.00    +0.000 C 
BRANCH  18  19
ATOM     19  C   UNL     1      48.504   8.263  12.605  0.00  0.00    +0.000 A 
ATOM     20  C   UNL     1      47.440   9.010  13.115  0.00  0.00    +0.000 A 
ATOM     21  C   UNL     1      46.135   8.618  12.849  0.00  0.00    +0.000 A 
ATOM     22  C   UNL     1      45.923   7.485  12.066  0.00  0.00    +0.000 A 
ATOM     23  N   UNL     1      46.939   6.739  11.559  0.00  0.00    +0.000 NA
ATOM     24  C   UNL     1      48.197   7.141  11.848  0.00  0.00    +0.000 A 
BRANCH  22  25
ATOM     25  C   UNL     1      44.518   7.094  11.654  0.00  0.00    +0.000 C 
BRANCH  25  26
ATOM     26  O   UNL     1      43.892   8.256  11.089  0.00  0.00    +0.000 OA
ATOM     27  H   UNL     1      43.068   7.919  10.690  0.00  0.00    +0.000 HD
ENDBRANCH  25  26
BRANCH  25  28
ATOM     28  C   UNL     1      44.526   5.932  10.627  0.00  0.00    +0.000 C 
BRANCH  28  29
ATOM     29  N   UNL     1      43.505   4.902  10.897  0.00  0.00    +0.000 NA
ATOM     30  C   UNL     1      43.011   4.894  12.277  0.00  0.00    +0.000 C 
ATOM     31  C   UNL     1      43.421   3.558  12.861  0.00  0.00    +0.000 C 
ATOM     32  C   UNL     1      43.445   2.646  11.656  0.00  0.00    +0.000 C 
ATOM     33  C   UNL     1      43.950   3.550  10.543  0.00  0.00    +0.000 C 
ENDBRANCH  28  29
ENDBRANCH  25  28
ENDBRANCH  22  25
ENDBRANCH  18  19
ENDBRANCH   1  18
TORSDOF 9
ENDMDL
