MODEL 1
REMARK VINA RESULT:    -8.084      0.000      0.000
REMARK INTER + INTRA:         -12.127
REMARK INTER:                 -11.393
REMARK INTRA:                  -0.735
REMARK UNBOUND:                -0.735
REMARK  Name = 
REMARK  8 active torsions:
REMARK  status: ('A' for Active; 'I' for Inactive)
REMARK    1  A    between atoms: N_1  and  C_2
REMARK    2  A    between atoms: C_2  and  C_3
REMARK    3  A    between atoms: C_7  and  O_8
REMARK    4  A    between atoms: O_8  and  C_9
REMARK    5  A    between atoms: C_9  and  C_10
REMARK    6  A    between atoms: C_10  and  O_11
REMARK    7  A    between atoms: C_10  and  C_12
REMARK    8  A    between atoms: C_16  and  C_17
REMARK                            x       y       z     vdW  Elec       q    Type
REMARK                         _______ _______ _______ _____ _____    ______ ____
ROOT
ATOM      1  C   UNL     1      43.580   3.584  12.394  0.00  0.00    +0.000 C 
ENDROOT
BRANCH   1   2
ATOM      2  C   UNL     1      44.830   4.344  12.813  0.00  0.00    +0.000 A 
ATOM      3  N   UNL     1      45.789   3.684  13.485  0.00  0.00    +0.000 NA
ATOM      4  C   UNL     1      46.878   4.391  13.832  0.00  0.00    +0.000 A 
ATOM      5  C   UNL     1      47.038   5.729  13.550  0.00  0.00    +0.000 A 
ATOM      6  C   UNL     1      46.003   6.346  12.872  0.00  0.00    +0.000 A 
ATOM      7  N   UNL     1      44.884   5.660  12.504  0.00  0.00    +0.000 NA
BRANCH   6   8
ATOM      8  C   UNL     1      46.102   7.826  12.527  0.00  0.00    +0.000 C 
ATOM      9  F   UNL     1      45.119   8.245  11.675  0.00  0.00    +0.000 F 
ATOM     10  F   UNL     1      46.006   8.634  13.620  0.00  0.00    +0.000 F 
ATOM     11  F   UNL     1      47.276   8.150  11.918  0.00  0.00    +0.000 F 
ENDBRANCH   6   8
ENDBRANCH   1   2
BRANCH   1  12
ATOM     12  O   UNL     1      43.733   2.173  12.650  0.00  0.00    +0.000 OA
ATOM     13  H   UNL     1      43.423   1.722  11.841  0.00  0.00    +0.000 HD
ENDBRANCH   1  12
BRANCH   1  14
ATOM     14  C   UNL     1      43.342   3.806  10.895  0.00  0.00    +0.000 C 
BRANCH  14  15
ATOM     15  O   UNL     1      43.889   2.707  10.156  0.00  0.00    +0.000 OA
BRANCH  15  20
ATOM     16  C   UNL     1      46.517   2.044   7.723  0.00  0.00    +0.000 A 
ATOM     17  C   UNL     1      46.829   3.334   7.277  0.00  0.00    +0.000 A 
ATOM     18  C   UNL     1      46.177   4.447   7.811  0.00  0.00    +0.000 A 
ATOM     19  C   UNL     1      45.190   4.282   8.785  0.00  0.00    +0.000 A 
ATOM     20  C   UNL     1      44.856   3.005   9.234  0.00  0.00    +0.000 A 
ATOM     21  C   UNL     1      45.530   1.894   8.711  0.00  0.00    +0.000 A 
BRANCH  16  22
ATOM     22  C   UNL     1      47.190   0.840   7.116  0.00  0.00    +0.000 C 
BRANCH  22  23
ATOM     23  N   UNL     1      46.789  -0.399   7.774  0.00  0.00    +0.000 NA
ATOM     24  H   UNL     1      46.040  -0.832   7.238  0.00  0.00    +0.000 HD
ATOM     25  H   UNL     1      46.395  -0.169   8.686  0.00  0.00    +0.000 HD
ENDBRANCH  22  23
ENDBRANCH  16  22
ENDBRANCH  15  20
ENDBRANCH  14  15
ENDBRANCH   1  14
TORSDOF 8
ENDMDL
MODEL 2
REMARK VINA RESULT:    -7.626      2.357      2.889
REMARK INTER + INTRA:         -11.482
REMARK INTER:                 -10.951
REMARK INTRA:                  -0.531
REMARK UNBOUND:                -0.735
REMARK  Name = 
REMARK  8 active torsions:
REMARK  status: ('A' for Active; 'I' for Inactive)
REMARK    1  A    between atoms: N_1  and  C_2
REMARK    2  A    between atoms: C_2  and  C_3
REMARK    3  A    between atoms: C_7  and  O_8
REMARK    4  A    between atoms: O_8  and  C_9
REMARK    5  A    between atoms: C_9  and  C_10
REMARK    6  A    between atoms: C_10  and  O_11
REMARK    7  A    between atoms: C_10  and  C_12
REMARK    8  A    between atoms: C_16  and  C_17
REMARK                            x       y       z     vdW  Elec       q    Type
REMARK                         _______ _______ _______ _____ _____    ______ ____
ROOT
ATOM      1  C   UNL     1      43.734   4.514  12.391  0.00  0.00    +0.000 C 
ENDROOT
BRANCH   1   2
ATOM      2  C   UNL     1      45.082   5.006  12.899  0.00  0.00    +0.000 A 
ATOM      3  N   UNL     1      45.703   5.990  12.226  0.00  0.00    +0.000 NA
ATOM      4  C   UNL     1      46.888   6.398  12.711  0.00  0.00    +0.000 A 
ATOM      5  C   UNL     1      47.482   5.853  13.827  0.00  0.00    +0.000 A 
ATOM      6  C   UNL     1      46.794   4.833  14.457  0.00  0.00    +0.000 A 
ATOM      7  N   UNL     1      45.589   4.394  13.994  0.00  0.00    +0.000 NA
BRANCH   6   8
ATOM      8  C   UNL     1      47.387   4.176  15.696  0.00  0.00    +0.000 C 
ATOM      9  F   UNL     1      47.822   2.901  15.471  0.00  0.00    +0.000 F 
ATOM     10  F   UNL     1      48.466   4.848  16.189  0.00  0.00    +0.000 F 
ATOM     11  F   UNL     1      46.497   4.082  16.723  0.00  0.00    +0.000 F 
ENDBRANCH   6   8
ENDBRANCH   1   2
BRANCH   1  12
ATOM     12  O   UNL     1      42.726   4.645  13.415  0.00  0.00    +0.000 OA
ATOM     13  H   UNL     1      41.872   4.499  12.964  0.00  0.00    +0.000 HD
ENDBRANCH   1  12
BRANCH   1  14
ATOM     14  C   UNL     1      43.863   3.040  11.989  0.00  0.00    +0.000 C 
BRANCH  14  15
ATOM     15  O   UNL     1      43.449   2.878  10.626  0.00  0.00    +0.000 OA
BRANCH  15  20
ATOM     16  C   UNL     1      46.039   2.053   8.203  0.00  0.00    +0.000 A 
ATOM     17  C   UNL     1      46.324   3.307   7.647  0.00  0.00    +0.000 A 
ATOM     18  C   UNL     1      45.667   4.451   8.102  0.00  0.00    +0.000 A 
ATOM     19  C   UNL     1      44.701   4.353   9.106  0.00  0.00    +0.000 A 
ATOM     20  C   UNL     1      44.393   3.112   9.664  0.00  0.00    +0.000 A 
ATOM     21  C   UNL     1      45.073   1.972   9.220  0.00  0.00    +0.000 A 
BRANCH  16  22
ATOM     22  C   UNL     1      46.718   0.813   7.682  0.00  0.00    +0.000 C 
BRANCH  22  23
ATOM     23  N   UNL     1      47.944   1.125   6.956  0.00  0.00    +0.000 NA
ATOM     24  H   UNL     1      47.756   1.874   6.294  0.00  0.00    +0.000 HD
ATOM     25  H   UNL     1      48.209   0.311   6.403  0.00  0.00    +0.000 HD
ENDBRANCH  22  23
ENDBRANCH  16  22
ENDBRANCH  15  20
ENDBRANCH  14  15
ENDBRANCH   1  14
TORSDOF 8
ENDMDL
MODEL 3
REMARK VINA RESULT:    -7.286      3.609      6.508
REMARK INTER + INTRA:         -11.002
REMARK INTER:                 -10.295
REMARK INTRA:                  -0.707
REMARK UNBOUND:                -0.735
REMARK  Name = 
REMARK  8 active torsions:
REMARK  status: ('A' for Active; 'I' for Inactive)
REMARK    1  A    between atoms: N_1  and  C_2
REMARK    2  A    between atoms: C_2  and  C_3
REMARK    3  A    between atoms: C_7  and  O_8
REMARK    4  A    between atoms: O_8  and  C_9
REMARK    5  A    between atoms: C_9  and  C_10
REMARK    6  A    between atoms: C_10  and  O_11
REMARK    7  A    between atoms: C_10  and  C_12
REMARK    8  A    between atoms: C_16  and  C_17
REMARK                            x       y       z     vdW  Elec       q    Type
REMARK                         _______ _______ _______ _____ _____    ______ ____
ROOT
ATOM      1  C   UNL     1      44.026   2.461  11.424  0.00  0.00    +0.000 C 
ENDROOT
BRANCH   1   2
ATOM      2  C   UNL     1      44.614   2.852  10.076  0.00  0.00    +0.000 A 
ATOM      3  N   UNL     1      44.348   4.077   9.589  0.00  0.00    +0.000 NA
ATOM      4  C   UNL     1      44.891   4.383   8.398  0.00  0.00    +0.000 A 
ATOM      5  C   UNL     1      45.671   3.512   7.671  0.00  0.00    +0.000 A 
ATOM      6  C   UNL     1      45.887   2.265   8.225  0.00  0.00    +0.000 A 
ATOM      7  N   UNL     1      45.353   1.920   9.432  0.00  0.00    +0.000 NA
BRANCH   6   8
ATOM      8  C   UNL     1      46.736   1.243   7.480  0.00  0.00    +0.000 C 
ATOM      9  F   UNL     1      46.468   1.198   6.141  0.00  0.00    +0.000 F 
ATOM     10  F   UNL     1      48.072   1.492   7.576  0.00  0.00    +0.000 F 
ATOM     11  F   UNL     1      46.553  -0.028   7.932  0.00  0.00    +0.000 F 
ENDBRANCH   6   8
ENDBRANCH   1   2
BRANCH   1  12
ATOM     12  O   UNL     1      43.048   1.413  11.267  0.00  0.00    +0.000 OA
ATOM     13  H   UNL     1      42.262   1.841  10.877  0.00  0.00    +0.000 HD
ENDBRANCH   1  12
BRANCH   1  14
ATOM     14  C   UNL     1      43.358   3.691  12.050  0.00  0.00    +0.000 C 
BRANCH  14  15
ATOM     15  O   UNL     1      44.056   4.058  13.247  0.00  0.00    +0.000 OA
BRANCH  15  20
ATOM     16  C   UNL     1      45.479   7.290  12.356  0.00  0.00    +0.000 A 
ATOM     17  C   UNL     1      46.794   7.163  12.819  0.00  0.00    +0.000 A 
ATOM     18  C   UNL     1      47.227   5.976  13.412  0.00  0.00    +0.000 A 
ATOM     19  C   UNL     1      46.344   4.906  13.568  0.00  0.00    +0.000 A 
ATOM     20  C   UNL     1      45.025   5.016  13.125  0.00  0.00    +0.000 A 
ATOM     21  C   UNL     1      44.604   6.201  12.509  0.00  0.00    +0.000 A 
BRANCH  16  22
ATOM     22  C   UNL     1      45.000   8.586  11.755  0.00  0.00    +0.000 C 
BRANCH  22  23
ATOM     23  N   UNL     1      44.771   9.607  12.771  0.00  0.00    +0.000 NA
ATOM     24  H   UNL     1      45.661  10.033  13.020  0.00  0.00    +0.000 HD
ATOM     25  H   UNL     1      44.423   9.152  13.615  0.00  0.00    +0.000 HD
ENDBRANCH  22  23
ENDBRANCH  16  22
ENDBRANCH  15  20
ENDBRANCH  14  15
ENDBRANCH   1  14
TORSDOF 8
ENDMDL
MODEL 4
REMARK VINA RESULT:    -7.105      1.717      2.165
REMARK INTER + INTRA:         -10.748
REMARK INTER:                 -10.062
REMARK INTRA:                  -0.685
REMARK UNBOUND:                -0.735
REMARK  Name = 
REMARK  8 active torsions:
REMARK  status: ('A' for Active; 'I' for Inactive)
REMARK    1  A    between atoms: N_1  and  C_2
REMARK    2  A    between atoms: C_2  and  C_3
REMARK    3  A    between atoms: C_7  and  O_8
REMARK    4  A    between atoms: O_8  and  C_9
REMARK    5  A    between atoms: C_9  and  C_10
REMARK    6  A    between atoms: C_10  and  O_11
REMARK    7  A    between atoms: C_10  and  C_12
REMARK    8  A    between atoms: C_16  and  C_17
REMARK                            x       y       z     vdW  Elec       q    Type
REMARK                         _______ _______ _______ _____ _____    ______ ____
ROOT
ATOM      1  C   UNL     1      43.611   5.551  12.149  0.00  0.00    +0.000 C 
ENDROOT
BRANCH   1   2
ATOM      2  C   UNL     1      45.026   5.431  12.697  0.00  0.00    +0.000 A 
ATOM      3  N   UNL     1      45.290   4.463  13.592  0.00  0.00    +0.000 NA
ATOM      4  C   UNL     1      46.552   4.388  14.046  0.00  0.00    +0.000 A 
ATOM      5  C   UNL     1      47.552   5.250  13.657  0.00  0.00    +0.000 A 
ATOM      6  C   UNL     1      47.204   6.232  12.749  0.00  0.00    +0.000 A 
ATOM      7  N   UNL     1      45.933   6.337  12.266  0.00  0.00    +0.000 NA
BRANCH   6   8
ATOM      8  C   UNL     1      48.254   7.227  12.273  0.00  0.00    +0.000 C 
ATOM      9  F   UNL     1      48.207   7.452  10.926  0.00  0.00    +0.000 F 
ATOM     10  F   UNL     1      48.124   8.454  12.852  0.00  0.00    +0.000 F 
ATOM     11  F   UNL     1      49.527   6.818  12.531  0.00  0.00    +0.000 F 
ENDBRANCH   6   8
ENDBRANCH   1   2
BRANCH   1  12
ATOM     12  O   UNL     1      42.649   5.552  13.224  0.00  0.00    +0.000 OA
ATOM     13  H   UNL     1      43.161   5.726  14.037  0.00  0.00    +0.000 HD
ENDBRANCH   1  12
BRANCH   1  14
ATOM     14  C   UNL     1      43.336   4.363  11.220  0.00  0.00    +0.000 C 
BRANCH  14  15
ATOM     15  O   UNL     1      43.846   4.651   9.912  0.00  0.00    +0.000 OA
BRANCH  15  20
ATOM     16  C   UNL     1      46.357   3.190   7.717  0.00  0.00    +0.000 A 
ATOM     17  C   UNL     1      46.182   1.820   7.950  0.00  0.00    +0.000 A 
ATOM     18  C   UNL     1      45.196   1.370   8.829  0.00  0.00    +0.000 A 
ATOM     19  C   UNL     1      44.384   2.285   9.502  0.00  0.00    +0.000 A 
ATOM     20  C   UNL     1      44.551   3.654   9.293  0.00  0.00    +0.000 A 
ATOM     21  C   UNL     1      45.526   4.098   8.392  0.00  0.00    +0.000 A 
BRANCH  16  22
ATOM     22  C   UNL     1      47.450   3.677   6.801  0.00  0.00    +0.000 C 
BRANCH  22  23
ATOM     23  N   UNL     1      48.304   2.587   6.341  0.00  0.00    +0.000 NA
ATOM     24  H   UNL     1      47.949   1.709   6.712  0.00  0.00    +0.000 HD
ATOM     25  H   UNL     1      49.234   2.714   6.740  0.00  0.00    +0.000 HD
ENDBRANCH  22  23
ENDBRANCH  16  22
ENDBRANCH  15  20
ENDBRANCH  14  15
ENDBRANCH   1  14
TORSDOF 8
ENDMDL
MODEL 5
REMARK VINA RESULT:    -6.836      2.275      2.999
REMARK INTER + INTRA:         -10.368
REMARK INTER:                  -9.717
REMARK INTRA:                  -0.651
REMARK UNBOUND:                -0.735
REMARK  Name = 
REMARK  8 active torsions:
REMARK  status: ('A' for Active; 'I' for Inactive)
REMARK    1  A    between atoms: N_1  and  C_2
REMARK    2  A    between atoms: C_2  and  C_3
REMARK    3  A    between atoms: C_7  and  O_8
REMARK    4  A    between atoms: O_8  and  C_9
REMARK    5  A    between atoms: C_9  and  C_10
REMARK    6  A    between atoms: C_10  and  O_11
REMARK    7  A    between atoms: C_10  and  C_12
REMARK    8  A    between atoms: C_16  and  C_17
REMARK                            x       y       z     vdW  Elec       q    Type
REMARK                         _______ _______ _______ _____ _____    ______ ____
ROOT
ATOM      1  C   UNL     1      43.183   5.873  11.454  0.00  0.00    +0.000 C 
ENDROOT
BRANCH   1   2
ATOM      2  C   UNL     1      44.527   6.299  12.027  0.00  0.00    +0.000 A 
ATOM      3  N   UNL     1      45.023   7.500  11.680  0.00  0.00    +0.000 NA
ATOM      4  C   UNL     1      46.209   7.839  12.212  0.00  0.00    +0.000 A 
ATOM      5  C   UNL     1      46.924   7.024  13.060  0.00  0.00    +0.000 A 
ATOM      6  C   UNL     1      46.360   5.797  13.359  0.00  0.00    +0.000 A 
ATOM      7  N   UNL     1      45.158   5.420  12.838  0.00  0.00    +0.000 NA
BRANCH   6   8
ATOM      8  C   UNL     1      47.091   4.836  14.287  0.00  0.00    +0.000 C 
ATOM      9  F   UNL     1      48.211   5.382  14.850  0.00  0.00    +0.000 F 
ATOM     10  F   UNL     1      46.323   4.421  15.333  0.00  0.00    +0.000 F 
ATOM     11  F   UNL     1      47.513   3.707  13.654  0.00  0.00    +0.000 F 
ENDBRANCH   6   8
ENDBRANCH   1   2
BRANCH   1  12
ATOM     12  O   UNL     1      42.195   5.767  12.500  0.00  0.00    +0.000 OA
ATOM     13  H   UNL     1      41.333   5.912  12.064  0.00  0.00    +0.000 HD
ENDBRANCH   1  12
BRANCH   1  14
ATOM     14  C   UNL     1      43.344   4.513  10.766  0.00  0.00    +0.000 C 
BRANCH  14  15
ATOM     15  O   UNL     1      43.943   4.696   9.477  0.00  0.00    +0.000 OA
BRANCH  15  20
ATOM     16  C   UNL     1      46.487   3.045   7.462  0.00  0.00    +0.000 A 
ATOM     17  C   UNL     1      46.357   1.712   7.869  0.00  0.00    +0.000 A 
ATOM     18  C   UNL     1      45.390   1.347   8.807  0.00  0.00    +0.000 A 
ATOM     19  C   UNL     1      44.553   2.315   9.365  0.00  0.00    +0.000 A 
ATOM     20  C   UNL     1      44.675   3.651   8.983  0.00  0.00    +0.000 A 
ATOM     21  C   UNL     1      45.631   4.007   8.025  0.00  0.00    +0.000 A 
BRANCH  16  22
ATOM     22  C   UNL     1      47.560   3.446   6.482  0.00  0.00    +0.000 C 
BRANCH  22  23
ATOM     23  N   UNL     1      48.607   2.435   6.377  0.00  0.00    +0.000 NA
ATOM     24  H   UNL     1      48.584   1.846   7.205  0.00  0.00    +0.000 HD
ATOM     25  H   UNL     1      49.512   2.906   6.383  0.00  0.00    +0.000 HD
ENDBRANCH  22  23
ENDBRANCH  16  22
ENDBRANCH  15  20
ENDBRANCH  14  15
ENDBRANCH   1  14
TORSDOF 8
ENDMDL
MODEL 6
REMARK VINA RESULT:    -6.629      3.465      6.643
REMARK INTER + INTRA:         -10.077
REMARK INTER:                  -9.524
REMARK INTRA:                  -0.553
REMARK UNBOUND:                -0.735
REMARK  Name = 
REMARK  8 active torsions:
REMARK  status: ('A' for Active; 'I' for Inactive)
REMARK    1  A    between atoms: N_1  and  C_2
REMARK    2  A    between atoms: C_2  and  C_3
REMARK    3  A    between atoms: C_7  and  O_8
REMARK    4  A    between atoms: O_8  and  C_9
REMARK    5  A    between atoms: C_9  and  C_10
REMARK    6  A    between atoms: C_10  and  O_11
REMARK    7  A    between atoms: C_10  and  C_12
REMARK    8  A    between atoms: C_16  and  C_17
REMARK                            x       y       z     vdW  Elec       q    Type
REMARK                         _______ _______ _______ _____ _____    ______ ____
ROOT
ATOM      1  C   UNL     1      44.298   5.631  11.195  0.00  0.00    +0.000 C 
ENDROOT
BRANCH   1   2
ATOM      2  C   UNL     1      44.534   4.362  10.389  0.00  0.00    +0.000 A 
ATOM      3  N   UNL     1      43.927   3.228  10.783  0.00  0.00    +0.000 NA
ATOM      4  C   UNL     1      44.158   2.132  10.041  0.00  0.00    +0.000 A 
ATOM      5  C   UNL     1      44.981   2.119   8.938  0.00  0.00    +0.000 A 
ATOM      6  C   UNL     1      45.586   3.316   8.604  0.00  0.00    +0.000 A 
ATOM      7  N   UNL     1      45.373   4.449   9.333  0.00  0.00    +0.000 NA
BRANCH   6   8
ATOM      8  C   UNL     1      46.515   3.383   7.399  0.00  0.00    +0.000 C 
ATOM      9  F   UNL     1      47.464   2.400   7.398  0.00  0.00    +0.000 F 
ATOM     10  F   UNL     1      45.855   3.254   6.213  0.00  0.00    +0.000 F 
ATOM     11  F   UNL     1      47.202   4.556   7.325  0.00  0.00    +0.000 F 
ENDBRANCH   6   8
ENDBRANCH   1   2
BRANCH   1  12
ATOM     12  O   UNL     1      44.915   6.764  10.551  0.00  0.00    +0.000 OA
ATOM     13  H   UNL     1      45.180   6.452   9.664  0.00  0.00    +0.000 HD
ENDBRANCH   1  12
BRANCH   1  14
ATOM     14  C   UNL     1      44.898   5.451  12.594  0.00  0.00    +0.000 C 
BRANCH  14  15
ATOM     15  O   UNL     1      46.323   5.336  12.493  0.00  0.00    +0.000 OA
BRANCH  15  20
ATOM     16  C   UNL     1      47.544   4.661  15.856  0.00  0.00    +0.000 A 
ATOM     17  C   UNL     1      48.446   5.714  16.052  0.00  0.00    +0.000 A 
ATOM     18  C   UNL     1      48.633   6.682  15.064  0.00  0.00    +0.000 A 
ATOM     19  C   UNL     1      47.935   6.598  13.857  0.00  0.00    +0.000 A 
ATOM     20  C   UNL     1      47.041   5.550  13.637  0.00  0.00    +0.000 A 
ATOM     21  C   UNL     1      46.841   4.596  14.642  0.00  0.00    +0.000 A 
BRANCH  16  22
ATOM     22  C   UNL     1      47.374   3.593  16.905  0.00  0.00    +0.000 C 
BRANCH  22  23
ATOM     23  N   UNL     1      46.815   4.127  18.143  0.00  0.00    +0.000 NA
ATOM     24  H   UNL     1      47.576   4.419  18.751  0.00  0.00    +0.000 HD
ATOM     25  H   UNL     1      46.329   3.375  18.630  0.00  0.00    +0.000 HD
ENDBRANCH  22  23
ENDBRANCH  16  22
ENDBRANCH  15  20
ENDBRANCH  14  15
ENDBRANCH   1  14
TORSDOF 8
ENDMDL
MODEL 7
REMARK VINA RESULT:    -6.459      3.871      7.059
REMARK INTER + INTRA:          -9.837
REMARK INTER:                  -9.395
REMARK INTRA:                  -0.442
REMARK UNBOUND:                -0.735
REMARK  Name = 
REMARK  8 active torsions:
REMARK  status: ('A' for Active; 'I' for Inactive)
REMARK    1  A    between atoms: N_1  and  C_2
REMARK    2  A    between atoms: C_2  and  C_3
REMARK    3  A    between atoms: C_7  and  O_8
REMARK    4  A    between atoms: O_8  and  C_9
REMARK    5  A    between atoms: C_9  and  C_10
REMARK    6  A    between atoms: C_10  and  O_11
REMARK    7  A    between atoms: C_10  and  C_12
REMARK    8  A    between atoms: C_16  and  C_17
REMARK                            x       y       z     vdW  Elec       q    Type
REMARK                         _______ _______ _______ _____ _____    ______ ____
ROOT
ATOM      1  C   UNL     1      45.768   5.179  13.747  0.00  0.00    +0.000 C 
ENDROOT
BRANCH   1   2
ATOM      2  C   UNL     1      45.067   4.383  12.656  0.00  0.00    +0.000 A 
ATOM      3  N   UNL     1      44.125   3.492  13.013  0.00  0.00    +0.000 NA
ATOM      4  C   UNL     1      43.528   2.814  12.018  0.00  0.00    +0.000 A 
ATOM      5  C   UNL     1      43.844   2.978  10.689  0.00  0.00    +0.000 A 
ATOM      6  C   UNL     1      44.834   3.898  10.398  0.00  0.00    +0.000 A 
ATOM      7  N   UNL     1      45.461   4.605  11.381  0.00  0.00    +0.000 NA
BRANCH   6   8
ATOM      8  C   UNL     1      45.244   4.134   8.950  0.00  0.00    +0.000 C 
ATOM      9  F   UNL     1      45.989   3.113   8.431  0.00  0.00    +0.000 F 
ATOM     10  F   UNL     1      44.178   4.271   8.112  0.00  0.00    +0.000 F 
ATOM     11  F   UNL     1      45.999   5.256   8.790  0.00  0.00    +0.000 F 
ENDBRANCH   6   8
ENDBRANCH   1   2
BRANCH   1  12
ATOM     12  O   UNL     1      46.051   6.519  13.297  0.00  0.00    +0.000 OA
ATOM     13  H   UNL     1      45.611   7.111  13.936  0.00  0.00    +0.000 HD
ENDBRANCH   1  12
BRANCH   1  14
ATOM     14  C   UNL     1      47.081   4.475  14.111  0.00  0.00    +0.000 C 
BRANCH  14  15
ATOM     15  O   UNL     1      46.844   3.537  15.168  0.00  0.00    +0.000 OA
BRANCH  15  20
ATOM     16  C   UNL     1      49.684   3.144  17.413  0.00  0.00    +0.000 A 
ATOM     17  C   UNL     1      49.300   3.932  18.505  0.00  0.00    +0.000 A 
ATOM     18  C   UNL     1      48.066   4.583  18.511  0.00  0.00    +0.000 A 
ATOM     19  C   UNL     1      47.207   4.471  17.415  0.00  0.00    +0.000 A 
ATOM     20  C   UNL     1      47.576   3.701  16.312  0.00  0.00    +0.000 A 
ATOM     21  C   UNL     1      48.806   3.031  16.323  0.00  0.00    +0.000 A 
BRANCH  16  22
ATOM     22  C   UNL     1      51.035   2.476  17.388  0.00  0.00    +0.000 C 
BRANCH  22  23
ATOM     23  N   UNL     1      50.949   1.058  17.720  0.00  0.00    +0.000 NA
ATOM     24  H   UNL     1      50.364   0.945  18.545  0.00  0.00    +0.000 HD
ATOM     25  H   UNL     1      51.879   0.729  17.979  0.00  0.00    +0.000 HD
ENDBRANCH  22  23
ENDBRANCH  16  22
ENDBRANCH  15  20
ENDBRANCH  14  15
ENDBRANCH   1  14
TORSDOF 8
ENDMDL
MODEL 8
REMARK VINA RESULT:    -6.384      3.792      7.444
REMARK INTER + INTRA:          -9.731
REMARK INTER:                  -9.258
REMARK INTRA:                  -0.473
REMARK UNBOUND:                -0.735
REMARK  Name = 
REMARK  8 active torsions:
REMARK  status: ('A' for Active; 'I' for Inactive)
REMARK    1  A    between atoms: N_1  and  C_2
REMARK    2  A    between atoms: C_2  and  C_3
REMARK    3  A    between atoms: C_7  and  O_8
REMARK    4  A    between atoms: O_8  and  C_9
REMARK    5  A    between atoms: C_9  and  C_10
REMARK    6  A    between atoms: C_10  and  O_11
REMARK    7  A    between atoms: C_10  and  C_12
REMARK    8  A    between atoms: C_16  and  C_17
REMARK                            x       y       z     vdW  Elec       q    Type
REMARK                         _______ _______ _______ _____ _____    ______ ____
ROOT
ATOM      1  C   UNL     1      45.730   5.163  13.773  0.00  0.00    +0.000 C 
ENDROOT
BRANCH   1   2
ATOM      2  C   UNL     1      45.033   4.385  12.666  0.00  0.00    +0.000 A 
ATOM      3  N   UNL     1      44.097   3.481  13.006  0.00  0.00    +0.000 NA
ATOM      4  C   UNL     1      43.504   2.819  11.999  0.00  0.00    +0.000 A 
ATOM      5  C   UNL     1      43.818   3.012  10.672  0.00  0.00    +0.000 A 
ATOM      6  C   UNL     1      44.802   3.944  10.399  0.00  0.00    +0.000 A 
ATOM      7  N   UNL     1      45.425   4.634  11.396  0.00  0.00    +0.000 NA
BRANCH   6   8
ATOM      8  C   UNL     1      45.209   4.211   8.956  0.00  0.00    +0.000 C 
ATOM      9  F   UNL     1      45.967   3.209   8.419  0.00  0.00    +0.000 F 
ATOM     10  F   UNL     1      44.142   4.349   8.120  0.00  0.00    +0.000 F 
ATOM     11  F   UNL     1      45.950   5.345   8.817  0.00  0.00    +0.000 F 
ENDBRANCH   6   8
ENDBRANCH   1   2
BRANCH   1  12
ATOM     12  O   UNL     1      46.038   6.503  13.336  0.00  0.00    +0.000 OA
ATOM     13  H   UNL     1      45.597   7.096  13.973  0.00  0.00    +0.000 HD
ENDBRANCH   1  12
BRANCH   1  14
ATOM     14  C   UNL     1      47.028   4.439  14.149  0.00  0.00    +0.000 C 
BRANCH  14  15
ATOM     15  O   UNL     1      46.796   3.601  15.288  0.00  0.00    +0.000 OA
BRANCH  15  20
ATOM     16  C   UNL     1      48.637   5.057  18.072  0.00  0.00    +0.000 A 
ATOM     17  C   UNL     1      49.483   4.003  18.440  0.00  0.00    +0.000 A 
ATOM     18  C   UNL     1      49.465   2.799  17.736  0.00  0.00    +0.000 A 
ATOM     19  C   UNL     1      48.585   2.624  16.667  0.00  0.00    +0.000 A 
ATOM     20  C   UNL     1      47.724   3.656  16.292  0.00  0.00    +0.000 A 
ATOM     21  C   UNL     1      47.764   4.870  16.987  0.00  0.00    +0.000 A 
BRANCH  16  22
ATOM     22  C   UNL     1      48.626   6.342  18.859  0.00  0.00    +0.000 C 
BRANCH  22  23
ATOM     23  N   UNL     1      47.353   7.044  18.742  0.00  0.00    +0.000 NA
ATOM     24  H   UNL     1      46.905   6.773  17.869  0.00  0.00    +0.000 HD
ATOM     25  H   UNL     1      47.540   8.044  18.672  0.00  0.00    +0.000 HD
ENDBRANCH  22  23
ENDBRANCH  16  22
ENDBRANCH  15  20
ENDBRANCH  14  15
ENDBRANCH   1  14
TORSDOF 8
ENDMDL
MODEL 9
REMARK VINA RESULT:    -6.327      3.457      6.864
REMARK INTER + INTRA:          -9.651
REMARK INTER:                  -9.094
REMARK INTRA:                  -0.557
REMARK UNBOUND:                -0.735
REMARK  Name = 
REMARK  8 active torsions:
REMARK  status: ('A' for Active; 'I' for Inactive)
REMARK    1  A    between atoms: N_1  and  C_2
REMARK    2  A    between atoms: C_2  and  C_3
REMARK    3  A    between atoms: C_7  and  O_8
REMARK    4  A    between atoms: O_8  and  C_9
REMARK    5  A    between atoms: C_9  and  C_10
REMARK    6  A    between atoms: C_10  and  O_11
REMARK    7  A    between atoms: C_10  and  C_12
REMARK    8  A    between atoms: C_16  and  C_17
REMARK                            x       y       z     vdW  Elec       q    Type
REMARK                         _______ _______ _______ _____ _____    ______ ____
ROOT
ATOM      1  C   UNL     1      45.415   5.792  13.223  0.00  0.00    +0.000 C 
ENDROOT
BRANCH   1   2
ATOM      2  C   UNL     1      44.874   4.718  12.290  0.00  0.00    +0.000 A 
ATOM      3  N   UNL     1      44.030   3.798  12.789  0.00  0.00    +0.000 NA
ATOM      4  C   UNL     1      43.571   2.872  11.931  0.00  0.00    +0.000 A 
ATOM      5  C   UNL     1      43.934   2.817  10.605  0.00  0.00    +0.000 A 
ATOM      6  C   UNL     1      44.820   3.784  10.166  0.00  0.00    +0.000 A 
ATOM      7  N   UNL     1      45.305   4.740  11.008  0.00  0.00    +0.000 NA
BRANCH   6   8
ATOM      8  C   UNL     1      45.273   3.789   8.712  0.00  0.00    +0.000 C 
ATOM      9  F   UNL     1      46.148   4.799   8.427  0.00  0.00    +0.000 F 
ATOM     10  F   UNL     1      45.912   2.640   8.351  0.00  0.00    +0.000 F 
ATOM     11  F   UNL     1      44.242   3.940   7.837  0.00  0.00    +0.000 F 
ENDBRANCH   6   8
ENDBRANCH   1   2
BRANCH   1  12
ATOM     12  O   UNL     1      44.621   6.992  13.132  0.00  0.00    +0.000 OA
ATOM     13  H   UNL     1      43.789   6.725  12.696  0.00  0.00    +0.000 HD
ENDBRANCH   1  12
BRANCH   1  14
ATOM     14  C   UNL     1      46.863   6.109  12.829  0.00  0.00    +0.000 C 
BRANCH  14  15
ATOM     15  O   UNL     1      47.755   5.250  13.551  0.00  0.00    +0.000 OA
BRANCH  15  20
ATOM     16  C   UNL     1      47.957   4.918  17.172  0.00  0.00    +0.000 A 
ATOM     17  C   UNL     1      48.628   6.093  17.532  0.00  0.00    +0.000 A 
ATOM     18  C   UNL     1      48.996   7.026  16.562  0.00  0.00    +0.000 A 
ATOM     19  C   UNL     1      48.715   6.787  15.216  0.00  0.00    +0.000 A 
ATOM     20  C   UNL     1      48.059   5.617  14.834  0.00  0.00    +0.000 A 
ATOM     21  C   UNL     1      47.671   4.696  15.815  0.00  0.00    +0.000 A 
BRANCH  16  22
ATOM     22  C   UNL     1      47.598   3.890  18.214  0.00  0.00    +0.000 C 
BRANCH  22  23
ATOM     23  N   UNL     1      46.656   2.900  17.704  0.00  0.00    +0.000 NA
ATOM     24  H   UNL     1      46.454   2.226  18.438  0.00  0.00    +0.000 HD
ATOM     25  H   UNL     1      47.108   2.381  16.951  0.00  0.00    +0.000 HD
ENDBRANCH  22  23
ENDBRANCH  16  22
ENDBRANCH  15  20
ENDBRANCH  14  15
ENDBRANCH   1  14
TORSDOF 8
ENDMDL
