MODEL 1
REMARK VINA RESULT:    -6.921      0.000      0.000
REMARK INTER + INTRA:         -10.682
REMARK INTER:                  -9.551
REMARK INTRA:                  -1.131
REMARK UNBOUND:                -1.131
REMARK  Name = 
REMARK  7 active torsions:
REMARK  status: ('A' for Active; 'I' for Inactive)
REMARK    1  A    between atoms: N_1  and  C_2
REMARK    2  A    between atoms: C_2  and  C_3
REMARK    3  A    between atoms: C_2  and  C_10
REMARK    4  A    between atoms: C_3  and  N_4
REMARK    5  A    between atoms: C_13  and  C_14
REMARK    6  A    between atoms: C_14  and  N_15
REMARK    7  A    between atoms: C_16  and  C_18
REMARK                            x       y       z     vdW  Elec       q    Type
REMARK                         _______ _______ _______ _____ _____    ______ ____
ROOT
ATOM      1  C   UNL     1      44.867   4.426  11.150  0.00  0.00    +0.000 A 
ATOM      2  C   UNL     1      44.666   4.623  12.526  0.00  0.00    +0.000 A 
ATOM      3  C   UNL     1      45.297   5.674  13.194  0.00  0.00    +0.000 A 
ATOM      4  C   UNL     1      46.103   6.546  12.475  0.00  0.00    +0.000 A 
ATOM      5  N   UNL     1      46.308   6.397  11.147  0.00  0.00    +0.000 NA
ATOM      6  C   UNL     1      45.683   5.369  10.526  0.00  0.00    +0.000 A 
ENDROOT
BRANCH   1   7
ATOM      7  C   UNL     1      44.221   3.274  10.366  0.00  0.00    +0.000 C 
BRANCH   7   8
ATOM      8  N   UNL     1      43.426   2.407  11.251  0.00  0.00    +0.000 NA
ATOM      9  H   UNL     1      42.468   2.361  10.916  0.00  0.00    +0.000 HD
ATOM     10  H   UNL     1      43.413   2.796  12.191  0.00  0.00    +0.000 HD
ENDBRANCH   7   8
BRANCH   7  11
ATOM     11  C   UNL     1      45.297   2.446   9.559  0.00  0.00    +0.000 C 
BRANCH  11  12
ATOM     12  N   UNL     1      45.122   2.134   8.117  0.00  0.00    +0.000 NA
ATOM     13  C   UNL     1      46.071   1.136   7.580  0.00  0.00    +0.000 C 
ATOM     14  C   UNL     1      47.529   1.616   7.611  0.00  0.00    +0.000 C 
ATOM     15  O   UNL     1      47.689   2.806   6.825  0.00  0.00    +0.000 OA
ATOM     16  C   UNL     1      46.797   3.844   7.254  0.00  0.00    +0.000 C 
ATOM     17  C   UNL     1      45.328   3.372   7.313  0.00  0.00    +0.000 C 
ENDBRANCH  11  12
ENDBRANCH   7  11
ENDBRANCH   1   7
BRANCH   4  18
ATOM     18  C   UNL     1      46.863   7.649  13.175  0.00  0.00    +0.000 C 
BRANCH  18  19
ATOM     19  N   UNL     1      47.394   7.167  14.428  0.00  0.00    +0.000 N 
ATOM     20  C   UNL     1      48.695   6.773  14.582  0.00  0.00    +0.000 C 
ATOM     21  O   UNL     1      49.513   6.845  13.672  0.00  0.00    +0.000 OA
ATOM     22  H   UNL     1      46.694   6.889  15.109  0.00  0.00    +0.000 HD
BRANCH  20  23
ATOM     23  C   UNL     1      49.082   6.342  15.932  0.00  0.00    +0.000 A 
ATOM     24  C   UNL     1      49.948   7.122  16.685  0.00  0.00    +0.000 A 
ATOM     25  S   UNL     1      50.218   6.518  18.259  0.00  0.00    +0.000 S 
ATOM     26  C   UNL     1      49.230   5.163  17.970  0.00  0.00    +0.000 A 
ATOM     27  N   UNL     1      49.036   4.218  18.930  0.00  0.00    +0.000 NA
ATOM     28  C   UNL     1      48.287   3.233  18.564  0.00  0.00    +0.000 A 
ATOM     29  N   UNL     1      47.716   3.103  17.327  0.00  0.00    +0.000 N 
ATOM     30  C   UNL     1      47.864   4.041  16.336  0.00  0.00    +0.000 A 
ATOM     31  O   UNL     1      47.311   3.910  15.249  0.00  0.00    +0.000 OA
ATOM     32  C   UNL     1      48.697   5.174  16.693  0.00  0.00    +0.000 A 
ATOM     33  H   UNL     1      47.137   2.308  17.104  0.00  0.00    +0.000 HD
ENDBRANCH  20  23
ENDBRANCH  18  19
ENDBRANCH   4  18
TORSDOF 7
ENDMDL
MODEL 2
REMARK VINA RESULT:    -6.915      3.404      5.484
REMARK INTER + INTRA:         -10.674
REMARK INTER:                  -9.689
REMARK INTRA:                  -0.984
REMARK UNBOUND:                -1.131
REMARK  Name = 
REMARK  7 active torsions:
REMARK  status: ('A' for Active; 'I' for Inactive)
REMARK    1  A    between atoms: N_1  and  C_2
REMARK    2  A    between atoms: C_2  and  C_3
REMARK    3  A    between atoms: C_2  and  C_10
REMARK    4  A    between atoms: C_3  and  N_4
REMARK    5  A    between atoms: C_13  and  C_14
REMARK    6  A    between atoms: C_14  and  N_15
REMARK    7  A    between atoms: C_16  and  C_18
REMARK                            x       y       z     vdW  Elec       q    Type
REMARK                         _______ _______ _______ _____ _____    ______ ____
ROOT
ATOM      1  C   UNL     1      47.257   5.401  14.173  0.00  0.00    +0.000 A 
ATOM      2  C   UNL     1      47.898   5.976  15.282  0.00  0.00    +0.000 A 
ATOM      3  C   UNL     1      48.197   5.208  16.409  0.00  0.00    +0.000 A 
ATOM      4  C   UNL     1      47.883   3.856  16.409  0.00  0.00    +0.000 A 
ATOM      5  N   UNL     1      47.280   3.264  15.354  0.00  0.00    +0.000 NA
ATOM      6  C   UNL     1      47.002   4.034  14.275  0.00  0.00    +0.000 A 
ENDROOT
BRANCH   1   7
ATOM      7  C   UNL     1      46.879   6.200  12.917  0.00  0.00    +0.000 C 
BRANCH   7   8
ATOM      8  N   UNL     1      46.346   7.526  13.269  0.00  0.00    +0.000 NA
ATOM      9  H   UNL     1      46.277   7.611  14.280  0.00  0.00    +0.000 HD
ATOM     10  H   UNL     1      45.412   7.634  12.881  0.00  0.00    +0.000 HD
ENDBRANCH   7   8
BRANCH   7  11
ATOM     11  C   UNL     1      45.876   5.398  11.999  0.00  0.00    +0.000 C 
BRANCH  11  12
ATOM     12  N   UNL     1      44.413   5.656  12.028  0.00  0.00    +0.000 NA
ATOM     13  C   UNL     1      43.648   4.784  12.945  0.00  0.00    +0.000 C 
ATOM     14  C   UNL     1      43.686   3.305  12.538  0.00  0.00    +0.000 C 
ATOM     15  O   UNL     1      43.125   3.124  11.230  0.00  0.00    +0.000 OA
ATOM     16  C   UNL     1      43.788   3.941  10.255  0.00  0.00    +0.000 C 
ATOM     17  C   UNL     1      43.841   5.427  10.672  0.00  0.00    +0.000 C 
ENDBRANCH  11  12
ENDBRANCH   7  11
ENDBRANCH   1   7
BRANCH   4  18
ATOM     18  C   UNL     1      48.122   3.008  17.637  0.00  0.00    +0.000 C 
BRANCH  18  19
ATOM     19  N   UNL     1      49.537   2.918  17.910  0.00  0.00    +0.000 N 
ATOM     20  C   UNL     1      50.389   2.150  17.166  0.00  0.00    +0.000 C 
ATOM     21  O   UNL     1      50.015   1.516  16.185  0.00  0.00    +0.000 OA
ATOM     22  H   UNL     1      49.815   3.240  18.831  0.00  0.00    +0.000 HD
BRANCH  20  23
ATOM     23  C   UNL     1      51.805   2.196  17.556  0.00  0.00    +0.000 A 
ATOM     24  C   UNL     1      52.501   1.015  17.778  0.00  0.00    +0.000 A 
ATOM     25  S   UNL     1      54.152   1.252  18.134  0.00  0.00    +0.000 S 
ATOM     26  C   UNL     1      53.985   2.944  18.060  0.00  0.00    +0.000 A 
ATOM     27  N   UNL     1      55.047   3.765  18.282  0.00  0.00    +0.000 NA
ATOM     28  C   UNL     1      54.769   5.024  18.222  0.00  0.00    +0.000 A 
ATOM     29  N   UNL     1      53.528   5.538  17.961  0.00  0.00    +0.000 N 
ATOM     30  C   UNL     1      52.433   4.750  17.708  0.00  0.00    +0.000 A 
ATOM     31  O   UNL     1      51.342   5.244  17.445  0.00  0.00    +0.000 OA
ATOM     32  C   UNL     1      52.688   3.323  17.761  0.00  0.00    +0.000 A 
ATOM     33  H   UNL     1      53.377   6.535  17.925  0.00  0.00    +0.000 HD
ENDBRANCH  20  23
ENDBRANCH  18  19
ENDBRANCH   4  18
TORSDOF 7
ENDMDL
MODEL 3
REMARK VINA RESULT:    -6.912      1.645      2.156
REMARK INTER + INTRA:         -10.669
REMARK INTER:                  -9.618
REMARK INTRA:                  -1.050
REMARK UNBOUND:                -1.131
REMARK  Name = 
REMARK  7 active torsions:
REMARK  status: ('A' for Active; 'I' for Inactive)
REMARK    1  A    between atoms: N_1  and  C_2
REMARK    2  A    between atoms: C_2  and  C_3
REMARK    3  A    between atoms: C_2  and  C_10
REMARK    4  A    between atoms: C_3  and  N_4
REMARK    5  A    between atoms: C_13  and  C_14
REMARK    6  A    between atoms: C_14  and  N_15
REMARK    7  A    between atoms: C_16  and  C_18
REMARK                            x       y       z     vdW  Elec       q    Type
REMARK                         _______ _______ _______ _____ _____    ______ ____
ROOT
ATOM      1  C   UNL     1      45.677   4.910  12.448  0.00  0.00    +0.000 A 
ATOM      2  C   UNL     1      46.127   6.067  11.792  0.00  0.00    +0.000 A 
ATOM      3  C   UNL     1      47.231   6.774  12.270  0.00  0.00    +0.000 A 
ATOM      4  C   UNL     1      47.905   6.302  13.388  0.00  0.00    +0.000 A 
ATOM      5  N   UNL     1      47.511   5.183  14.038  0.00  0.00    +0.000 NA
ATOM      6  C   UNL     1      46.437   4.519  13.551  0.00  0.00    +0.000 A 
ENDROOT
BRANCH   1   7
ATOM      7  C   UNL     1      44.455   4.105  11.985  0.00  0.00    +0.000 C 
BRANCH   7   8
ATOM      8  N   UNL     1      43.720   3.546  13.132  0.00  0.00    +0.000 NA
ATOM      9  H   UNL     1      44.288   2.840  13.592  0.00  0.00    +0.000 HD
ATOM     10  H   UNL     1      42.865   3.099  12.807  0.00  0.00    +0.000 HD
ENDBRANCH   7   8
BRANCH   7  11
ATOM     11  C   UNL     1      44.857   2.980  10.952  0.00  0.00    +0.000 C 
BRANCH  11  12
ATOM     12  N   UNL     1      44.154   2.826   9.652  0.00  0.00    +0.000 NA
ATOM     13  C   UNL     1      44.612   1.684   8.833  0.00  0.00    +0.000 C 
ATOM     14  C   UNL     1      46.071   1.820   8.374  0.00  0.00    +0.000 C 
ATOM     15  O   UNL     1      46.243   3.000   7.575  0.00  0.00    +0.000 OA
ATOM     16  C   UNL     1      45.813   4.176   8.273  0.00  0.00    +0.000 C 
ATOM     17  C   UNL     1      44.375   4.043   8.821  0.00  0.00    +0.000 C 
ENDBRANCH  11  12
ENDBRANCH   7  11
ENDBRANCH   1   7
BRANCH   4  18
ATOM     18  C   UNL     1      49.057   7.079  13.981  0.00  0.00    +0.000 C 
BRANCH  18  19
ATOM     19  N   UNL     1      49.072   6.927  15.417  0.00  0.00    +0.000 N 
ATOM     20  C   UNL     1      50.209   7.050  16.165  0.00  0.00    +0.000 C 
ATOM     21  O   UNL     1      51.292   7.344  15.669  0.00  0.00    +0.000 OA
ATOM     22  H   UNL     1      48.254   6.467  15.804  0.00  0.00    +0.000 HD
BRANCH  20  23
ATOM     23  C   UNL     1      50.044   6.899  17.617  0.00  0.00    +0.000 A 
ATOM     24  C   UNL     1      50.354   7.955  18.462  0.00  0.00    +0.000 A 
ATOM     25  S   UNL     1      50.019   7.638  20.105  0.00  0.00    +0.000 S 
ATOM     26  C   UNL     1      49.498   6.056  19.752  0.00  0.00    +0.000 A 
ATOM     27  N   UNL     1      49.074   5.221  20.739  0.00  0.00    +0.000 NA
ATOM     28  C   UNL     1      48.737   4.043  20.330  0.00  0.00    +0.000 A 
ATOM     29  N   UNL     1      48.785   3.624  19.029  0.00  0.00    +0.000 N 
ATOM     30  C   UNL     1      49.184   4.438  17.998  0.00  0.00    +0.000 A 
ATOM     31  O   UNL     1      49.184   4.040  16.838  0.00  0.00    +0.000 OA
ATOM     32  C   UNL     1      49.574   5.776  18.399  0.00  0.00    +0.000 A 
ATOM     33  H   UNL     1      48.504   2.689  18.774  0.00  0.00    +0.000 HD
ENDBRANCH  20  23
ENDBRANCH  18  19
ENDBRANCH   4  18
TORSDOF 7
ENDMDL
MODEL 4
REMARK VINA RESULT:    -6.757      2.574      3.246
REMARK INTER + INTRA:         -10.455
REMARK INTER:                  -9.623
REMARK INTRA:                  -0.832
REMARK UNBOUND:                -1.131
REMARK  Name = 
REMARK  7 active torsions:
REMARK  status: ('A' for Active; 'I' for Inactive)
REMARK    1  A    between atoms: N_1  and  C_2
REMARK    2  A    between atoms: C_2  and  C_3
REMARK    3  A    between atoms: C_2  and  C_10
REMARK    4  A    between atoms: C_3  and  N_4
REMARK    5  A    between atoms: C_13  and  C_14
REMARK    6  A    between atoms: C_14  and  N_15
REMARK    7  A    between atoms: C_16  and  C_18
REMARK                            x       y       z     vdW  Elec       q    Type
REMARK                         _______ _______ _______ _____ _____    ______ ____
ROOT
ATOM      1  C   UNL     1      45.516   4.709  12.433  0.00  0.00    +0.000 A 
ATOM      2  C   UNL     1      45.840   6.006  12.003  0.00  0.00    +0.000 A 
ATOM      3  C   UNL     1      46.854   6.732  12.630  0.00  0.00    +0.000 A 
ATOM      4  C   UNL     1      47.566   6.144  13.666  0.00  0.00    +0.000 A 
ATOM      5  N   UNL     1      47.294   4.892  14.098  0.00  0.00    +0.000 NA
ATOM      6  C   UNL     1      46.305   4.212  13.471  0.00  0.00    +0.000 A 
ENDROOT
BRANCH   1   7
ATOM      7  C   UNL     1      44.395   3.871  11.801  0.00  0.00    +0.000 C 
BRANCH   7   8
ATOM      8  N   UNL     1      43.625   3.151  12.828  0.00  0.00    +0.000 NA
ATOM      9  H   UNL     1      44.087   3.241  13.729  0.00  0.00    +0.000 HD
ATOM     10  H   UNL     1      43.581   2.162  12.594  0.00  0.00    +0.000 HD
ENDBRANCH   7   8
BRANCH   7  11
ATOM     11  C   UNL     1      44.956   2.886  10.701  0.00  0.00    +0.000 C 
BRANCH  11  12
ATOM     12  N   UNL     1      44.290   2.727   9.382  0.00  0.00    +0.000 NA
ATOM     13  C   UNL     1      44.764   1.576   8.585  0.00  0.00    +0.000 C 
ATOM     14  C   UNL     1      46.236   1.699   8.168  0.00  0.00    +0.000 C 
ATOM     15  O   UNL     1      46.440   2.872   7.366  0.00  0.00    +0.000 OA
ATOM     16  C   UNL     1      45.997   4.056   8.043  0.00  0.00    +0.000 C 
ATOM     17  C   UNL     1      44.543   3.936   8.549  0.00  0.00    +0.000 C 
ENDBRANCH  11  12
ENDBRANCH   7  11
ENDBRANCH   1   7
BRANCH   4  18
ATOM     18  C   UNL     1      48.619   6.924  14.419  0.00  0.00    +0.000 C 
BRANCH  18  19
ATOM     19  N   UNL     1      48.310   6.940  15.830  0.00  0.00    +0.000 N 
ATOM     20  C   UNL     1      49.115   6.364  16.773  0.00  0.00    +0.000 C 
ATOM     21  O   UNL     1      50.182   5.831  16.488  0.00  0.00    +0.000 OA
ATOM     22  H   UNL     1      47.345   7.165  16.052  0.00  0.00    +0.000 HD
BRANCH  20  23
ATOM     23  C   UNL     1      48.671   6.500  18.168  0.00  0.00    +0.000 A 
ATOM     24  C   UNL     1      48.775   5.421  19.034  0.00  0.00    +0.000 A 
ATOM     25  S   UNL     1      48.300   5.781  20.633  0.00  0.00    +0.000 S 
ATOM     26  C   UNL     1      47.886   7.378  20.212  0.00  0.00    +0.000 A 
ATOM     27  N   UNL     1      47.393   8.242  21.139  0.00  0.00    +0.000 NA
ATOM     28  C   UNL     1      47.096   9.409  20.673  0.00  0.00    +0.000 A 
ATOM     29  N   UNL     1      47.245   9.791  19.368  0.00  0.00    +0.000 N 
ATOM     30  C   UNL     1      47.760   8.961  18.403  0.00  0.00    +0.000 A 
ATOM     31  O   UNL     1      47.912   9.346  17.249  0.00  0.00    +0.000 OA
ATOM     32  C   UNL     1      48.113   7.634  18.871  0.00  0.00    +0.000 A 
ATOM     33  H   UNL     1      46.997  10.721  19.067  0.00  0.00    +0.000 HD
ENDBRANCH  20  23
ENDBRANCH  18  19
ENDBRANCH   4  18
TORSDOF 7
ENDMDL
MODEL 5
REMARK VINA RESULT:    -6.682      3.735      9.045
REMARK INTER + INTRA:         -10.352
REMARK INTER:                  -9.394
REMARK INTRA:                  -0.958
REMARK UNBOUND:                -1.131
REMARK  Name = 
REMARK  7 active torsions:
REMARK  status: ('A' for Active; 'I' for Inactive)
REMARK    1  A    between atoms: N_1  and  C_2
REMARK    2  A    between atoms: C_2  and  C_3
REMARK    3  A    between atoms: C_2  and  C_10
REMARK    4  A    between atoms: C_3  and  N_4
REMARK    5  A    between atoms: C_13  and  C_14
REMARK    6  A    between atoms: C_14  and  N_15
REMARK    7  A    between atoms: C_16  and  C_18
REMARK                            x       y       z     vdW  Elec       q    Type
REMARK                         _______ _______ _______ _____ _____    ______ ____
ROOT
ATOM      1  C   UNL     1      51.396   3.277  17.752  0.00  0.00    +0.000 A 
ATOM      2  C   UNL     1      50.747   2.146  17.232  0.00  0.00    +0.000 A 
ATOM      3  C   UNL     1      49.378   2.175  16.953  0.00  0.00    +0.000 A 
ATOM      4  C   UNL     1      48.669   3.349  17.167  0.00  0.00    +0.000 A 
ATOM      5  N   UNL     1      49.263   4.462  17.653  0.00  0.00    +0.000 NA
ATOM      6  C   UNL     1      50.590   4.404  17.914  0.00  0.00    +0.000 A 
ENDROOT
BRANCH   1   7
ATOM      7  C   UNL     1      52.891   3.298  18.102  0.00  0.00    +0.000 C 
BRANCH   7   8
ATOM      8  N   UNL     1      53.254   2.157  18.957  0.00  0.00    +0.000 NA
ATOM      9  H   UNL     1      53.540   1.372  18.377  0.00  0.00    +0.000 HD
ATOM     10  H   UNL     1      52.447   1.866  19.504  0.00  0.00    +0.000 HD
ENDBRANCH   7   8
BRANCH   7  11
ATOM     11  C   UNL     1      53.314   4.671  18.758  0.00  0.00    +0.000 C 
BRANCH  11  12
ATOM     12  N   UNL     1      54.451   5.470  18.234  0.00  0.00    +0.000 NA
ATOM     13  C   UNL     1      54.497   6.869  18.711  0.00  0.00    +0.000 C 
ATOM     14  C   UNL     1      53.297   7.703  18.240  0.00  0.00    +0.000 C 
ATOM     15  O   UNL     1      53.247   7.755  16.806  0.00  0.00    +0.000 OA
ATOM     16  C   UNL     1      53.214   6.441  16.233  0.00  0.00    +0.000 C 
ATOM     17  C   UNL     1      54.362   5.545  16.748  0.00  0.00    +0.000 C 
ENDBRANCH  11  12
ENDBRANCH   7  11
ENDBRANCH   1   7
BRANCH   4  18
ATOM     18  C   UNL     1      47.174   3.397  16.951  0.00  0.00    +0.000 C 
BRANCH  18  19
ATOM     19  N   UNL     1      46.849   4.395  15.959  0.00  0.00    +0.000 N 
ATOM     20  C   UNL     1      46.968   4.173  14.615  0.00  0.00    +0.000 C 
ATOM     21  O   UNL     1      47.319   3.090  14.158  0.00  0.00    +0.000 OA
ATOM     22  H   UNL     1      46.784   5.343  16.314  0.00  0.00    +0.000 HD
BRANCH  20  23
ATOM     23  C   UNL     1      46.563   5.282  13.741  0.00  0.00    +0.000 A 
ATOM     24  C   UNL     1      47.426   6.350  13.535  0.00  0.00    +0.000 A 
ATOM     25  S   UNL     1      46.833   7.502  12.423  0.00  0.00    +0.000 S 
ATOM     26  C   UNL     1      45.379   6.642  12.220  0.00  0.00    +0.000 A 
ATOM     27  N   UNL     1      44.404   7.099  11.388  0.00  0.00    +0.000 NA
ATOM     28  C   UNL     1      43.345   6.361  11.353  0.00  0.00    +0.000 A 
ATOM     29  N   UNL     1      43.170   5.211  12.074  0.00  0.00    +0.000 N 
ATOM     30  C   UNL     1      44.133   4.700  12.908  0.00  0.00    +0.000 A 
ATOM     31  O   UNL     1      43.956   3.649  13.514  0.00  0.00    +0.000 OA
ATOM     32  C   UNL     1      45.348   5.489  12.985  0.00  0.00    +0.000 A 
ATOM     33  H   UNL     1      42.317   4.677  12.000  0.00  0.00    +0.000 HD
ENDBRANCH  20  23
ENDBRANCH  18  19
ENDBRANCH   4  18
TORSDOF 7
ENDMDL
MODEL 6
REMARK VINA RESULT:    -6.622      3.328      4.696
REMARK INTER + INTRA:         -10.269
REMARK INTER:                  -9.477
REMARK INTRA:                  -0.792
REMARK UNBOUND:                -1.131
REMARK  Name = 
REMARK  7 active torsions:
REMARK  status: ('A' for Active; 'I' for Inactive)
REMARK    1  A    between atoms: N_1  and  C_2
REMARK    2  A    between atoms: C_2  and  C_3
REMARK    3  A    between atoms: C_2  and  C_10
REMARK    4  A    between atoms: C_3  and  N_4
REMARK    5  A    between atoms: C_13  and  C_14
REMARK    6  A    between atoms: C_14  and  N_15
REMARK    7  A    between atoms: C_16  and  C_18
REMARK                            x       y       z     vdW  Elec       q    Type
REMARK                         _______ _______ _______ _____ _____    ______ ____
ROOT
ATOM      1  C   UNL     1      46.645   5.816  13.311  0.00  0.00    +0.000 A 
ATOM      2  C   UNL     1      47.655   6.432  14.067  0.00  0.00    +0.000 A 
ATOM      3  C   UNL     1      48.093   5.866  15.266  0.00  0.00    +0.000 A 
ATOM      4  C   UNL     1      47.540   4.666  15.690  0.00  0.00    +0.000 A 
ATOM      5  N   UNL     1      46.576   4.036  14.981  0.00  0.00    +0.000 NA
ATOM      6  C   UNL     1      46.171   4.608  13.823  0.00  0.00    +0.000 A 
ENDROOT
BRANCH   1   7
ATOM      7  C   UNL     1      46.104   6.403  11.999  0.00  0.00    +0.000 C 
BRANCH   7   8
ATOM      8  N   UNL     1      45.030   7.377  12.254  0.00  0.00    +0.000 NA
ATOM      9  H   UNL     1      44.219   6.900  12.640  0.00  0.00    +0.000 HD
ATOM     10  H   UNL     1      44.750   7.816  11.380  0.00  0.00    +0.000 HD
ENDBRANCH   7   8
BRANCH   7  11
ATOM     11  C   UNL     1      45.633   5.268  11.007  0.00  0.00    +0.000 C 
BRANCH  11  12
ATOM     12  N   UNL     1      44.232   5.191  10.516  0.00  0.00    +0.000 NA
ATOM     13  C   UNL     1      43.249   4.728  11.519  0.00  0.00    +0.000 C 
ATOM     14  C   UNL     1      43.491   3.282  11.974  0.00  0.00    +0.000 C 
ATOM     15  O   UNL     1      43.405   2.380  10.861  0.00  0.00    +0.000 OA
ATOM     16  C   UNL     1      44.313   2.747   9.814  0.00  0.00    +0.000 C 
ATOM     17  C   UNL     1      44.154   4.223   9.387  0.00  0.00    +0.000 C 
ENDBRANCH  11  12
ENDBRANCH   7  11
ENDBRANCH   1   7
BRANCH   4  18
ATOM     18  C   UNL     1      47.932   4.062  17.018  0.00  0.00    +0.000 C 
BRANCH  18  19
ATOM     19  N   UNL     1      49.361   3.856  17.067  0.00  0.00    +0.000 N 
ATOM     20  C   UNL     1      50.134   4.263  18.118  0.00  0.00    +0.000 C 
ATOM     21  O   UNL     1      49.658   4.793  19.116  0.00  0.00    +0.000 OA
ATOM     22  H   UNL     1      49.790   3.637  16.174  0.00  0.00    +0.000 HD
BRANCH  20  23
ATOM     23  C   UNL     1      51.566   3.946  18.025  0.00  0.00    +0.000 A 
ATOM     24  C   UNL     1      52.510   4.946  18.220  0.00  0.00    +0.000 A 
ATOM     25  S   UNL     1      54.120   4.385  18.165  0.00  0.00    +0.000 S 
ATOM     26  C   UNL     1      53.616   2.796  17.822  0.00  0.00    +0.000 A 
ATOM     27  N   UNL     1      54.521   1.796  17.643  0.00  0.00    +0.000 NA
ATOM     28  C   UNL     1      53.998   0.649  17.362  0.00  0.00    +0.000 A 
ATOM     29  N   UNL     1      52.656   0.411  17.242  0.00  0.00    +0.000 N 
ATOM     30  C   UNL     1      51.706   1.382  17.436  0.00  0.00    +0.000 A 
ATOM     31  O   UNL     1      50.509   1.127  17.353  0.00  0.00    +0.000 OA
ATOM     32  C   UNL     1      52.237   2.694  17.757  0.00  0.00    +0.000 A 
ATOM     33  H   UNL     1      52.310  -0.512  17.022  0.00  0.00    +0.000 HD
ENDBRANCH  20  23
ENDBRANCH  18  19
ENDBRANCH   4  18
TORSDOF 7
ENDMDL
MODEL 7
REMARK VINA RESULT:    -6.588      4.258      9.258
REMARK INTER + INTRA:         -10.222
REMARK INTER:                  -9.361
REMARK INTRA:                  -0.861
REMARK UNBOUND:                -1.131
REMARK  Name = 
REMARK  7 active torsions:
REMARK  status: ('A' for Active; 'I' for Inactive)
REMARK    1  A    between atoms: N_1  and  C_2
REMARK    2  A    between atoms: C_2  and  C_3
REMARK    3  A    between atoms: C_2  and  C_10
REMARK    4  A    between atoms: C_3  and  N_4
REMARK    5  A    between atoms: C_13  and  C_14
REMARK    6  A    between atoms: C_14  and  N_15
REMARK    7  A    between atoms: C_16  and  C_18
REMARK                            x       y       z     vdW  Elec       q    Type
REMARK                         _______ _______ _______ _____ _____    ______ ____
ROOT
ATOM      1  C   UNL     1      51.313   3.747  17.935  0.00  0.00    +0.000 A 
ATOM      2  C   UNL     1      50.821   2.542  17.407  0.00  0.00    +0.000 A 
ATOM      3  C   UNL     1      49.478   2.419  17.045  0.00  0.00    +0.000 A 
ATOM      4  C   UNL     1      48.637   3.515  17.180  0.00  0.00    +0.000 A 
ATOM      5  N   UNL     1      49.078   4.696  17.670  0.00  0.00    +0.000 NA
ATOM      6  C   UNL     1      50.385   4.785  18.013  0.00  0.00    +0.000 A 
ENDROOT
BRANCH   1   7
ATOM      7  C   UNL     1      52.771   3.935  18.375  0.00  0.00    +0.000 C 
BRANCH   7   8
ATOM      8  N   UNL     1      53.528   4.725  17.390  0.00  0.00    +0.000 NA
ATOM      9  H   UNL     1      54.427   4.285  17.215  0.00  0.00    +0.000 HD
ATOM     10  H   UNL     1      53.700   5.658  17.757  0.00  0.00    +0.000 HD
ENDBRANCH   7   8
BRANCH   7  11
ATOM     11  C   UNL     1      53.473   2.551  18.668  0.00  0.00    +0.000 C 
BRANCH  11  12
ATOM     12  N   UNL     1      54.456   1.958  17.725  0.00  0.00    +0.000 NA
ATOM     13  C   UNL     1      54.069   0.641  17.174  0.00  0.00    +0.000 C 
ATOM     14  C   UNL     1      53.978  -0.455  18.245  0.00  0.00    +0.000 C 
ATOM     15  O   UNL     1      55.244  -0.633  18.898  0.00  0.00    +0.000 OA
ATOM     16  C   UNL     1      55.725   0.596  19.460  0.00  0.00    +0.000 C 
ATOM     17  C   UNL     1      55.752   1.745  18.428  0.00  0.00    +0.000 C 
ENDBRANCH  11  12
ENDBRANCH   7  11
ENDBRANCH   1   7
BRANCH   4  18
ATOM     18  C   UNL     1      47.163   3.399  16.871  0.00  0.00    +0.000 C 
BRANCH  18  19
ATOM     19  N   UNL     1      46.785   4.384  15.884  0.00  0.00    +0.000 N 
ATOM     20  C   UNL     1      46.876   4.160  14.538  0.00  0.00    +0.000 C 
ATOM     21  O   UNL     1      47.245   3.087  14.076  0.00  0.00    +0.000 OA
ATOM     22  H   UNL     1      46.701   5.331  16.238  0.00  0.00    +0.000 HD
BRANCH  20  23
ATOM     23  C   UNL     1      46.418   5.255  13.671  0.00  0.00    +0.000 A 
ATOM     24  C   UNL     1      47.247   6.342  13.434  0.00  0.00    +0.000 A 
ATOM     25  S   UNL     1      46.594   7.473  12.336  0.00  0.00    +0.000 S 
ATOM     26  C   UNL     1      45.155   6.577  12.180  0.00  0.00    +0.000 A 
ATOM     27  N   UNL     1      44.145   7.005  11.376  0.00  0.00    +0.000 NA
ATOM     28  C   UNL     1      43.104   6.242  11.376  0.00  0.00    +0.000 A 
ATOM     29  N   UNL     1      42.979   5.092  12.107  0.00  0.00    +0.000 N 
ATOM     30  C   UNL     1      43.979   4.609  12.915  0.00  0.00    +0.000 A 
ATOM     31  O   UNL     1      43.845   3.558  13.531  0.00  0.00    +0.000 OA
ATOM     32  C   UNL     1      45.176   5.428  12.952  0.00  0.00    +0.000 A 
ATOM     33  H   UNL     1      42.137   4.537  12.062  0.00  0.00    +0.000 HD
ENDBRANCH  20  23
ENDBRANCH  18  19
ENDBRANCH   4  18
TORSDOF 7
ENDMDL
MODEL 8
REMARK VINA RESULT:    -6.572      2.345      2.951
REMARK INTER + INTRA:         -10.200
REMARK INTER:                  -9.427
REMARK INTRA:                  -0.773
REMARK UNBOUND:                -1.131
REMARK  Name = 
REMARK  7 active torsions:
REMARK  status: ('A' for Active; 'I' for Inactive)
REMARK    1  A    between atoms: N_1  and  C_2
REMARK    2  A    between atoms: C_2  and  C_3
REMARK    3  A    between atoms: C_2  and  C_10
REMARK    4  A    between atoms: C_3  and  N_4
REMARK    5  A    between atoms: C_13  and  C_14
REMARK    6  A    between atoms: C_14  and  N_15
REMARK    7  A    between atoms: C_16  and  C_18
REMARK                            x       y       z     vdW  Elec       q    Type
REMARK                         _______ _______ _______ _____ _____    ______ ____
ROOT
ATOM      1  C   UNL     1      45.604   5.210  11.576  0.00  0.00    +0.000 A 
ATOM      2  C   UNL     1      46.403   6.080  12.333  0.00  0.00    +0.000 A 
ATOM      3  C   UNL     1      46.786   5.746  13.634  0.00  0.00    +0.000 A 
ATOM      4  C   UNL     1      46.393   4.524  14.162  0.00  0.00    +0.000 A 
ATOM      5  N   UNL     1      45.636   3.653  13.457  0.00  0.00    +0.000 NA
ATOM      6  C   UNL     1      45.280   4.005  12.199  0.00  0.00    +0.000 A 
ENDROOT
BRANCH   1   7
ATOM      7  C   UNL     1      45.130   5.533  10.151  0.00  0.00    +0.000 C 
BRANCH   7   8
ATOM      8  N   UNL     1      43.684   5.301  10.006  0.00  0.00    +0.000 NA
ATOM      9  H   UNL     1      43.309   4.914  10.868  0.00  0.00    +0.000 HD
ATOM     10  H   UNL     1      43.517   4.629   9.260  0.00  0.00    +0.000 HD
ENDBRANCH   7   8
BRANCH   7  11
ATOM     11  C   UNL     1      45.956   4.732   9.069  0.00  0.00    +0.000 C 
BRANCH  11  12
ATOM     12  N   UNL     1      45.291   4.021   7.947  0.00  0.00    +0.000 NA
ATOM     13  C   UNL     1      44.663   2.734   8.315  0.00  0.00    +0.000 C 
ATOM     14  C   UNL     1      45.680   1.681   8.780  0.00  0.00    +0.000 C 
ATOM     15  O   UNL     1      46.629   1.399   7.740  0.00  0.00    +0.000 OA
ATOM     16  C   UNL     1      47.291   2.590   7.294  0.00  0.00    +0.000 C 
ATOM     17  C   UNL     1      46.296   3.702   6.895  0.00  0.00    +0.000 C 
ENDBRANCH  11  12
ENDBRANCH   7  11
ENDBRANCH   1   7
BRANCH   4  18
ATOM     18  C   UNL     1      46.723   4.159  15.591  0.00  0.00    +0.000 C 
BRANCH  18  19
ATOM     19  N   UNL     1      48.118   4.418  15.860  0.00  0.00    +0.000 N 
ATOM     20  C   UNL     1      48.544   5.157  16.929  0.00  0.00    +0.000 C 
ATOM     21  O   UNL     1      47.768   5.615  17.760  0.00  0.00    +0.000 OA
ATOM     22  H   UNL     1      48.741   4.250  15.077  0.00  0.00    +0.000 HD
BRANCH  20  23
ATOM     23  C   UNL     1      49.999   5.296  17.076  0.00  0.00    +0.000 A 
ATOM     24  C   UNL     1      50.596   6.536  16.897  0.00  0.00    +0.000 A 
ATOM     25  S   UNL     1      52.277   6.534  17.194  0.00  0.00    +0.000 S 
ATOM     26  C   UNL     1      52.275   4.863  17.519  0.00  0.00    +0.000 A 
ATOM     27  N   UNL     1      53.425   4.210  17.841  0.00  0.00    +0.000 NA
ATOM     28  C   UNL     1      53.280   2.942  18.034  0.00  0.00    +0.000 A 
ATOM     29  N   UNL     1      52.094   2.267  17.934  0.00  0.00    +0.000 N 
ATOM     30  C   UNL     1      50.906   2.887  17.634  0.00  0.00    +0.000 A 
ATOM     31  O   UNL     1      49.855   2.256  17.585  0.00  0.00    +0.000 OA
ATOM     32  C   UNL     1      51.009   4.316  17.408  0.00  0.00    +0.000 A 
ATOM     33  H   UNL     1      52.047   1.272  18.100  0.00  0.00    +0.000 HD
ENDBRANCH  20  23
ENDBRANCH  18  19
ENDBRANCH   4  18
TORSDOF 7
ENDMDL
MODEL 9
REMARK VINA RESULT:    -6.516      3.191      7.971
REMARK INTER + INTRA:         -10.123
REMARK INTER:                  -9.041
REMARK INTRA:                  -1.081
REMARK UNBOUND:                -1.131
REMARK  Name = 
REMARK  7 active torsions:
REMARK  status: ('A' for Active; 'I' for Inactive)
REMARK    1  A    between atoms: N_1  and  C_2
REMARK    2  A    between atoms: C_2  and  C_3
REMARK    3  A    between atoms: C_2  and  C_10
REMARK    4  A    between atoms: C_3  and  N_4
REMARK    5  A    between atoms: C_13  and  C_14
REMARK    6  A    between atoms: C_14  and  N_15
REMARK    7  A    between atoms: C_16  and  C_18
REMARK                            x       y       z     vdW  Elec       q    Type
REMARK                         _______ _______ _______ _____ _____    ______ ____
ROOT
ATOM      1  C   UNL     1      48.947   7.553  16.249  0.00  0.00    +0.000 A 
ATOM      2  C   UNL     1      48.371   8.741  15.769  0.00  0.00    +0.000 A 
ATOM      3  C   UNL     1      48.146   8.921  14.403  0.00  0.00    +0.000 A 
ATOM      4  C   UNL     1      48.467   7.897  13.523  0.00  0.00    +0.000 A 
ATOM      5  N   UNL     1      49.008   6.734  13.949  0.00  0.00    +0.000 NA
ATOM      6  C   UNL     1      49.216   6.588  15.279  0.00  0.00    +0.000 A 
ENDROOT
BRANCH   1   7
ATOM      7  C   UNL     1      49.242   7.307  17.735  0.00  0.00    +0.000 C 
BRANCH   7   8
ATOM      8  N   UNL     1      50.368   8.134  18.199  0.00  0.00    +0.000 NA
ATOM      9  H   UNL     1      50.390   9.007  17.678  0.00  0.00    +0.000 HD
ATOM     10  H   UNL     1      51.245   7.645  18.031  0.00  0.00    +0.000 HD
ENDBRANCH   7   8
BRANCH   7  11
ATOM     11  C   UNL     1      49.489   5.775  18.032  0.00  0.00    +0.000 C 
BRANCH  11  12
ATOM     12  N   UNL     1      48.510   4.960  18.796  0.00  0.00    +0.000 NA
ATOM     13  C   UNL     1      48.828   3.518  18.868  0.00  0.00    +0.000 C 
ATOM     14  C   UNL     1      48.794   2.826  17.497  0.00  0.00    +0.000 C 
ATOM     15  O   UNL     1      47.491   2.935  16.906  0.00  0.00    +0.000 OA
ATOM     16  C   UNL     1      47.073   4.303  16.801  0.00  0.00    +0.000 C 
ATOM     17  C   UNL     1      47.172   5.054  18.147  0.00  0.00    +0.000 C 
ENDBRANCH  11  12
ENDBRANCH   7  11
ENDBRANCH   1   7
BRANCH   4  18
ATOM     18  C   UNL     1      48.309   8.083  12.031  0.00  0.00    +0.000 C 
BRANCH  18  19
ATOM     19  N   UNL     1      47.568   6.978  11.470  0.00  0.00    +0.000 N 
ATOM     20  C   UNL     1      46.202   6.949  11.417  0.00  0.00    +0.000 C 
ATOM     21  O   UNL     1      45.511   7.885  11.804  0.00  0.00    +0.000 OA
ATOM     22  H   UNL     1      48.100   6.120  11.362  0.00  0.00    +0.000 HD
BRANCH  20  23
ATOM     23  C   UNL     1      45.607   5.765  10.782  0.00  0.00    +0.000 A 
ATOM     24  C   UNL     1      45.797   5.539   9.426  0.00  0.00    +0.000 A 
ATOM     25  S   UNL     1      45.115   4.075   8.875  0.00  0.00    +0.000 S 
ATOM     26  C   UNL     1      44.493   3.718  10.419  0.00  0.00    +0.000 A 
ATOM     27  N   UNL     1      43.777   2.583  10.642  0.00  0.00    +0.000 NA
ATOM     28  C   UNL     1      43.343   2.456  11.851  0.00  0.00    +0.000 A 
ATOM     29  N   UNL     1      43.558   3.358  12.857  0.00  0.00    +0.000 N 
ATOM     30  C   UNL     1      44.292   4.505  12.685  0.00  0.00    +0.000 A 
ATOM     31  O   UNL     1      44.493   5.277  13.617  0.00  0.00    +0.000 OA
ATOM     32  C   UNL     1      44.807   4.700  11.343  0.00  0.00    +0.000 A 
ATOM     33  H   UNL     1      43.193   3.198  13.784  0.00  0.00    +0.000 HD
ENDBRANCH  20  23
ENDBRANCH  18  19
ENDBRANCH   4  18
TORSDOF 7
ENDMDL
