MODEL 1
REMARK VINA RESULT:    -8.246      0.000      0.000
REMARK INTER + INTRA:         -10.745
REMARK INTER:                 -10.174
REMARK INTRA:                  -0.570
REMARK UNBOUND:                -0.570
REMARK  Name = 
REMARK  6 active torsions:
REMARK  status: ('A' for Active; 'I' for Inactive)
REMARK    1  A    between atoms: C_1  and  C_2
REMARK    2  A    between atoms: C_5  and  C_6
REMARK    3  A    between atoms: C_6  and  C_7
REMARK    4  A    between atoms: C_6  and  N_8
REMARK    5  A    between atoms: N_8  and  C_9
REMARK    6  A    between atoms: C_12  and  C_13
REMARK                            x       y       z     vdW  Elec       q    Type
REMARK                         _______ _______ _______ _____ _____    ______ ____
ROOT
ATOM      1  N   UNL     1      43.748   4.832   9.864  0.00  0.00    +0.000 N 
ATOM      2  H   UNL     1      44.037   5.786   9.645  0.00  0.00    +0.000 HD
ENDROOT
BRANCH   1   3
ATOM      3  C   UNL     1      44.551   3.924   9.146  0.00  0.00    +0.000 A 
ATOM      4  C   UNL     1      45.564   4.304   8.267  0.00  0.00    +0.000 A 
ATOM      5  C   UNL     1      46.378   3.350   7.644  0.00  0.00    +0.000 A 
ATOM      6  C   UNL     1      46.179   2.013   7.944  0.00  0.00    +0.000 A 
ATOM      7  N   UNL     1      45.238   1.576   8.819  0.00  0.00    +0.000 NA
ATOM      8  C   UNL     1      44.471   2.544   9.399  0.00  0.00    +0.000 A 
BRANCH   6   9
ATOM      9  C   UNL     1      47.070   0.987   7.306  0.00  0.00    +0.000 C 
ATOM     10  N   UNL     1      46.815  -0.315   7.641  0.00  0.00    +0.000 N 
ATOM     11  O   UNL     1      47.979   1.283   6.541  0.00  0.00    +0.000 OA
ATOM     12  H   UNL     1      46.080  -0.533   8.302  0.00  0.00    +0.000 HD
ATOM     13  H   UNL     1      47.420  -1.043   7.285  0.00  0.00    +0.000 HD
ENDBRANCH   6   9
ENDBRANCH   1   3
BRANCH   1  14
ATOM     14  C   UNL     1      43.585   4.686  11.333  0.00  0.00    +0.000 C 
ATOM     15  C   UNL     1      42.400   5.497  11.872  0.00  0.00    +0.000 C 
BRANCH  14  20
ATOM     16  C   UNL     1      48.203   6.313  14.443  0.00  0.00    +0.000 C 
ATOM     17  C   UNL     1      47.053   5.917  13.572  0.00  0.00    +0.000 A 
ATOM     18  C   UNL     1      46.701   6.637  12.433  0.00  0.00    +0.000 A 
ATOM     19  C   UNL     1      45.597   6.243  11.673  0.00  0.00    +0.000 A 
ATOM     20  C   UNL     1      44.860   5.125  12.070  0.00  0.00    +0.000 A 
ATOM     21  N   UNL     1      45.202   4.402  13.167  0.00  0.00    +0.000 NA
ATOM     22  C   UNL     1      46.271   4.812  13.889  0.00  0.00    +0.000 A 
ENDBRANCH  14  20
ENDBRANCH   1  14
TORSDOF 4
ENDMDL
MODEL 2
REMARK VINA RESULT:    -8.099      1.312      1.779
REMARK INTER + INTRA:         -10.563
REMARK INTER:                  -9.935
REMARK INTRA:                  -0.628
REMARK UNBOUND:                -0.570
REMARK  Name = 
REMARK  6 active torsions:
REMARK  status: ('A' for Active; 'I' for Inactive)
REMARK    1  A    between atoms: C_1  and  C_2
REMARK    2  A    between atoms: C_5  and  C_6
REMARK    3  A    between atoms: C_6  and  C_7
REMARK    4  A    between atoms: C_6  and  N_8
REMARK    5  A    between atoms: N_8  and  C_9
REMARK    6  A    between atoms: C_12  and  C_13
REMARK                            x       y       z     vdW  Elec       q    Type
REMARK                         _______ _______ _______ _____ _____    ______ ____
ROOT
ATOM      1  N   UNL     1      43.793   4.890   9.883  0.00  0.00    +0.000 N 
ATOM      2  H   UNL     1      43.993   5.869   9.679  0.00  0.00    +0.000 HD
ENDROOT
BRANCH   1   3
ATOM      3  C   UNL     1      44.727   4.073   9.216  0.00  0.00    +0.000 A 
ATOM      4  C   UNL     1      44.765   2.683   9.323  0.00  0.00    +0.000 A 
ATOM      5  C   UNL     1      45.670   1.923   8.573  0.00  0.00    +0.000 A 
ATOM      6  C   UNL     1      46.513   2.578   7.692  0.00  0.00    +0.000 A 
ATOM      7  N   UNL     1      46.504   3.924   7.509  0.00  0.00    +0.000 NA
ATOM      8  C   UNL     1      45.604   4.619   8.263  0.00  0.00    +0.000 A 
BRANCH   6   9
ATOM      9  C   UNL     1      47.463   1.767   6.858  0.00  0.00    +0.000 C 
ATOM     10  N   UNL     1      48.569   2.429   6.401  0.00  0.00    +0.000 N 
ATOM     11  O   UNL     1      47.266   0.589   6.589  0.00  0.00    +0.000 OA
ATOM     12  H   UNL     1      48.693   3.412   6.609  0.00  0.00    +0.000 HD
ATOM     13  H   UNL     1      49.214   1.947   5.788  0.00  0.00    +0.000 HD
ENDBRANCH   6   9
ENDBRANCH   1   3
BRANCH   1  14
ATOM     14  C   UNL     1      43.561   4.723  11.340  0.00  0.00    +0.000 C 
ATOM     15  C   UNL     1      42.337   5.507  11.830  0.00  0.00    +0.000 C 
BRANCH  14  20
ATOM     16  C   UNL     1      48.323   6.610  14.063  0.00  0.00    +0.000 C 
ATOM     17  C   UNL     1      47.081   6.073  13.425  0.00  0.00    +0.000 A 
ATOM     18  C   UNL     1      46.700   4.738  13.547  0.00  0.00    +0.000 A 
ATOM     19  C   UNL     1      45.548   4.281  12.904  0.00  0.00    +0.000 A 
ATOM     20  C   UNL     1      44.790   5.175  12.144  0.00  0.00    +0.000 A 
ATOM     21  N   UNL     1      45.138   6.483  12.032  0.00  0.00    +0.000 NA
ATOM     22  C   UNL     1      46.264   6.896  12.659  0.00  0.00    +0.000 A 
ENDBRANCH  14  20
ENDBRANCH   1  14
TORSDOF 4
ENDMDL
MODEL 3
REMARK VINA RESULT:    -7.245      2.787      6.166
REMARK INTER + INTRA:          -9.510
REMARK INTER:                  -9.555
REMARK INTRA:                   0.045
REMARK UNBOUND:                -0.570
REMARK  Name = 
REMARK  6 active torsions:
REMARK  status: ('A' for Active; 'I' for Inactive)
REMARK    1  A    between atoms: C_1  and  C_2
REMARK    2  A    between atoms: C_5  and  C_6
REMARK    3  A    between atoms: C_6  and  C_7
REMARK    4  A    between atoms: C_6  and  N_8
REMARK    5  A    between atoms: N_8  and  C_9
REMARK    6  A    between atoms: C_12  and  C_13
REMARK                            x       y       z     vdW  Elec       q    Type
REMARK                         _______ _______ _______ _____ _____    ______ ____
ROOT
ATOM      1  N   UNL     1      44.232   5.506  10.541  0.00  0.00    +0.000 N 
ATOM      2  H   UNL     1      43.418   6.037  10.853  0.00  0.00    +0.000 HD
ENDROOT
BRANCH   1   3
ATOM      3  C   UNL     1      45.231   5.556  11.533  0.00  0.00    +0.000 A 
ATOM      4  C   UNL     1      46.417   6.279  11.411  0.00  0.00    +0.000 A 
ATOM      5  C   UNL     1      47.334   6.350  12.466  0.00  0.00    +0.000 A 
ATOM      6  C   UNL     1      47.026   5.711  13.655  0.00  0.00    +0.000 A 
ATOM      7  N   UNL     1      45.873   5.022  13.856  0.00  0.00    +0.000 NA
ATOM      8  C   UNL     1      45.013   4.983  12.797  0.00  0.00    +0.000 A 
BRANCH   6   9
ATOM      9  C   UNL     1      47.989   5.811  14.803  0.00  0.00    +0.000 C 
ATOM     10  N   UNL     1      47.578   5.241  15.977  0.00  0.00    +0.000 N 
ATOM     11  O   UNL     1      49.073   6.373  14.710  0.00  0.00    +0.000 OA
ATOM     12  H   UNL     1      46.663   4.812  16.038  0.00  0.00    +0.000 HD
ATOM     13  H   UNL     1      48.162   5.329  16.798  0.00  0.00    +0.000 HD
ENDBRANCH   6   9
ENDBRANCH   1   3
BRANCH   1  14
ATOM     14  C   UNL     1      43.792   4.199   9.990  0.00  0.00    +0.000 C 
ATOM     15  C   UNL     1      43.434   3.192  11.089  0.00  0.00    +0.000 C 
BRANCH  14  20
ATOM     16  C   UNL     1      47.757   2.075   6.327  0.00  0.00    +0.000 C 
ATOM     17  C   UNL     1      46.762   2.569   7.328  0.00  0.00    +0.000 A 
ATOM     18  C   UNL     1      46.132   1.716   8.233  0.00  0.00    +0.000 A 
ATOM     19  C   UNL     1      45.185   2.224   9.125  0.00  0.00    +0.000 A 
ATOM     20  C   UNL     1      44.884   3.588   9.097  0.00  0.00    +0.000 A 
ATOM     21  N   UNL     1      45.503   4.434   8.235  0.00  0.00    +0.000 NA
ATOM     22  C   UNL     1      46.409   3.912   7.376  0.00  0.00    +0.000 A 
ENDBRANCH  14  20
ENDBRANCH   1  14
TORSDOF 4
ENDMDL
MODEL 4
REMARK VINA RESULT:    -6.777      3.438      6.743
REMARK INTER + INTRA:          -8.933
REMARK INTER:                  -8.439
REMARK INTRA:                  -0.494
REMARK UNBOUND:                -0.570
REMARK  Name = 
REMARK  6 active torsions:
REMARK  status: ('A' for Active; 'I' for Inactive)
REMARK    1  A    between atoms: C_1  and  C_2
REMARK    2  A    between atoms: C_5  and  C_6
REMARK    3  A    between atoms: C_6  and  C_7
REMARK    4  A    between atoms: C_6  and  N_8
REMARK    5  A    between atoms: N_8  and  C_9
REMARK    6  A    between atoms: C_12  and  C_13
REMARK                            x       y       z     vdW  Elec       q    Type
REMARK                         _______ _______ _______ _____ _____    ______ ____
ROOT
ATOM      1  N   UNL     1      45.081   4.427  11.890  0.00  0.00    +0.000 N 
ATOM      2  H   UNL     1      46.013   4.035  11.751  0.00  0.00    +0.000 HD
ENDROOT
BRANCH   1   3
ATOM      3  C   UNL     1      45.180   5.822  12.055  0.00  0.00    +0.000 A 
ATOM      4  C   UNL     1      46.200   6.455  12.764  0.00  0.00    +0.000 A 
ATOM      5  C   UNL     1      46.283   7.851  12.825  0.00  0.00    +0.000 A 
ATOM      6  C   UNL     1      45.345   8.599  12.135  0.00  0.00    +0.000 A 
ATOM      7  N   UNL     1      44.349   8.051  11.393  0.00  0.00    +0.000 NA
ATOM      8  C   UNL     1      44.312   6.687  11.367  0.00  0.00    +0.000 A 
BRANCH   6   9
ATOM      9  C   UNL     1      45.448  10.097  12.166  0.00  0.00    +0.000 C 
ATOM     10  N   UNL     1      46.710  10.605  12.307  0.00  0.00    +0.000 N 
ATOM     11  O   UNL     1      44.470  10.830  12.083  0.00  0.00    +0.000 OA
ATOM     12  H   UNL     1      47.499   9.979  12.408  0.00  0.00    +0.000 HD
ATOM     13  H   UNL     1      46.833  11.606  12.392  0.00  0.00    +0.000 HD
ENDBRANCH   6   9
ENDBRANCH   1   3
BRANCH   1  14
ATOM     14  C   UNL     1      44.147   3.858  10.885  0.00  0.00    +0.000 C 
ATOM     15  C   UNL     1      43.364   2.657  11.430  0.00  0.00    +0.000 C 
BRANCH  14  20
ATOM     16  C   UNL     1      47.222   1.981   6.338  0.00  0.00    +0.000 C 
ATOM     17  C   UNL     1      46.396   2.523   7.461  0.00  0.00    +0.000 A 
ATOM     18  C   UNL     1      46.149   3.887   7.612  0.00  0.00    +0.000 A 
ATOM     19  C   UNL     1      45.400   4.343   8.698  0.00  0.00    +0.000 A 
ATOM     20  C   UNL     1      44.905   3.420   9.622  0.00  0.00    +0.000 A 
ATOM     21  N   UNL     1      45.121   2.087   9.479  0.00  0.00    +0.000 NA
ATOM     22  C   UNL     1      45.858   1.674   8.421  0.00  0.00    +0.000 A 
ENDBRANCH  14  20
ENDBRANCH   1  14
TORSDOF 4
ENDMDL
MODEL 5
REMARK VINA RESULT:    -6.741      3.088      6.666
REMARK INTER + INTRA:          -8.887
REMARK INTER:                  -8.337
REMARK INTRA:                  -0.550
REMARK UNBOUND:                -0.570
REMARK  Name = 
REMARK  6 active torsions:
REMARK  status: ('A' for Active; 'I' for Inactive)
REMARK    1  A    between atoms: C_1  and  C_2
REMARK    2  A    between atoms: C_5  and  C_6
REMARK    3  A    between atoms: C_6  and  C_7
REMARK    4  A    between atoms: C_6  and  N_8
REMARK    5  A    between atoms: N_8  and  C_9
REMARK    6  A    between atoms: C_12  and  C_13
REMARK                            x       y       z     vdW  Elec       q    Type
REMARK                         _______ _______ _______ _____ _____    ______ ____
ROOT
ATOM      1  N   UNL     1      45.335   3.848  12.136  0.00  0.00    +0.000 N 
ATOM      2  H   UNL     1      46.110   3.207  11.963  0.00  0.00    +0.000 HD
ENDROOT
BRANCH   1   3
ATOM      3  C   UNL     1      45.844   5.121  12.458  0.00  0.00    +0.000 A 
ATOM      4  C   UNL     1      45.265   6.321  12.046  0.00  0.00    +0.000 A 
ATOM      5  C   UNL     1      45.776   7.554  12.465  0.00  0.00    +0.000 A 
ATOM      6  C   UNL     1      46.857   7.563  13.330  0.00  0.00    +0.000 A 
ATOM      7  N   UNL     1      47.446   6.434  13.801  0.00  0.00    +0.000 NA
ATOM      8  C   UNL     1      46.910   5.258  13.363  0.00  0.00    +0.000 A 
BRANCH   6   9
ATOM      9  C   UNL     1      47.390   8.881  13.812  0.00  0.00    +0.000 C 
ATOM     10  N   UNL     1      47.486   9.026  15.169  0.00  0.00    +0.000 N 
ATOM     11  O   UNL     1      47.713   9.783  13.049  0.00  0.00    +0.000 OA
ATOM     12  H   UNL     1      47.180   8.279  15.780  0.00  0.00    +0.000 HD
ATOM     13  H   UNL     1      47.784   9.914  15.550  0.00  0.00    +0.000 HD
ENDBRANCH   6   9
ENDBRANCH   1   3
BRANCH   1  14
ATOM     14  C   UNL     1      44.319   3.700  11.064  0.00  0.00    +0.000 C 
ATOM     15  C   UNL     1      43.303   2.592  11.371  0.00  0.00    +0.000 C 
BRANCH  14  20
ATOM     16  C   UNL     1      47.083   2.312   6.156  0.00  0.00    +0.000 C 
ATOM     17  C   UNL     1      46.332   2.731   7.380  0.00  0.00    +0.000 A 
ATOM     18  C   UNL     1      46.062   4.069   7.665  0.00  0.00    +0.000 A 
ATOM     19  C   UNL     1      45.386   4.408   8.839  0.00  0.00    +0.000 A 
ATOM     20  C   UNL     1      44.988   3.394   9.715  0.00  0.00    +0.000 A 
ATOM     21  N   UNL     1      45.227   2.086   9.441  0.00  0.00    +0.000 NA
ATOM     22  C   UNL     1      45.892   1.788   8.301  0.00  0.00    +0.000 A 
ENDBRANCH  14  20
ENDBRANCH   1  14
TORSDOF 4
ENDMDL
MODEL 6
REMARK VINA RESULT:    -6.104      2.206      2.986
REMARK INTER + INTRA:          -8.102
REMARK INTER:                  -7.641
REMARK INTRA:                  -0.461
REMARK UNBOUND:                -0.570
REMARK  Name = 
REMARK  6 active torsions:
REMARK  status: ('A' for Active; 'I' for Inactive)
REMARK    1  A    between atoms: C_1  and  C_2
REMARK    2  A    between atoms: C_5  and  C_6
REMARK    3  A    between atoms: C_6  and  C_7
REMARK    4  A    between atoms: C_6  and  N_8
REMARK    5  A    between atoms: N_8  and  C_9
REMARK    6  A    between atoms: C_12  and  C_13
REMARK                            x       y       z     vdW  Elec       q    Type
REMARK                         _______ _______ _______ _____ _____    ______ ____
ROOT
ATOM      1  N   UNL     1      44.347   5.072  10.759  0.00  0.00    +0.000 N 
ATOM      2  H   UNL     1      43.876   5.861  10.315  0.00  0.00    +0.000 HD
ENDROOT
BRANCH   1   3
ATOM      3  C   UNL     1      45.010   4.310   9.776  0.00  0.00    +0.000 A 
ATOM      4  C   UNL     1      44.886   2.928   9.645  0.00  0.00    +0.000 A 
ATOM      5  C   UNL     1      45.511   2.240   8.598  0.00  0.00    +0.000 A 
ATOM      6  C   UNL     1      46.235   2.968   7.668  0.00  0.00    +0.000 A 
ATOM      7  N   UNL     1      46.366   4.319   7.713  0.00  0.00    +0.000 NA
ATOM      8  C   UNL     1      45.738   4.941   8.753  0.00  0.00    +0.000 A 
BRANCH   6   9
ATOM      9  C   UNL     1      46.880   2.242   6.523  0.00  0.00    +0.000 C 
ATOM     10  N   UNL     1      47.217   0.937   6.759  0.00  0.00    +0.000 N 
ATOM     11  O   UNL     1      47.105   2.775   5.444  0.00  0.00    +0.000 OA
ATOM     12  H   UNL     1      47.052   0.528   7.670  0.00  0.00    +0.000 HD
ATOM     13  H   UNL     1      47.706   0.417   6.042  0.00  0.00    +0.000 HD
ENDBRANCH   6   9
ENDBRANCH   1   3
BRANCH   1  14
ATOM     14  C   UNL     1      45.082   5.543  11.960  0.00  0.00    +0.000 C 
ATOM     15  C   UNL     1      44.459   5.032  13.264  0.00  0.00    +0.000 C 
BRANCH  14  20
ATOM     16  C   UNL     1      45.251  11.338  11.747  0.00  0.00    +0.000 C 
ATOM     17  C   UNL     1      45.225   9.849  11.883  0.00  0.00    +0.000 A 
ATOM     18  C   UNL     1      46.095   9.164  12.729  0.00  0.00    +0.000 A 
ATOM     19  C   UNL     1      46.051   7.770  12.794  0.00  0.00    +0.000 A 
ATOM     20  C   UNL     1      45.128   7.079  12.004  0.00  0.00    +0.000 A 
ATOM     21  N   UNL     1      44.261   7.733  11.189  0.00  0.00    +0.000 NA
ATOM     22  C   UNL     1      44.333   9.083  11.141  0.00  0.00    +0.000 A 
ENDBRANCH  14  20
ENDBRANCH   1  14
TORSDOF 4
ENDMDL
MODEL 7
REMARK VINA RESULT:    -6.073      3.604      6.998
REMARK INTER + INTRA:          -8.063
REMARK INTER:                  -7.550
REMARK INTRA:                  -0.513
REMARK UNBOUND:                -0.570
REMARK  Name = 
REMARK  6 active torsions:
REMARK  status: ('A' for Active; 'I' for Inactive)
REMARK    1  A    between atoms: C_1  and  C_2
REMARK    2  A    between atoms: C_5  and  C_6
REMARK    3  A    between atoms: C_6  and  C_7
REMARK    4  A    between atoms: C_6  and  N_8
REMARK    5  A    between atoms: N_8  and  C_9
REMARK    6  A    between atoms: C_12  and  C_13
REMARK                            x       y       z     vdW  Elec       q    Type
REMARK                         _______ _______ _______ _____ _____    ______ ____
ROOT
ATOM      1  N   UNL     1      45.795   3.930  13.582  0.00  0.00    +0.000 N 
ATOM      2  H   UNL     1      46.209   3.180  13.027  0.00  0.00    +0.000 HD
ENDROOT
BRANCH   1   3
ATOM      3  C   UNL     1      46.818   4.663  14.215  0.00  0.00    +0.000 A 
ATOM      4  C   UNL     1      47.312   5.879  13.745  0.00  0.00    +0.000 A 
ATOM      5  C   UNL     1      48.277   6.596  14.464  0.00  0.00    +0.000 A 
ATOM      6  C   UNL     1      48.711   6.087  15.677  0.00  0.00    +0.000 A 
ATOM      7  N   UNL     1      48.245   4.929  16.212  0.00  0.00    +0.000 NA
ATOM      8  C   UNL     1      47.307   4.270  15.472  0.00  0.00    +0.000 A 
BRANCH   6   9
ATOM      9  C   UNL     1      49.719   6.867  16.470  0.00  0.00    +0.000 C 
ATOM     10  N   UNL     1      50.716   6.133  17.053  0.00  0.00    +0.000 N 
ATOM     11  O   UNL     1      49.660   8.082  16.604  0.00  0.00    +0.000 OA
ATOM     12  H   UNL     1      50.725   5.125  16.956  0.00  0.00    +0.000 HD
ATOM     13  H   UNL     1      51.390   6.599  17.646  0.00  0.00    +0.000 HD
ENDBRANCH   6   9
ENDBRANCH   1   3
BRANCH   1  14
ATOM     14  C   UNL     1      44.762   4.632  12.777  0.00  0.00    +0.000 C 
ATOM     15  C   UNL     1      43.338   4.207  13.157  0.00  0.00    +0.000 C 
BRANCH  14  20
ATOM     16  C   UNL     1      45.731   3.337   7.206  0.00  0.00    +0.000 C 
ATOM     17  C   UNL     1      45.457   3.747   8.618  0.00  0.00    +0.000 A 
ATOM     18  C   UNL     1      45.709   5.037   9.081  0.00  0.00    +0.000 A 
ATOM     19  C   UNL     1      45.467   5.358  10.418  0.00  0.00    +0.000 A 
ATOM     20  C   UNL     1      44.971   4.374  11.277  0.00  0.00    +0.000 A 
ATOM     21  N   UNL     1      44.702   3.118  10.837  0.00  0.00    +0.000 NA
ATOM     22  C   UNL     1      44.955   2.833   9.538  0.00  0.00    +0.000 A 
ENDBRANCH  14  20
ENDBRANCH   1  14
TORSDOF 4
ENDMDL
MODEL 8
REMARK VINA RESULT:    -5.919      4.027      6.224
REMARK INTER + INTRA:          -7.873
REMARK INTER:                  -7.421
REMARK INTRA:                  -0.452
REMARK UNBOUND:                -0.570
REMARK  Name = 
REMARK  6 active torsions:
REMARK  status: ('A' for Active; 'I' for Inactive)
REMARK    1  A    between atoms: C_1  and  C_2
REMARK    2  A    between atoms: C_5  and  C_6
REMARK    3  A    between atoms: C_6  and  C_7
REMARK    4  A    between atoms: C_6  and  N_8
REMARK    5  A    between atoms: N_8  and  C_9
REMARK    6  A    between atoms: C_12  and  C_13
REMARK                            x       y       z     vdW  Elec       q    Type
REMARK                         _______ _______ _______ _____ _____    ______ ____
ROOT
ATOM      1  N   UNL     1      47.695   5.030  15.395  0.00  0.00    +0.000 N 
ATOM      2  H   UNL     1      48.645   5.068  15.023  0.00  0.00    +0.000 HD
ENDROOT
BRANCH   1   3
ATOM      3  C   UNL     1      46.803   4.672  14.365  0.00  0.00    +0.000 A 
ATOM      4  C   UNL     1      46.029   5.585  13.651  0.00  0.00    +0.000 A 
ATOM      5  C   UNL     1      45.219   5.172  12.586  0.00  0.00    +0.000 A 
ATOM      6  C   UNL     1      45.226   3.834  12.231  0.00  0.00    +0.000 A 
ATOM      7  N   UNL     1      45.984   2.898  12.857  0.00  0.00    +0.000 NA
ATOM      8  C   UNL     1      46.755   3.352  13.887  0.00  0.00    +0.000 A 
BRANCH   6   9
ATOM      9  C   UNL     1      44.387   3.389  11.068  0.00  0.00    +0.000 C 
ATOM     10  N   UNL     1      44.981   2.507  10.207  0.00  0.00    +0.000 N 
ATOM     11  O   UNL     1      43.244   3.790  10.884  0.00  0.00    +0.000 OA
ATOM     12  H   UNL     1      45.938   2.216  10.361  0.00  0.00    +0.000 HD
ATOM     13  H   UNL     1      44.482   2.218   9.375  0.00  0.00    +0.000 HD
ENDBRANCH   6   9
ENDBRANCH   1   3
BRANCH   1  14
ATOM     14  C   UNL     1      47.693   4.282  16.678  0.00  0.00    +0.000 C 
ATOM     15  C   UNL     1      47.214   5.143  17.854  0.00  0.00    +0.000 C 
BRANCH  14  20
ATOM     16  C   UNL     1      52.824   1.938  18.031  0.00  0.00    +0.000 C 
ATOM     17  C   UNL     1      51.540   2.615  17.668  0.00  0.00    +0.000 A 
ATOM     18  C   UNL     1      51.278   3.942  18.004  0.00  0.00    +0.000 A 
ATOM     19  C   UNL     1      50.049   4.515  17.670  0.00  0.00    +0.000 A 
ATOM     20  C   UNL     1      49.096   3.745  16.999  0.00  0.00    +0.000 A 
ATOM     21  N   UNL     1      49.344   2.456  16.649  0.00  0.00    +0.000 NA
ATOM     22  C   UNL     1      50.540   1.925  16.993  0.00  0.00    +0.000 A 
ENDBRANCH  14  20
ENDBRANCH   1  14
TORSDOF 4
ENDMDL
MODEL 9
REMARK VINA RESULT:    -5.588      3.488      5.380
REMARK INTER + INTRA:          -7.465
REMARK INTER:                  -6.958
REMARK INTRA:                  -0.507
REMARK UNBOUND:                -0.570
REMARK  Name = 
REMARK  6 active torsions:
REMARK  status: ('A' for Active; 'I' for Inactive)
REMARK    1  A    between atoms: C_1  and  C_2
REMARK    2  A    between atoms: C_5  and  C_6
REMARK    3  A    between atoms: C_6  and  C_7
REMARK    4  A    between atoms: C_6  and  N_8
REMARK    5  A    between atoms: N_8  and  C_9
REMARK    6  A    between atoms: C_12  and  C_13
REMARK                            x       y       z     vdW  Elec       q    Type
REMARK                         _______ _______ _______ _____ _____    ______ ____
ROOT
ATOM      1  N   UNL     1      46.868   7.027  13.645  0.00  0.00    +0.000 N 
ATOM      2  H   UNL     1      46.640   7.948  13.271  0.00  0.00    +0.000 HD
ENDROOT
BRANCH   1   3
ATOM      3  C   UNL     1      46.094   6.050  12.987  0.00  0.00    +0.000 A 
ATOM      4  C   UNL     1      45.692   6.140  11.655  0.00  0.00    +0.000 A 
ATOM      5  C   UNL     1      44.989   5.098  11.039  0.00  0.00    +0.000 A 
ATOM      6  C   UNL     1      44.728   3.953  11.771  0.00  0.00    +0.000 A 
ATOM      7  N   UNL     1      45.123   3.782  13.059  0.00  0.00    +0.000 NA
ATOM      8  C   UNL     1      45.804   4.827  13.613  0.00  0.00    +0.000 A 
BRANCH   6   9
ATOM      9  C   UNL     1      44.005   2.817  11.106  0.00  0.00    +0.000 C 
ATOM     10  N   UNL     1      44.593   2.316   9.977  0.00  0.00    +0.000 N 
ATOM     11  O   UNL     1      42.950   2.364  11.532  0.00  0.00    +0.000 OA
ATOM     12  H   UNL     1      45.447   2.730   9.625  0.00  0.00    +0.000 HD
ATOM     13  H   UNL     1      44.120   1.588   9.456  0.00  0.00    +0.000 HD
ENDBRANCH   6   9
ENDBRANCH   1   3
BRANCH   1  14
ATOM     14  C   UNL     1      48.343   6.877  13.733  0.00  0.00    +0.000 C 
ATOM     15  C   UNL     1      48.854   6.966  15.176  0.00  0.00    +0.000 C 
BRANCH  14  20
ATOM     16  C   UNL     1      51.210  11.028  10.870  0.00  0.00    +0.000 C 
ATOM     17  C   UNL     1      50.421   9.950  11.542  0.00  0.00    +0.000 A 
ATOM     18  C   UNL     1      49.042   9.828  11.382  0.00  0.00    +0.000 A 
ATOM     19  C   UNL     1      48.348   8.823  12.059  0.00  0.00    +0.000 A 
ATOM     20  C   UNL     1      49.052   7.949  12.891  0.00  0.00    +0.000 A 
ATOM     21  N   UNL     1      50.398   8.043  13.042  0.00  0.00    +0.000 NA
ATOM     22  C   UNL     1      51.043   9.032  12.381  0.00  0.00    +0.000 A 
ENDBRANCH  14  20
ENDBRANCH   1  14
TORSDOF 4
ENDMDL
