MODEL 1
REMARK VINA RESULT:    -6.877      0.000      0.000
REMARK INTER + INTRA:          -8.711
REMARK INTER:                  -8.485
REMARK INTRA:                  -0.226
REMARK UNBOUND:                -0.226
REMARK  Name = 
REMARK  6 active torsions:
REMARK  status: ('A' for Active; 'I' for Inactive)
REMARK    1  A    between atoms: C_1  and  C_2
REMARK    2  A    between atoms: C_3  and  C_4
REMARK    3  A    between atoms: C_7  and  C_8
REMARK    4  A    between atoms: C_15  and  C_16
REMARK    5  A    between atoms: C_15  and  C_17
REMARK    6  A    between atoms: C_20  and  C_21
REMARK                            x       y       z     vdW  Elec       q    Type
REMARK                         _______ _______ _______ _____ _____    ______ ____
ROOT
ATOM      1  C   UNL     1      46.497   6.059  10.302  0.00  0.00    +0.000 C 
ATOM      2  C   UNL     1      45.146   5.722  10.951  0.00  0.00    +0.000 C 
ATOM      3  C   UNL     1      44.602   4.288  10.603  0.00  0.00    +0.000 C 
ATOM      4  C   UNL     1      44.696   3.454  11.897  0.00  0.00    +0.000 C 
ATOM      5  C   UNL     1      45.464   4.311  12.887  0.00  0.00    +0.000 C 
ATOM      6  C   UNL     1      45.138   5.777  12.516  0.00  0.00    +0.000 C 
ATOM      7  C   UNL     1      43.708   6.114  13.016  0.00  0.00    +0.000 C 
ENDROOT
BRANCH   3   8
ATOM      8  C   UNL     1      45.207   3.627   9.378  0.00  0.00    +0.000 A 
ATOM      9  C   UNL     1      45.435   2.244   9.321  0.00  0.00    +0.000 A 
ATOM     10  C   UNL     1      46.082   1.670   8.229  0.00  0.00    +0.000 A 
ATOM     11  C   UNL     1      46.512   2.466   7.163  0.00  0.00    +0.000 A 
ATOM     12  C   UNL     1      46.271   3.843   7.194  0.00  0.00    +0.000 A 
ATOM     13  C   UNL     1      45.625   4.420   8.296  0.00  0.00    +0.000 A 
BRANCH  11  14
ATOM     14  C   UNL     1      47.273   1.808   6.070  0.00  0.00    +0.000 C 
ATOM     15  N   UNL     1      47.999   2.602   5.229  0.00  0.00    +0.000 N 
ATOM     16  O   UNL     1      47.235   0.594   5.905  0.00  0.00    +0.000 OA
ATOM     17  H   UNL     1      47.914   3.607   5.203  0.00  0.00    +0.000 HD
ATOM     18  H   UNL     1      48.434   2.137   4.442  0.00  0.00    +0.000 HD
ENDBRANCH  11  14
ENDBRANCH   3   8
BRANCH   6  19
ATOM     19  C   UNL     1      46.117   6.754  13.173  0.00  0.00    +0.000 A 
ATOM     20  C   UNL     1      47.284   6.310  13.798  0.00  0.00    +0.000 A 
ATOM     21  C   UNL     1      48.182   7.248  14.324  0.00  0.00    +0.000 A 
ATOM     22  C   UNL     1      47.901   8.612  14.235  0.00  0.00    +0.000 A 
ATOM     23  C   UNL     1      46.715   8.968  13.618  0.00  0.00    +0.000 A 
ATOM     24  N   UNL     1      45.834   8.078  13.088  0.00  0.00    +0.000 NA
BRANCH  22  25
ATOM     25  C   UNL     1      48.871   9.590  14.784  0.00  0.00    +0.000 C 
ATOM     26  N   UNL     1      48.539  10.917  14.814  0.00  0.00    +0.000 N 
ATOM     27  O   UNL     1      49.958   9.225  15.209  0.00  0.00    +0.000 OA
ATOM     28  H   UNL     1      47.669  11.321  14.506  0.00  0.00    +0.000 HD
ATOM     29  H   UNL     1      49.232  11.544  15.202  0.00  0.00    +0.000 HD
ENDBRANCH  22  25
ENDBRANCH   6  19
TORSDOF 4
ENDMDL
MODEL 2
REMARK VINA RESULT:    -6.211      2.544      8.215
REMARK INTER + INTRA:          -7.889
REMARK INTER:                  -7.215
REMARK INTRA:                  -0.674
REMARK UNBOUND:                -0.226
REMARK  Name = 
REMARK  6 active torsions:
REMARK  status: ('A' for Active; 'I' for Inactive)
REMARK    1  A    between atoms: C_1  and  C_2
REMARK    2  A    between atoms: C_3  and  C_4
REMARK    3  A    between atoms: C_7  and  C_8
REMARK    4  A    between atoms: C_15  and  C_16
REMARK    5  A    between atoms: C_15  and  C_17
REMARK    6  A    between atoms: C_20  and  C_21
REMARK                            x       y       z     vdW  Elec       q    Type
REMARK                         _______ _______ _______ _____ _____    ______ ____
ROOT
ATOM      1  C   UNL     1      46.735   3.419  12.401  0.00  0.00    +0.000 C 
ATOM      2  C   UNL     1      45.400   4.175  12.484  0.00  0.00    +0.000 C 
ATOM      3  C   UNL     1      45.402   5.379  13.497  0.00  0.00    +0.000 C 
ATOM      4  C   UNL     1      45.335   6.668  12.653  0.00  0.00    +0.000 C 
ATOM      5  C   UNL     1      45.508   6.226  11.210  0.00  0.00    +0.000 C 
ATOM      6  C   UNL     1      44.914   4.800  11.133  0.00  0.00    +0.000 C 
ATOM      7  C   UNL     1      43.365   4.901  11.136  0.00  0.00    +0.000 C 
ENDROOT
BRANCH   3   8
ATOM      8  C   UNL     1      46.501   5.364  14.544  0.00  0.00    +0.000 A 
ATOM      9  C   UNL     1      47.552   6.293  14.527  0.00  0.00    +0.000 A 
ATOM     10  C   UNL     1      48.603   6.203  15.435  0.00  0.00    +0.000 A 
ATOM     11  C   UNL     1      48.626   5.181  16.390  0.00  0.00    +0.000 A 
ATOM     12  C   UNL     1      47.575   4.260  16.436  0.00  0.00    +0.000 A 
ATOM     13  C   UNL     1      46.520   4.350  15.517  0.00  0.00    +0.000 A 
BRANCH  11  14
ATOM     14  C   UNL     1      49.817   5.085  17.274  0.00  0.00    +0.000 C 
ATOM     15  N   UNL     1      49.607   4.857  18.604  0.00  0.00    +0.000 N 
ATOM     16  O   UNL     1      50.952   5.231  16.836  0.00  0.00    +0.000 OA
ATOM     17  H   UNL     1      48.701   4.919  19.042  0.00  0.00    +0.000 HD
ATOM     18  H   UNL     1      50.429   4.886  19.195  0.00  0.00    +0.000 HD
ENDBRANCH  11  14
ENDBRANCH   3   8
BRANCH   6  19
ATOM     19  C   UNL     1      45.344   4.080   9.851  0.00  0.00    +0.000 A 
ATOM     20  C   UNL     1      45.928   4.770   8.787  0.00  0.00    +0.000 A 
ATOM     21  C   UNL     1      46.368   4.057   7.664  0.00  0.00    +0.000 A 
ATOM     22  C   UNL     1      46.207   2.672   7.608  0.00  0.00    +0.000 A 
ATOM     23  C   UNL     1      45.602   2.067   8.694  0.00  0.00    +0.000 A 
ATOM     24  N   UNL     1      45.179   2.735   9.801  0.00  0.00    +0.000 NA
BRANCH  22  25
ATOM     25  C   UNL     1      46.692   1.933   6.417  0.00  0.00    +0.000 C 
ATOM     26  N   UNL     1      46.770   2.579   5.213  0.00  0.00    +0.000 N 
ATOM     27  O   UNL     1      47.023   0.758   6.500  0.00  0.00    +0.000 OA
ATOM     28  H   UNL     1      46.539   3.544   5.039  0.00  0.00    +0.000 HD
ATOM     29  H   UNL     1      47.111   2.033   4.432  0.00  0.00    +0.000 HD
ENDBRANCH  22  25
ENDBRANCH   6  19
TORSDOF 4
ENDMDL
MODEL 3
REMARK VINA RESULT:    -6.176      3.322      4.993
REMARK INTER + INTRA:          -7.846
REMARK INTER:                  -6.866
REMARK INTRA:                  -0.980
REMARK UNBOUND:                -0.226
REMARK  Name = 
REMARK  6 active torsions:
REMARK  status: ('A' for Active; 'I' for Inactive)
REMARK    1  A    between atoms: C_1  and  C_2
REMARK    2  A    between atoms: C_3  and  C_4
REMARK    3  A    between atoms: C_7  and  C_8
REMARK    4  A    between atoms: C_15  and  C_16
REMARK    5  A    between atoms: C_15  and  C_17
REMARK    6  A    between atoms: C_20  and  C_21
REMARK                            x       y       z     vdW  Elec       q    Type
REMARK                         _______ _______ _______ _____ _____    ______ ____
ROOT
ATOM      1  C   UNL     1      48.632   6.245  12.497  0.00  0.00    +0.000 C 
ATOM      2  C   UNL     1      48.215   7.694  12.204  0.00  0.00    +0.000 C 
ATOM      3  C   UNL     1      46.666   7.896  12.025  0.00  0.00    +0.000 C 
ATOM      4  C   UNL     1      46.178   8.690  13.255  0.00  0.00    +0.000 C 
ATOM      5  C   UNL     1      47.362   8.749  14.204  0.00  0.00    +0.000 C 
ATOM      6  C   UNL     1      48.621   8.729  13.307  0.00  0.00    +0.000 C 
ATOM      7  C   UNL     1      48.801  10.129  12.664  0.00  0.00    +0.000 C 
ENDROOT
BRANCH   3   8
ATOM      8  C   UNL     1      45.863   6.645  11.719  0.00  0.00    +0.000 A 
ATOM      9  C   UNL     1      45.157   5.957  12.717  0.00  0.00    +0.000 A 
ATOM     10  C   UNL     1      44.509   4.756  12.438  0.00  0.00    +0.000 A 
ATOM     11  C   UNL     1      44.546   4.217  11.148  0.00  0.00    +0.000 A 
ATOM     12  C   UNL     1      45.226   4.902  10.136  0.00  0.00    +0.000 A 
ATOM     13  C   UNL     1      45.882   6.107  10.422  0.00  0.00    +0.000 A 
BRANCH  11  14
ATOM     14  C   UNL     1      43.910   2.891  10.934  0.00  0.00    +0.000 C 
ATOM     15  N   UNL     1      44.372   2.121   9.905  0.00  0.00    +0.000 N 
ATOM     16  O   UNL     1      42.984   2.504  11.637  0.00  0.00    +0.000 OA
ATOM     17  H   UNL     1      44.994   2.465   9.189  0.00  0.00    +0.000 HD
ATOM     18  H   UNL     1      43.863   1.264   9.728  0.00  0.00    +0.000 HD
ENDBRANCH  11  14
ENDBRANCH   3   8
BRANCH   6  19
ATOM     19  C   UNL     1      49.882   8.409  14.116  0.00  0.00    +0.000 A 
ATOM     20  C   UNL     1      49.811   7.794  15.367  0.00  0.00    +0.000 A 
ATOM     21  C   UNL     1      50.994   7.459  16.038  0.00  0.00    +0.000 A 
ATOM     22  C   UNL     1      52.231   7.754  15.463  0.00  0.00    +0.000 A 
ATOM     23  C   UNL     1      52.215   8.382  14.230  0.00  0.00    +0.000 A 
ATOM     24  N   UNL     1      51.080   8.704  13.554  0.00  0.00    +0.000 NA
BRANCH  22  25
ATOM     25  C   UNL     1      53.474   7.379  16.181  0.00  0.00    +0.000 C 
ATOM     26  N   UNL     1      54.233   6.343  15.709  0.00  0.00    +0.000 N 
ATOM     27  O   UNL     1      53.826   7.984  17.184  0.00  0.00    +0.000 OA
ATOM     28  H   UNL     1      54.044   5.792  14.887  0.00  0.00    +0.000 HD
ATOM     29  H   UNL     1      55.073   6.129  16.230  0.00  0.00    +0.000 HD
ENDBRANCH  22  25
ENDBRANCH   6  19
TORSDOF 4
ENDMDL
MODEL 4
REMARK VINA RESULT:    -6.073      1.955      8.238
REMARK INTER + INTRA:          -7.719
REMARK INTER:                  -6.783
REMARK INTRA:                  -0.936
REMARK UNBOUND:                -0.226
REMARK  Name = 
REMARK  6 active torsions:
REMARK  status: ('A' for Active; 'I' for Inactive)
REMARK    1  A    between atoms: C_1  and  C_2
REMARK    2  A    between atoms: C_3  and  C_4
REMARK    3  A    between atoms: C_7  and  C_8
REMARK    4  A    between atoms: C_15  and  C_16
REMARK    5  A    between atoms: C_15  and  C_17
REMARK    6  A    between atoms: C_20  and  C_21
REMARK                            x       y       z     vdW  Elec       q    Type
REMARK                         _______ _______ _______ _____ _____    ______ ____
ROOT
ATOM      1  C   UNL     1      47.612   6.432  12.139  0.00  0.00    +0.000 C 
ATOM      2  C   UNL     1      46.240   6.671  12.787  0.00  0.00    +0.000 C 
ATOM      3  C   UNL     1      45.994   8.154  13.250  0.00  0.00    +0.000 C 
ATOM      4  C   UNL     1      44.926   8.742  12.305  0.00  0.00    +0.000 C 
ATOM      5  C   UNL     1      44.729   7.707  11.211  0.00  0.00    +0.000 C 
ATOM      6  C   UNL     1      45.014   6.337  11.871  0.00  0.00    +0.000 C 
ATOM      7  C   UNL     1      43.800   5.942  12.752  0.00  0.00    +0.000 C 
ENDROOT
BRANCH   3   8
ATOM      8  C   UNL     1      47.235   9.012  13.416  0.00  0.00    +0.000 A 
ATOM      9  C   UNL     1      47.682   9.870  12.400  0.00  0.00    +0.000 A 
ATOM     10  C   UNL     1      48.876  10.574  12.531  0.00  0.00    +0.000 A 
ATOM     11  C   UNL     1      49.652  10.442  13.687  0.00  0.00    +0.000 A 
ATOM     12  C   UNL     1      49.209   9.609  14.719  0.00  0.00    +0.000 A 
ATOM     13  C   UNL     1      48.009   8.897  14.583  0.00  0.00    +0.000 A 
BRANCH  11  14
ATOM     14  C   UNL     1      50.957  11.150  13.730  0.00  0.00    +0.000 C 
ATOM     15  N   UNL     1      51.566  11.438  12.542  0.00  0.00    +0.000 N 
ATOM     16  O   UNL     1      51.489  11.448  14.793  0.00  0.00    +0.000 OA
ATOM     17  H   UNL     1      51.269  11.053  11.658  0.00  0.00    +0.000 HD
ATOM     18  H   UNL     1      52.493  11.841  12.603  0.00  0.00    +0.000 HD
ENDBRANCH  11  14
ENDBRANCH   3   8
BRANCH   6  19
ATOM     19  C   UNL     1      45.221   5.240  10.822  0.00  0.00    +0.000 A 
ATOM     20  C   UNL     1      45.671   5.536   9.534  0.00  0.00    +0.000 A 
ATOM     21  C   UNL     1      45.910   4.492   8.632  0.00  0.00    +0.000 A 
ATOM     22  C   UNL     1      45.685   3.170   9.017  0.00  0.00    +0.000 A 
ATOM     23  C   UNL     1      45.222   2.963  10.304  0.00  0.00    +0.000 A 
ATOM     24  N   UNL     1      44.995   3.959  11.202  0.00  0.00    +0.000 NA
BRANCH  22  25
ATOM     25  C   UNL     1      45.959   2.076   8.053  0.00  0.00    +0.000 C 
ATOM     26  N   UNL     1      46.303   2.388   6.767  0.00  0.00    +0.000 N 
ATOM     27  O   UNL     1      45.881   0.904   8.396  0.00  0.00    +0.000 OA
ATOM     28  H   UNL     1      46.411   3.315   6.386  0.00  0.00    +0.000 HD
ATOM     29  H   UNL     1      46.484   1.607   6.149  0.00  0.00    +0.000 HD
ENDBRANCH  22  25
ENDBRANCH   6  19
TORSDOF 4
ENDMDL
MODEL 5
REMARK VINA RESULT:    -5.993      3.309      8.202
REMARK INTER + INTRA:          -7.620
REMARK INTER:                  -6.777
REMARK INTRA:                  -0.843
REMARK UNBOUND:                -0.226
REMARK  Name = 
REMARK  6 active torsions:
REMARK  status: ('A' for Active; 'I' for Inactive)
REMARK    1  A    between atoms: C_1  and  C_2
REMARK    2  A    between atoms: C_3  and  C_4
REMARK    3  A    between atoms: C_7  and  C_8
REMARK    4  A    between atoms: C_15  and  C_16
REMARK    5  A    between atoms: C_15  and  C_17
REMARK    6  A    between atoms: C_20  and  C_21
REMARK                            x       y       z     vdW  Elec       q    Type
REMARK                         _______ _______ _______ _____ _____    ______ ____
ROOT
ATOM      1  C   UNL     1      48.139   6.432  13.800  0.00  0.00    +0.000 C 
ATOM      2  C   UNL     1      47.421   7.787  13.702  0.00  0.00    +0.000 C 
ATOM      3  C   UNL     1      48.385   9.016  13.518  0.00  0.00    +0.000 C 
ATOM      4  C   UNL     1      48.173   9.533  12.080  0.00  0.00    +0.000 C 
ATOM      5  C   UNL     1      47.284   8.507  11.399  0.00  0.00    +0.000 C 
ATOM      6  C   UNL     1      46.403   7.905  12.518  0.00  0.00    +0.000 C 
ATOM      7  C   UNL     1      45.295   8.927  12.887  0.00  0.00    +0.000 C 
ENDROOT
BRANCH   3   8
ATOM      8  C   UNL     1      49.835   8.787  13.901  0.00  0.00    +0.000 A 
ATOM      9  C   UNL     1      50.860   8.774  12.944  0.00  0.00    +0.000 A 
ATOM     10  C   UNL     1      52.170   8.463  13.301  0.00  0.00    +0.000 A 
ATOM     11  C   UNL     1      52.488   8.163  14.629  0.00  0.00    +0.000 A 
ATOM     12  C   UNL     1      51.483   8.195  15.600  0.00  0.00    +0.000 A 
ATOM     13  C   UNL     1      50.164   8.502  15.237  0.00  0.00    +0.000 A 
BRANCH  11  14
ATOM     14  C   UNL     1      53.885   7.755  14.931  0.00  0.00    +0.000 C 
ATOM     15  N   UNL     1      54.278   6.502  14.557  0.00  0.00    +0.000 N 
ATOM     16  O   UNL     1      54.657   8.502  15.519  0.00  0.00    +0.000 OA
ATOM     17  H   UNL     1      53.636   5.787  14.246  0.00  0.00    +0.000 HD
ATOM     18  H   UNL     1      55.203   6.219  14.854  0.00  0.00    +0.000 HD
ENDBRANCH  11  14
ENDBRANCH   3   8
BRANCH   6  19
ATOM     19  C   UNL     1      45.726   6.608  12.064  0.00  0.00    +0.000 A 
ATOM     20  C   UNL     1      45.918   6.094  10.780  0.00  0.00    +0.000 A 
ATOM     21  C   UNL     1      45.333   4.870  10.435  0.00  0.00    +0.000 A 
ATOM     22  C   UNL     1      44.553   4.181  11.364  0.00  0.00    +0.000 A 
ATOM     23  C   UNL     1      44.395   4.767  12.607  0.00  0.00    +0.000 A 
ATOM     24  N   UNL     1      44.964   5.948  12.970  0.00  0.00    +0.000 NA
BRANCH  22  25
ATOM     25  C   UNL     1      43.953   2.878  10.985  0.00  0.00    +0.000 C 
ATOM     26  N   UNL     1      44.491   2.171   9.945  0.00  0.00    +0.000 N 
ATOM     27  O   UNL     1      42.988   2.432  11.590  0.00  0.00    +0.000 OA
ATOM     28  H   UNL     1      45.290   2.438   9.392  0.00  0.00    +0.000 HD
ATOM     29  H   UNL     1      44.049   1.286   9.728  0.00  0.00    +0.000 HD
ENDBRANCH  22  25
ENDBRANCH   6  19
TORSDOF 4
ENDMDL
MODEL 6
REMARK VINA RESULT:    -5.975      4.129      6.401
REMARK INTER + INTRA:          -7.598
REMARK INTER:                  -6.601
REMARK INTRA:                  -0.997
REMARK UNBOUND:                -0.226
REMARK  Name = 
REMARK  6 active torsions:
REMARK  status: ('A' for Active; 'I' for Inactive)
REMARK    1  A    between atoms: C_1  and  C_2
REMARK    2  A    between atoms: C_3  and  C_4
REMARK    3  A    between atoms: C_7  and  C_8
REMARK    4  A    between atoms: C_15  and  C_16
REMARK    5  A    between atoms: C_15  and  C_17
REMARK    6  A    between atoms: C_20  and  C_21
REMARK                            x       y       z     vdW  Elec       q    Type
REMARK                         _______ _______ _______ _____ _____    ______ ____
ROOT
ATOM      1  C   UNL     1      48.184   5.764  14.421  0.00  0.00    +0.000 C 
ATOM      2  C   UNL     1      49.032   6.935  13.901  0.00  0.00    +0.000 C 
ATOM      3  C   UNL     1      48.236   7.968  13.021  0.00  0.00    +0.000 C 
ATOM      4  C   UNL     1      48.127   9.264  13.850  0.00  0.00    +0.000 C 
ATOM      5  C   UNL     1      48.650   8.914  15.233  0.00  0.00    +0.000 C 
ATOM      6  C   UNL     1      49.704   7.805  15.016  0.00  0.00    +0.000 C 
ATOM      7  C   UNL     1      51.002   8.448  14.460  0.00  0.00    +0.000 C 
ENDROOT
BRANCH   3   8
ATOM      8  C   UNL     1      46.923   7.474  12.442  0.00  0.00    +0.000 A 
ATOM      9  C   UNL     1      45.686   7.865  12.976  0.00  0.00    +0.000 A 
ATOM     10  C   UNL     1      44.495   7.324  12.496  0.00  0.00    +0.000 A 
ATOM     11  C   UNL     1      44.513   6.381  11.463  0.00  0.00    +0.000 A 
ATOM     12  C   UNL     1      45.736   5.998  10.904  0.00  0.00    +0.000 A 
ATOM     13  C   UNL     1      46.933   6.540  11.393  0.00  0.00    +0.000 A 
BRANCH  11  14
ATOM     14  C   UNL     1      43.219   5.777  11.055  0.00  0.00    +0.000 C 
ATOM     15  N   UNL     1      42.095   6.161  11.729  0.00  0.00    +0.000 N 
ATOM     16  O   UNL     1      43.156   4.943  10.160  0.00  0.00    +0.000 OA
ATOM     17  H   UNL     1      42.115   6.693  12.586  0.00  0.00    +0.000 HD
ATOM     18  H   UNL     1      41.243   5.669  11.490  0.00  0.00    +0.000 HD
ENDBRANCH  11  14
ENDBRANCH   3   8
BRANCH   6  19
ATOM     19  C   UNL     1      50.048   7.092  16.328  0.00  0.00    +0.000 A 
ATOM     20  C   UNL     1      49.292   7.286  17.485  0.00  0.00    +0.000 A 
ATOM     21  C   UNL     1      49.604   6.559  18.640  0.00  0.00    +0.000 A 
ATOM     22  C   UNL     1      50.672   5.661  18.635  0.00  0.00    +0.000 A 
ATOM     23  C   UNL     1      51.383   5.541  17.454  0.00  0.00    +0.000 A 
ATOM     24  N   UNL     1      51.091   6.225  16.316  0.00  0.00    +0.000 NA
BRANCH  22  25
ATOM     25  C   UNL     1      50.978   4.889  19.864  0.00  0.00    +0.000 C 
ATOM     26  N   UNL     1      49.968   4.592  20.737  0.00  0.00    +0.000 N 
ATOM     27  O   UNL     1      52.119   4.516  20.103  0.00  0.00    +0.000 OA
ATOM     28  H   UNL     1      48.996   4.836  20.630  0.00  0.00    +0.000 HD
ATOM     29  H   UNL     1      50.227   4.060  21.558  0.00  0.00    +0.000 HD
ENDBRANCH  22  25
ENDBRANCH   6  19
TORSDOF 4
ENDMDL
MODEL 7
REMARK VINA RESULT:    -5.774      4.283      6.058
REMARK INTER + INTRA:          -7.350
REMARK INTER:                  -6.401
REMARK INTRA:                  -0.949
REMARK UNBOUND:                -0.226
REMARK  Name = 
REMARK  6 active torsions:
REMARK  status: ('A' for Active; 'I' for Inactive)
REMARK    1  A    between atoms: C_1  and  C_2
REMARK    2  A    between atoms: C_3  and  C_4
REMARK    3  A    between atoms: C_7  and  C_8
REMARK    4  A    between atoms: C_15  and  C_16
REMARK    5  A    between atoms: C_15  and  C_17
REMARK    6  A    between atoms: C_20  and  C_21
REMARK                            x       y       z     vdW  Elec       q    Type
REMARK                         _______ _______ _______ _____ _____    ______ ____
ROOT
ATOM      1  C   UNL     1      48.116   7.564  11.201  0.00  0.00    +0.000 C 
ATOM      2  C   UNL     1      48.111   8.372  12.508  0.00  0.00    +0.000 C 
ATOM      3  C   UNL     1      47.489   7.609  13.735  0.00  0.00    +0.000 C 
ATOM      4  C   UNL     1      48.653   7.293  14.696  0.00  0.00    +0.000 C 
ATOM      5  C   UNL     1      49.920   7.667  13.946  0.00  0.00    +0.000 C 
ATOM      6  C   UNL     1      49.524   8.827  13.004  0.00  0.00    +0.000 C 
ATOM      7  C   UNL     1      49.387  10.127  13.840  0.00  0.00    +0.000 C 
ENDROOT
BRANCH   3   8
ATOM      8  C   UNL     1      46.603   6.423  13.401  0.00  0.00    +0.000 A 
ATOM      9  C   UNL     1      47.047   5.102  13.556  0.00  0.00    +0.000 A 
ATOM     10  C   UNL     1      46.258   4.028  13.150  0.00  0.00    +0.000 A 
ATOM     11  C   UNL     1      44.999   4.251  12.584  0.00  0.00    +0.000 A 
ATOM     12  C   UNL     1      44.531   5.562  12.444  0.00  0.00    +0.000 A 
ATOM     13  C   UNL     1      45.330   6.640  12.848  0.00  0.00    +0.000 A 
BRANCH  11  14
ATOM     14  C   UNL     1      44.242   3.071  12.092  0.00  0.00    +0.000 C 
ATOM     15  N   UNL     1      44.475   2.652  10.813  0.00  0.00    +0.000 N 
ATOM     16  O   UNL     1      43.416   2.502  12.795  0.00  0.00    +0.000 OA
ATOM     17  H   UNL     1      44.996   3.191  10.138  0.00  0.00    +0.000 HD
ATOM     18  H   UNL     1      43.883   1.903  10.476  0.00  0.00    +0.000 HD
ENDBRANCH  11  14
ENDBRANCH   3   8
BRANCH   6  19
ATOM     19  C   UNL     1      50.587   9.062  11.925  0.00  0.00    +0.000 A 
ATOM     20  C   UNL     1      51.501   8.068  11.571  0.00  0.00    +0.000 A 
ATOM     21  C   UNL     1      52.408   8.307  10.531  0.00  0.00    +0.000 A 
ATOM     22  C   UNL     1      52.405   9.535   9.869  0.00  0.00    +0.000 A 
ATOM     23  C   UNL     1      51.481  10.473  10.293  0.00  0.00    +0.000 A 
ATOM     24  N   UNL     1      50.581  10.260  11.290  0.00  0.00    +0.000 NA
BRANCH  22  25
ATOM     25  C   UNL     1      53.363   9.764   8.760  0.00  0.00    +0.000 C 
ATOM     26  N   UNL     1      53.331  10.953   8.083  0.00  0.00    +0.000 N 
ATOM     27  O   UNL     1      54.177   8.907   8.447  0.00  0.00    +0.000 OA
ATOM     28  H   UNL     1      52.716  11.729   8.269  0.00  0.00    +0.000 HD
ATOM     29  H   UNL     1      54.008  11.063   7.338  0.00  0.00    +0.000 HD
ENDBRANCH  22  25
ENDBRANCH   6  19
TORSDOF 4
ENDMDL
MODEL 8
REMARK VINA RESULT:    -5.344     11.000     12.690
REMARK INTER + INTRA:          -6.819
REMARK INTER:                  -5.902
REMARK INTRA:                  -0.917
REMARK UNBOUND:                -0.226
REMARK  Name = 
REMARK  6 active torsions:
REMARK  status: ('A' for Active; 'I' for Inactive)
REMARK    1  A    between atoms: C_1  and  C_2
REMARK    2  A    between atoms: C_3  and  C_4
REMARK    3  A    between atoms: C_7  and  C_8
REMARK    4  A    between atoms: C_15  and  C_16
REMARK    5  A    between atoms: C_15  and  C_17
REMARK    6  A    between atoms: C_20  and  C_21
REMARK                            x       y       z     vdW  Elec       q    Type
REMARK                         _______ _______ _______ _____ _____    ______ ____
ROOT
ATOM      1  C   UNL     1      40.871  -2.096  16.886  0.00  0.00    +0.000 C 
ATOM      2  C   UNL     1      39.688  -2.954  17.359  0.00  0.00    +0.000 C 
ATOM      3  C   UNL     1      40.102  -4.214  18.204  0.00  0.00    +0.000 C 
ATOM      4  C   UNL     1      39.645  -3.945  19.653  0.00  0.00    +0.000 C 
ATOM      5  C   UNL     1      39.184  -2.498  19.678  0.00  0.00    +0.000 C 
ATOM      6  C   UNL     1      38.649  -2.202  18.257  0.00  0.00    +0.000 C 
ATOM      7  C   UNL     1      37.253  -2.862  18.100  0.00  0.00    +0.000 C 
ENDROOT
BRANCH   3   8
ATOM      8  C   UNL     1      41.546  -4.660  18.069  0.00  0.00    +0.000 A 
ATOM      9  C   UNL     1      41.995  -5.382  16.953  0.00  0.00    +0.000 A 
ATOM     10  C   UNL     1      43.299  -5.869  16.892  0.00  0.00    +0.000 A 
ATOM     11  C   UNL     1      44.189  -5.640  17.946  0.00  0.00    +0.000 A 
ATOM     12  C   UNL     1      43.764  -4.902  19.055  0.00  0.00    +0.000 A 
ATOM     13  C   UNL     1      42.450  -4.418  19.117  0.00  0.00    +0.000 A 
BRANCH  11  14
ATOM     14  C   UNL     1      45.537  -6.259  17.861  0.00  0.00    +0.000 C 
ATOM     15  N   UNL     1      46.269  -6.353  19.010  0.00  0.00    +0.000 N 
ATOM     16  O   UNL     1      45.994  -6.652  16.795  0.00  0.00    +0.000 OA
ATOM     17  H   UNL     1      46.022  -5.880  19.867  0.00  0.00    +0.000 HD
ATOM     18  H   UNL     1      47.216  -6.696  18.907  0.00  0.00    +0.000 HD
ENDBRANCH  11  14
ENDBRANCH   3   8
BRANCH   6  19
ATOM     19  C   UNL     1      38.496  -0.697  18.016  0.00  0.00    +0.000 A 
ATOM     20  C   UNL     1      38.738   0.234  19.028  0.00  0.00    +0.000 A 
ATOM     21  C   UNL     1      38.652   1.601  18.739  0.00  0.00    +0.000 A 
ATOM     22  C   UNL     1      38.312   2.025  17.454  0.00  0.00    +0.000 A 
ATOM     23  C   UNL     1      38.069   1.040  16.514  0.00  0.00    +0.000 A 
ATOM     24  N   UNL     1      38.159  -0.293  16.766  0.00  0.00    +0.000 NA
BRANCH  22  25
ATOM     25  C   UNL     1      38.241   3.478  17.163  0.00  0.00    +0.000 C 
ATOM     26  N   UNL     1      39.195   4.311  17.679  0.00  0.00    +0.000 N 
ATOM     27  O   UNL     1      37.343   3.935  16.470  0.00  0.00    +0.000 OA
ATOM     28  H   UNL     1      39.982   4.038  18.246  0.00  0.00    +0.000 HD
ATOM     29  H   UNL     1      39.105   5.293  17.449  0.00  0.00    +0.000 HD
ENDBRANCH  22  25
ENDBRANCH   6  19
TORSDOF 4
ENDMDL
MODEL 9
REMARK VINA RESULT:    -5.244      4.157      9.093
REMARK INTER + INTRA:          -6.696
REMARK INTER:                  -5.720
REMARK INTRA:                  -0.976
REMARK UNBOUND:                -0.226
REMARK  Name = 
REMARK  6 active torsions:
REMARK  status: ('A' for Active; 'I' for Inactive)
REMARK    1  A    between atoms: C_1  and  C_2
REMARK    2  A    between atoms: C_3  and  C_4
REMARK    3  A    between atoms: C_7  and  C_8
REMARK    4  A    between atoms: C_15  and  C_16
REMARK    5  A    between atoms: C_15  and  C_17
REMARK    6  A    between atoms: C_20  and  C_21
REMARK                            x       y       z     vdW  Elec       q    Type
REMARK                         _______ _______ _______ _____ _____    ______ ____
ROOT
ATOM      1  C   UNL     1      48.244   8.147  14.908  0.00  0.00    +0.000 C 
ATOM      2  C   UNL     1      48.811   9.065  13.815  0.00  0.00    +0.000 C 
ATOM      3  C   UNL     1      50.378   9.204  13.836  0.00  0.00    +0.000 C 
ATOM      4  C   UNL     1      50.904   8.471  12.585  0.00  0.00    +0.000 C 
ATOM      5  C   UNL     1      49.703   7.757  11.989  0.00  0.00    +0.000 C 
ATOM      6  C   UNL     1      48.476   8.626  12.349  0.00  0.00    +0.000 C 
ATOM      7  C   UNL     1      48.456   9.873  11.426  0.00  0.00    +0.000 C 
ENDROOT
BRANCH   3   8
ATOM      8  C   UNL     1      51.062   8.812  15.133  0.00  0.00    +0.000 A 
ATOM      9  C   UNL     1      51.624   7.541  15.319  0.00  0.00    +0.000 A 
ATOM     10  C   UNL     1      52.158   7.166  16.549  0.00  0.00    +0.000 A 
ATOM     11  C   UNL     1      52.148   8.059  17.626  0.00  0.00    +0.000 A 
ATOM     12  C   UNL     1      51.612   9.339  17.451  0.00  0.00    +0.000 A 
ATOM     13  C   UNL     1      51.070   9.711  16.213  0.00  0.00    +0.000 A 
BRANCH  11  14
ATOM     14  C   UNL     1      52.653   7.571  18.935  0.00  0.00    +0.000 C 
ATOM     15  N   UNL     1      52.033   6.490  19.494  0.00  0.00    +0.000 N 
ATOM     16  O   UNL     1      53.577   8.129  19.513  0.00  0.00    +0.000 OA
ATOM     17  H   UNL     1      51.159   6.115  19.158  0.00  0.00    +0.000 HD
ATOM     18  H   UNL     1      52.339   6.234  20.425  0.00  0.00    +0.000 HD
ENDBRANCH  11  14
ENDBRANCH   3   8
BRANCH   6  19
ATOM     19  C   UNL     1      47.165   7.859  12.147  0.00  0.00    +0.000 A 
ATOM     20  C   UNL     1      47.137   6.465  12.078  0.00  0.00    +0.000 A 
ATOM     21  C   UNL     1      45.907   5.807  11.961  0.00  0.00    +0.000 A 
ATOM     22  C   UNL     1      44.723   6.542  11.899  0.00  0.00    +0.000 A 
ATOM     23  C   UNL     1      44.839   7.920  11.953  0.00  0.00    +0.000 A 
ATOM     24  N   UNL     1      46.020   8.582  12.080  0.00  0.00    +0.000 NA
BRANCH  22  25
ATOM     25  C   UNL     1      43.428   5.827  11.790  0.00  0.00    +0.000 C 
ATOM     26  N   UNL     1      42.723   5.543  12.927  0.00  0.00    +0.000 N 
ATOM     27  O   UNL     1      42.987   5.491  10.699  0.00  0.00    +0.000 OA
ATOM     28  H   UNL     1      42.986   5.787  13.868  0.00  0.00    +0.000 HD
ATOM     29  H   UNL     1      41.844   5.058  12.800  0.00  0.00    +0.000 HD
ENDBRANCH  22  25
ENDBRANCH   6  19
TORSDOF 4
ENDMDL
