MODEL 1
REMARK VINA RESULT:    -8.359      0.000      0.000
REMARK INTER + INTRA:         -12.477
REMARK INTER:                 -11.291
REMARK INTRA:                  -1.186
REMARK UNBOUND:                -1.186
REMARK  Name = 
REMARK  7 active torsions:
REMARK  status: ('A' for Active; 'I' for Inactive)
REMARK    1  A    between atoms: C_1  and  N_2
REMARK    2  A    between atoms: N_2  and  C_3
REMARK    3  A    between atoms: C_3  and  C_4
REMARK    4  A    between atoms: C_7  and  C_8
REMARK    5  A    between atoms: C_8  and  N_9
REMARK    6  A    between atoms: C_10  and  C_12
REMARK    7  A    between atoms: C_21  and  C_23
REMARK                            x       y       z     vdW  Elec       q    Type
REMARK                         _______ _______ _______ _____ _____    ______ ____
ROOT
ATOM      1  C   UNL     1      47.573   5.772  13.702  0.00  0.00    +0.000 A 
ATOM      2  C   UNL     1      46.979   4.499  13.730  0.00  0.00    +0.000 A 
ATOM      3  C   UNL     1      47.009   3.729  14.893  0.00  0.00    +0.000 A 
ATOM      4  C   UNL     1      47.648   4.213  16.042  0.00  0.00    +0.000 A 
ATOM      5  C   UNL     1      48.248   5.475  15.996  0.00  0.00    +0.000 A 
ATOM      6  F   UNL     1      48.846   5.968  17.090  0.00  0.00    +0.000 F 
ATOM      7  C   UNL     1      48.218   6.252  14.846  0.00  0.00    +0.000 A 
ENDROOT
BRANCH   1   8
ATOM      8  C   UNL     1      47.460   6.641  12.477  0.00  0.00    +0.000 C 
BRANCH   8  10
ATOM      9  C   UNL     1      46.379   8.858  13.078  0.00  0.00    +0.000 C 
ATOM     10  N   UNL     1      46.314   7.555  12.422  0.00  0.00    +0.000 N 
ATOM     11  C   UNL     1      45.216   7.369  11.561  0.00  0.00    +0.000 C 
ATOM     12  O   UNL     1      44.373   8.251  11.411  0.00  0.00    +0.000 OA
BRANCH  11  13
ATOM     13  C   UNL     1      45.052   6.088  10.861  0.00  0.00    +0.000 A 
ATOM     14  C   UNL     1      45.644   5.772   9.649  0.00  0.00    +0.000 A 
ATOM     15  S   UNL     1      45.329   4.178   9.126  0.00  0.00    +0.000 S 
ATOM     16  C   UNL     1      44.515   3.811  10.572  0.00  0.00    +0.000 A 
ATOM     17  N   UNL     1      44.079   2.553  10.828  0.00  0.00    +0.000 NA
ATOM     18  C   UNL     1      43.547   2.404  11.996  0.00  0.00    +0.000 A 
ATOM     19  N   UNL     1      43.373   3.413  12.912  0.00  0.00    +0.000 N 
ATOM     20  C   UNL     1      43.666   4.730  12.635  0.00  0.00    +0.000 A 
ATOM     21  O   UNL     1      43.265   5.632  13.364  0.00  0.00    +0.000 OA
ATOM     22  C   UNL     1      44.391   4.919  11.392  0.00  0.00    +0.000 A 
ATOM     23  H   UNL     1      42.884   3.244  13.777  0.00  0.00    +0.000 HD
ENDBRANCH  11  13
ENDBRANCH   8  10
ENDBRANCH   1   8
BRANCH   4  24
ATOM     24  C   UNL     1      47.626   3.425  17.315  0.00  0.00    +0.000 C 
BRANCH  24  25
ATOM     25  N   UNL     1      48.963   3.036  17.696  0.00  0.00    +0.000 N 
ATOM     26  C   UNL     1      49.698   2.149  16.953  0.00  0.00    +0.000 C 
ATOM     27  O   UNL     1      49.228   1.555  15.986  0.00  0.00    +0.000 OA
ATOM     28  H   UNL     1      49.432   3.591  18.401  0.00  0.00    +0.000 HD
BRANCH  26  29
ATOM     29  C   UNL     1      51.061   1.950  17.362  0.00  0.00    +0.000 A 
ATOM     30  N   UNL     1      51.591   0.689  17.527  0.00  0.00    +0.000 N 
ATOM     31  C   UNL     1      52.892   0.815  17.908  0.00  0.00    +0.000 A 
ATOM     32  N   UNL     1      53.237   2.076  18.006  0.00  0.00    +0.000 NA
ATOM     33  C   UNL     1      52.111   2.794  17.672  0.00  0.00    +0.000 A 
ATOM     34 CL   UNL     1      52.128   4.499  17.671  0.00  0.00    +0.000 Cl
ATOM     35  H   UNL     1      51.080  -0.174  17.383  0.00  0.00    +0.000 HD
ENDBRANCH  26  29
ENDBRANCH  24  25
ENDBRANCH   4  24
TORSDOF 6
ENDMDL
MODEL 2
REMARK VINA RESULT:    -8.135      4.676      8.321
REMARK INTER + INTRA:         -12.174
REMARK INTER:                 -10.801
REMARK INTRA:                  -1.373
REMARK UNBOUND:                -1.186
REMARK  Name = 
REMARK  7 active torsions:
REMARK  status: ('A' for Active; 'I' for Inactive)
REMARK    1  A    between atoms: C_1  and  N_2
REMARK    2  A    between atoms: N_2  and  C_3
REMARK    3  A    between atoms: C_3  and  C_4
REMARK    4  A    between atoms: C_7  and  C_8
REMARK    5  A    between atoms: C_8  and  N_9
REMARK    6  A    between atoms: C_10  and  C_12
REMARK    7  A    between atoms: C_21  and  C_23
REMARK                            x       y       z     vdW  Elec       q    Type
REMARK                         _______ _______ _______ _____ _____    ______ ____
ROOT
ATOM      1  C   UNL     1      46.132   5.730  13.164  0.00  0.00    +0.000 A 
ATOM      2  C   UNL     1      46.438   4.371  13.338  0.00  0.00    +0.000 A 
ATOM      3  C   UNL     1      45.839   3.401  12.534  0.00  0.00    +0.000 A 
ATOM      4  C   UNL     1      44.911   3.775  11.552  0.00  0.00    +0.000 A 
ATOM      5  C   UNL     1      44.603   5.130  11.400  0.00  0.00    +0.000 A 
ATOM      6  F   UNL     1      43.735   5.513  10.453  0.00  0.00    +0.000 F 
ATOM      7  C   UNL     1      45.199   6.103  12.190  0.00  0.00    +0.000 A 
ENDROOT
BRANCH   1   8
ATOM      8  C   UNL     1      46.846   6.784  13.967  0.00  0.00    +0.000 C 
BRANCH   8  10
ATOM      9  C   UNL     1      48.942   7.201  12.597  0.00  0.00    +0.000 C 
ATOM     10  N   UNL     1      48.309   6.819  13.855  0.00  0.00    +0.000 N 
ATOM     11  C   UNL     1      49.172   6.742  14.964  0.00  0.00    +0.000 C 
ATOM     12  O   UNL     1      50.376   6.962  14.845  0.00  0.00    +0.000 OA
BRANCH  11  13
ATOM     13  C   UNL     1      48.636   6.354  16.276  0.00  0.00    +0.000 A 
ATOM     14  C   UNL     1      48.417   5.047  16.681  0.00  0.00    +0.000 A 
ATOM     15  S   UNL     1      47.861   4.912  18.289  0.00  0.00    +0.000 S 
ATOM     16  C   UNL     1      48.038   6.583  18.544  0.00  0.00    +0.000 A 
ATOM     17  N   UNL     1      47.834   7.128  19.769  0.00  0.00    +0.000 NA
ATOM     18  C   UNL     1      48.079   8.395  19.833  0.00  0.00    +0.000 A 
ATOM     19  N   UNL     1      48.466   9.172  18.767  0.00  0.00    +0.000 N 
ATOM     20  C   UNL     1      48.540   8.689  17.480  0.00  0.00    +0.000 A 
ATOM     21  O   UNL     1      48.634   9.453  16.524  0.00  0.00    +0.000 OA
ATOM     22  C   UNL     1      48.409   7.246  17.388  0.00  0.00    +0.000 A 
ATOM     23  H   UNL     1      48.571  10.169  18.870  0.00  0.00    +0.000 HD
ENDBRANCH  11  13
ENDBRANCH   8  10
ENDBRANCH   1   8
BRANCH   4  24
ATOM     24  C   UNL     1      44.315   2.749  10.638  0.00  0.00    +0.000 C 
BRANCH  24  25
ATOM     25  N   UNL     1      45.285   2.309   9.664  0.00  0.00    +0.000 N 
ATOM     26  C   UNL     1      45.365   2.873   8.418  0.00  0.00    +0.000 C 
ATOM     27  O   UNL     1      44.554   3.705   8.019  0.00  0.00    +0.000 OA
ATOM     28  H   UNL     1      46.048   1.728   9.989  0.00  0.00    +0.000 HD
BRANCH  26  29
ATOM     29  C   UNL     1      46.460   2.443   7.592  0.00  0.00    +0.000 A 
ATOM     30  N   UNL     1      47.258   3.344   6.920  0.00  0.00    +0.000 N 
ATOM     31  C   UNL     1      48.206   2.650   6.233  0.00  0.00    +0.000 A 
ATOM     32  N   UNL     1      48.072   1.358   6.412  0.00  0.00    +0.000 NA
ATOM     33  C   UNL     1      46.991   1.212   7.252  0.00  0.00    +0.000 A 
ATOM     34 CL   UNL     1      46.468  -0.333   7.746  0.00  0.00    +0.000 Cl
ATOM     35  H   UNL     1      47.140   4.349   6.947  0.00  0.00    +0.000 HD
ENDBRANCH  26  29
ENDBRANCH  24  25
ENDBRANCH   4  24
TORSDOF 6
ENDMDL
MODEL 3
REMARK VINA RESULT:    -7.925      4.441      8.114
REMARK INTER + INTRA:         -11.891
REMARK INTER:                 -10.706
REMARK INTRA:                  -1.185
REMARK UNBOUND:                -1.186
REMARK  Name = 
REMARK  7 active torsions:
REMARK  status: ('A' for Active; 'I' for Inactive)
REMARK    1  A    between atoms: C_1  and  N_2
REMARK    2  A    between atoms: N_2  and  C_3
REMARK    3  A    between atoms: C_3  and  C_4
REMARK    4  A    between atoms: C_7  and  C_8
REMARK    5  A    between atoms: C_8  and  N_9
REMARK    6  A    between atoms: C_10  and  C_12
REMARK    7  A    between atoms: C_21  and  C_23
REMARK                            x       y       z     vdW  Elec       q    Type
REMARK                         _______ _______ _______ _____ _____    ______ ____
ROOT
ATOM      1  C   UNL     1      46.539   6.617  12.853  0.00  0.00    +0.000 A 
ATOM      2  C   UNL     1      45.804   7.076  11.747  0.00  0.00    +0.000 A 
ATOM      3  C   UNL     1      44.974   6.207  11.038  0.00  0.00    +0.000 A 
ATOM      4  C   UNL     1      44.880   4.860  11.413  0.00  0.00    +0.000 A 
ATOM      5  C   UNL     1      45.630   4.413  12.504  0.00  0.00    +0.000 A 
ATOM      6  F   UNL     1      45.538   3.133  12.895  0.00  0.00    +0.000 F 
ATOM      7  C   UNL     1      46.452   5.270  13.221  0.00  0.00    +0.000 A 
ENDROOT
BRANCH   1   8
ATOM      8  C   UNL     1      47.361   7.574  13.675  0.00  0.00    +0.000 C 
BRANCH   8  10
ATOM      9  C   UNL     1      49.438   7.083  12.300  0.00  0.00    +0.000 C 
ATOM     10  N   UNL     1      48.819   7.446  13.572  0.00  0.00    +0.000 N 
ATOM     11  C   UNL     1      49.708   7.891  14.568  0.00  0.00    +0.000 C 
ATOM     12  O   UNL     1      50.919   7.936  14.362  0.00  0.00    +0.000 OA
BRANCH  11  13
ATOM     13  C   UNL     1      49.186   8.269  15.889  0.00  0.00    +0.000 A 
ATOM     14  C   UNL     1      48.899   9.566  16.279  0.00  0.00    +0.000 A 
ATOM     15  S   UNL     1      48.232   9.679  17.846  0.00  0.00    +0.000 S 
ATOM     16  C   UNL     1      48.168   7.987  17.996  0.00  0.00    +0.000 A 
ATOM     17  N   UNL     1      47.589   7.403  19.074  0.00  0.00    +0.000 NA
ATOM     18  C   UNL     1      47.544   6.113  19.017  0.00  0.00    +0.000 A 
ATOM     19  N   UNL     1      48.068   5.356  17.997  0.00  0.00    +0.000 N 
ATOM     20  C   UNL     1      48.793   5.900  16.960  0.00  0.00    +0.000 A 
ATOM     21  O   UNL     1      49.460   5.189  16.215  0.00  0.00    +0.000 OA
ATOM     22  C   UNL     1      48.747   7.350  16.913  0.00  0.00    +0.000 A 
ATOM     23  H   UNL     1      48.064   4.349  18.050  0.00  0.00    +0.000 HD
ENDBRANCH  11  13
ENDBRANCH   8  10
ENDBRANCH   1   8
BRANCH   4  24
ATOM     24  C   UNL     1      43.941   3.936  10.701  0.00  0.00    +0.000 C 
BRANCH  24  25
ATOM     25  N   UNL     1      44.673   2.988   9.895  0.00  0.00    +0.000 N 
ATOM     26  C   UNL     1      45.051   3.271   8.609  0.00  0.00    +0.000 C 
ATOM     27  O   UNL     1      44.701   4.297   8.032  0.00  0.00    +0.000 OA
ATOM     28  H   UNL     1      45.092   2.195  10.365  0.00  0.00    +0.000 HD
BRANCH  26  29
ATOM     29  C   UNL     1      45.892   2.301   7.963  0.00  0.00    +0.000 A 
ATOM     30  N   UNL     1      46.002   1.010   8.433  0.00  0.00    +0.000 N 
ATOM     31  C   UNL     1      46.856   0.328   7.622  0.00  0.00    +0.000 A 
ATOM     32  N   UNL     1      47.311   1.094   6.660  0.00  0.00    +0.000 NA
ATOM     33  C   UNL     1      46.724   2.323   6.858  0.00  0.00    +0.000 A 
ATOM     34 CL   UNL     1      47.050   3.628   5.812  0.00  0.00    +0.000 Cl
ATOM     35  H   UNL     1      45.519   0.651   9.248  0.00  0.00    +0.000 HD
ENDBRANCH  26  29
ENDBRANCH  24  25
ENDBRANCH   4  24
TORSDOF 6
ENDMDL
MODEL 4
REMARK VINA RESULT:    -7.182      3.690      7.906
REMARK INTER + INTRA:         -10.887
REMARK INTER:                  -8.999
REMARK INTRA:                  -1.888
REMARK UNBOUND:                -1.186
REMARK  Name = 
REMARK  7 active torsions:
REMARK  status: ('A' for Active; 'I' for Inactive)
REMARK    1  A    between atoms: C_1  and  N_2
REMARK    2  A    between atoms: N_2  and  C_3
REMARK    3  A    between atoms: C_3  and  C_4
REMARK    4  A    between atoms: C_7  and  C_8
REMARK    5  A    between atoms: C_8  and  N_9
REMARK    6  A    between atoms: C_10  and  C_12
REMARK    7  A    between atoms: C_21  and  C_23
REMARK                            x       y       z     vdW  Elec       q    Type
REMARK                         _______ _______ _______ _____ _____    ______ ____
ROOT
ATOM      1  C   UNL     1      50.375   7.644  16.994  0.00  0.00    +0.000 A 
ATOM      2  C   UNL     1      50.493   7.015  15.744  0.00  0.00    +0.000 A 
ATOM      3  C   UNL     1      49.610   7.324  14.709  0.00  0.00    +0.000 A 
ATOM      4  C   UNL     1      48.584   8.256  14.913  0.00  0.00    +0.000 A 
ATOM      5  C   UNL     1      48.467   8.863  16.167  0.00  0.00    +0.000 A 
ATOM      6  F   UNL     1      47.507   9.774  16.379  0.00  0.00    +0.000 F 
ATOM      7  C   UNL     1      49.345   8.567  17.201  0.00  0.00    +0.000 A 
ENDROOT
BRANCH   1   8
ATOM      8  C   UNL     1      51.383   7.380  18.081  0.00  0.00    +0.000 C 
BRANCH   8  10
ATOM      9  C   UNL     1      50.453   8.043  20.348  0.00  0.00    +0.000 C 
ATOM     10  N   UNL     1      50.851   7.009  19.397  0.00  0.00    +0.000 N 
ATOM     11  C   UNL     1      50.459   5.700  19.733  0.00  0.00    +0.000 C 
ATOM     12  O   UNL     1      49.848   5.470  20.774  0.00  0.00    +0.000 OA
BRANCH  11  13
ATOM     13  C   UNL     1      50.821   4.585  18.847  0.00  0.00    +0.000 A 
ATOM     14  C   UNL     1      52.035   3.918  18.877  0.00  0.00    +0.000 A 
ATOM     15  S   UNL     1      52.129   2.615  17.779  0.00  0.00    +0.000 S 
ATOM     16  C   UNL     1      50.500   2.807  17.333  0.00  0.00    +0.000 A 
ATOM     17  N   UNL     1      49.897   1.928  16.495  0.00  0.00    +0.000 NA
ATOM     18  C   UNL     1      48.639   2.154  16.305  0.00  0.00    +0.000 A 
ATOM     19  N   UNL     1      47.943   3.208  16.847  0.00  0.00    +0.000 N 
ATOM     20  C   UNL     1      48.548   4.204  17.581  0.00  0.00    +0.000 A 
ATOM     21  O   UNL     1      47.961   5.252  17.829  0.00  0.00    +0.000 OA
ATOM     22  C   UNL     1      49.927   3.915  17.932  0.00  0.00    +0.000 A 
ATOM     23  H   UNL     1      46.979   3.368  16.601  0.00  0.00    +0.000 HD
ENDBRANCH  11  13
ENDBRANCH   8  10
ENDBRANCH   1   8
BRANCH   4  24
ATOM     24  C   UNL     1      47.674   8.646  13.789  0.00  0.00    +0.000 C 
BRANCH  24  25
ATOM     25  N   UNL     1      46.548   7.746  13.711  0.00  0.00    +0.000 N 
ATOM     26  C   UNL     1      46.526   6.688  12.840  0.00  0.00    +0.000 C 
ATOM     27  O   UNL     1      47.409   6.505  12.006  0.00  0.00    +0.000 OA
ATOM     28  H   UNL     1      45.866   7.779  14.459  0.00  0.00    +0.000 HD
BRANCH  26  29
ATOM     29  C   UNL     1      45.411   5.789  12.956  0.00  0.00    +0.000 A 
ATOM     30  N   UNL     1      44.109   6.237  12.878  0.00  0.00    +0.000 N 
ATOM     31  C   UNL     1      43.278   5.168  13.014  0.00  0.00    +0.000 A 
ATOM     32  N   UNL     1      43.955   4.058  13.181  0.00  0.00    +0.000 NA
ATOM     33  C   UNL     1      45.281   4.426  13.150  0.00  0.00    +0.000 A 
ATOM     34 CL   UNL     1      46.517   3.267  13.333  0.00  0.00    +0.000 Cl
ATOM     35  H   UNL     1      43.840   7.203  12.741  0.00  0.00    +0.000 HD
ENDBRANCH  26  29
ENDBRANCH  24  25
ENDBRANCH   4  24
TORSDOF 6
ENDMDL
MODEL 5
REMARK VINA RESULT:    -7.178      3.499      8.230
REMARK INTER + INTRA:         -10.882
REMARK INTER:                  -9.713
REMARK INTRA:                  -1.169
REMARK UNBOUND:                -1.186
REMARK  Name = 
REMARK  7 active torsions:
REMARK  status: ('A' for Active; 'I' for Inactive)
REMARK    1  A    between atoms: C_1  and  N_2
REMARK    2  A    between atoms: N_2  and  C_3
REMARK    3  A    between atoms: C_3  and  C_4
REMARK    4  A    between atoms: C_7  and  C_8
REMARK    5  A    between atoms: C_8  and  N_9
REMARK    6  A    between atoms: C_10  and  C_12
REMARK    7  A    between atoms: C_21  and  C_23
REMARK                            x       y       z     vdW  Elec       q    Type
REMARK                         _______ _______ _______ _____ _____    ______ ____
ROOT
ATOM      1  C   UNL     1      48.744   7.194  15.039  0.00  0.00    +0.000 A 
ATOM      2  C   UNL     1      48.148   6.051  14.481  0.00  0.00    +0.000 A 
ATOM      3  C   UNL     1      47.210   6.171  13.454  0.00  0.00    +0.000 A 
ATOM      4  C   UNL     1      46.841   7.437  12.982  0.00  0.00    +0.000 A 
ATOM      5  C   UNL     1      47.430   8.567  13.558  0.00  0.00    +0.000 A 
ATOM      6  F   UNL     1      47.109   9.788  13.106  0.00  0.00    +0.000 F 
ATOM      7  C   UNL     1      48.369   8.458  14.574  0.00  0.00    +0.000 A 
ENDROOT
BRANCH   1   8
ATOM      8  C   UNL     1      49.823   7.062  16.081  0.00  0.00    +0.000 C 
BRANCH   8  10
ATOM      9  C   UNL     1      49.540   8.779  17.929  0.00  0.00    +0.000 C 
ATOM     10  N   UNL     1      49.453   7.399  17.460  0.00  0.00    +0.000 N 
ATOM     11  C   UNL     1      48.774   6.514  18.318  0.00  0.00    +0.000 C 
ATOM     12  O   UNL     1      48.319   6.899  19.393  0.00  0.00    +0.000 OA
BRANCH  11  13
ATOM     13  C   UNL     1      48.641   5.099  17.943  0.00  0.00    +0.000 A 
ATOM     14  C   UNL     1      47.487   4.524  17.437  0.00  0.00    +0.000 A 
ATOM     15  S   UNL     1      47.666   2.878  17.022  0.00  0.00    +0.000 S 
ATOM     16  C   UNL     1      49.330   2.920  17.366  0.00  0.00    +0.000 A 
ATOM     17  N   UNL     1      50.122   1.849  17.114  0.00  0.00    +0.000 NA
ATOM     18  C   UNL     1      51.376   2.049  17.352  0.00  0.00    +0.000 A 
ATOM     19  N   UNL     1      51.899   3.213  17.863  0.00  0.00    +0.000 N 
ATOM     20  C   UNL     1      51.114   4.268  18.271  0.00  0.00    +0.000 A 
ATOM     21  O   UNL     1      51.581   5.176  18.952  0.00  0.00    +0.000 OA
ATOM     22  C   UNL     1      49.719   4.139  17.893  0.00  0.00    +0.000 A 
ATOM     23  H   UNL     1      52.879   3.278  18.094  0.00  0.00    +0.000 HD
ENDBRANCH  11  13
ENDBRANCH   8  10
ENDBRANCH   1   8
BRANCH   4  24
ATOM     24  C   UNL     1      45.888   7.574  11.835  0.00  0.00    +0.000 C 
BRANCH  24  25
ATOM     25  N   UNL     1      45.746   6.318  11.138  0.00  0.00    +0.000 N 
ATOM     26  C   UNL     1      44.528   5.708  10.985  0.00  0.00    +0.000 C 
ATOM     27  O   UNL     1      43.508   6.135  11.519  0.00  0.00    +0.000 OA
ATOM     28  H   UNL     1      46.526   6.001  10.576  0.00  0.00    +0.000 HD
BRANCH  26  29
ATOM     29  C   UNL     1      44.502   4.536  10.155  0.00  0.00    +0.000 A 
ATOM     30  N   UNL     1      44.992   4.550   8.866  0.00  0.00    +0.000 N 
ATOM     31  C   UNL     1      44.839   3.306   8.335  0.00  0.00    +0.000 A 
ATOM     32  N   UNL     1      44.278   2.489   9.192  0.00  0.00    +0.000 NA
ATOM     33  C   UNL     1      44.060   3.237  10.327  0.00  0.00    +0.000 A 
ATOM     34 CL   UNL     1      43.336   2.545  11.707  0.00  0.00    +0.000 Cl
ATOM     35  H   UNL     1      45.393   5.361   8.412  0.00  0.00    +0.000 HD
ENDBRANCH  26  29
ENDBRANCH  24  25
ENDBRANCH   4  24
TORSDOF 6
ENDMDL
MODEL 6
REMARK VINA RESULT:    -7.053      3.826      7.940
REMARK INTER + INTRA:         -10.714
REMARK INTER:                  -9.077
REMARK INTRA:                  -1.636
REMARK UNBOUND:                -1.186
REMARK  Name = 
REMARK  7 active torsions:
REMARK  status: ('A' for Active; 'I' for Inactive)
REMARK    1  A    between atoms: C_1  and  N_2
REMARK    2  A    between atoms: N_2  and  C_3
REMARK    3  A    between atoms: C_3  and  C_4
REMARK    4  A    between atoms: C_7  and  C_8
REMARK    5  A    between atoms: C_8  and  N_9
REMARK    6  A    between atoms: C_10  and  C_12
REMARK    7  A    between atoms: C_21  and  C_23
REMARK                            x       y       z     vdW  Elec       q    Type
REMARK                         _______ _______ _______ _____ _____    ______ ____
ROOT
ATOM      1  C   UNL     1      48.820   8.024  15.709  0.00  0.00    +0.000 A 
ATOM      2  C   UNL     1      49.265   6.904  14.987  0.00  0.00    +0.000 A 
ATOM      3  C   UNL     1      48.796   6.662  13.696  0.00  0.00    +0.000 A 
ATOM      4  C   UNL     1      47.861   7.527  13.112  0.00  0.00    +0.000 A 
ATOM      5  C   UNL     1      47.414   8.628  13.848  0.00  0.00    +0.000 A 
ATOM      6  F   UNL     1      46.536   9.481  13.301  0.00  0.00    +0.000 F 
ATOM      7  C   UNL     1      47.879   8.882  15.130  0.00  0.00    +0.000 A 
ENDROOT
BRANCH   1   8
ATOM      8  C   UNL     1      49.395   8.338  17.065  0.00  0.00    +0.000 C 
BRANCH   8  10
ATOM      9  C   UNL     1      47.507   8.904  18.664  0.00  0.00    +0.000 C 
ATOM     10  N   UNL     1      48.565   7.999  18.227  0.00  0.00    +0.000 N 
ATOM     11  C   UNL     1      48.552   6.725  18.823  0.00  0.00    +0.000 C 
ATOM     12  O   UNL     1      47.710   6.431  19.670  0.00  0.00    +0.000 OA
BRANCH  11  13
ATOM     13  C   UNL     1      49.582   5.743  18.460  0.00  0.00    +0.000 A 
ATOM     14  C   UNL     1      50.888   5.764  18.922  0.00  0.00    +0.000 A 
ATOM     15  S   UNL     1      51.827   4.444  18.385  0.00  0.00    +0.000 S 
ATOM     16  C   UNL     1      50.481   3.723  17.639  0.00  0.00    +0.000 A 
ATOM     17  N   UNL     1      50.569   2.493  17.078  0.00  0.00    +0.000 NA
ATOM     18  C   UNL     1      49.451   2.039  16.617  0.00  0.00    +0.000 A 
ATOM     19  N   UNL     1      48.262   2.728  16.630  0.00  0.00    +0.000 N 
ATOM     20  C   UNL     1      48.161   4.034  17.055  0.00  0.00    +0.000 A 
ATOM     21  O   UNL     1      47.158   4.700  16.816  0.00  0.00    +0.000 OA
ATOM     22  C   UNL     1      49.359   4.531  17.706  0.00  0.00    +0.000 A 
ATOM     23  H   UNL     1      47.441   2.345  16.188  0.00  0.00    +0.000 HD
ENDBRANCH  11  13
ENDBRANCH   8  10
ENDBRANCH   1   8
BRANCH   4  24
ATOM     24  C   UNL     1      47.403   7.314  11.702  0.00  0.00    +0.000 C 
BRANCH  24  25
ATOM     25  N   UNL     1      46.618   6.107  11.599  0.00  0.00    +0.000 N 
ATOM     26  C   UNL     1      45.248   6.134  11.573  0.00  0.00    +0.000 C 
ATOM     27  O   UNL     1      44.608   7.169  11.743  0.00  0.00    +0.000 OA
ATOM     28  H   UNL     1      47.096   5.256  11.327  0.00  0.00    +0.000 HD
BRANCH  26  29
ATOM     29  C   UNL     1      44.589   4.881  11.329  0.00  0.00    +0.000 A 
ATOM     30  N   UNL     1      43.870   4.237  12.313  0.00  0.00    +0.000 N 
ATOM     31  C   UNL     1      43.360   3.088  11.791  0.00  0.00    +0.000 A 
ATOM     32  N   UNL     1      43.705   2.943  10.535  0.00  0.00    +0.000 NA
ATOM     33  C   UNL     1      44.471   4.047  10.233  0.00  0.00    +0.000 A 
ATOM     34 CL   UNL     1      45.131   4.255   8.675  0.00  0.00    +0.000 Cl
ATOM     35  H   UNL     1      43.754   4.580  13.259  0.00  0.00    +0.000 HD
ENDBRANCH  26  29
ENDBRANCH  24  25
ENDBRANCH   4  24
TORSDOF 6
ENDMDL
MODEL 7
REMARK VINA RESULT:    -6.859      4.905      6.655
REMARK INTER + INTRA:         -10.450
REMARK INTER:                  -9.315
REMARK INTRA:                  -1.135
REMARK UNBOUND:                -1.186
REMARK  Name = 
REMARK  7 active torsions:
REMARK  status: ('A' for Active; 'I' for Inactive)
REMARK    1  A    between atoms: C_1  and  N_2
REMARK    2  A    between atoms: N_2  and  C_3
REMARK    3  A    between atoms: C_3  and  C_4
REMARK    4  A    between atoms: C_7  and  C_8
REMARK    5  A    between atoms: C_8  and  N_9
REMARK    6  A    between atoms: C_10  and  C_12
REMARK    7  A    between atoms: C_21  and  C_23
REMARK                            x       y       z     vdW  Elec       q    Type
REMARK                         _______ _______ _______ _____ _____    ______ ____
ROOT
ATOM      1  C   UNL     1      47.786   6.938  12.666  0.00  0.00    +0.000 A 
ATOM      2  C   UNL     1      48.173   7.358  11.382  0.00  0.00    +0.000 A 
ATOM      3  C   UNL     1      49.462   7.842  11.155  0.00  0.00    +0.000 A 
ATOM      4  C   UNL     1      50.378   7.929  12.211  0.00  0.00    +0.000 A 
ATOM      5  C   UNL     1      49.974   7.523  13.486  0.00  0.00    +0.000 A 
ATOM      6  F   UNL     1      50.841   7.576  14.508  0.00  0.00    +0.000 F 
ATOM      7  C   UNL     1      48.697   7.033  13.722  0.00  0.00    +0.000 A 
ENDROOT
BRANCH   1   8
ATOM      8  C   UNL     1      46.427   6.329  12.893  0.00  0.00    +0.000 C 
BRANCH   8  10
ATOM      9  C   UNL     1      45.268   8.564  12.565  0.00  0.00    +0.000 C 
ATOM     10  N   UNL     1      45.271   7.109  12.437  0.00  0.00    +0.000 N 
ATOM     11  C   UNL     1      44.238   6.573  11.647  0.00  0.00    +0.000 C 
ATOM     12  O   UNL     1      43.391   7.301  11.133  0.00  0.00    +0.000 OA
BRANCH  11  13
ATOM     13  C   UNL     1      44.145   5.118  11.464  0.00  0.00    +0.000 A 
ATOM     14  C   UNL     1      43.384   4.273  12.255  0.00  0.00    +0.000 A 
ATOM     15  S   UNL     1      43.416   2.644  11.747  0.00  0.00    +0.000 S 
ATOM     16  C   UNL     1      44.327   3.039  10.367  0.00  0.00    +0.000 A 
ATOM     17  N   UNL     1      44.611   2.105   9.427  0.00  0.00    +0.000 NA
ATOM     18  C   UNL     1      45.243   2.564   8.398  0.00  0.00    +0.000 A 
ATOM     19  N   UNL     1      45.655   3.867   8.250  0.00  0.00    +0.000 N 
ATOM     20  C   UNL     1      45.518   4.810   9.243  0.00  0.00    +0.000 A 
ATOM     21  O   UNL     1      46.117   5.880   9.186  0.00  0.00    +0.000 OA
ATOM     22  C   UNL     1      44.693   4.374  10.354  0.00  0.00    +0.000 A 
ATOM     23  H   UNL     1      46.208   4.144   7.454  0.00  0.00    +0.000 HD
ENDBRANCH  11  13
ENDBRANCH   8  10
ENDBRANCH   1   8
BRANCH   4  24
ATOM     24  C   UNL     1      51.784   8.383  11.964  0.00  0.00    +0.000 C 
BRANCH  24  25
ATOM     25  N   UNL     1      52.061   8.434  10.548  0.00  0.00    +0.000 N 
ATOM     26  C   UNL     1      52.836   7.489   9.928  0.00  0.00    +0.000 C 
ATOM     27  O   UNL     1      53.424   6.609  10.551  0.00  0.00    +0.000 OA
ATOM     28  H   UNL     1      51.498   9.055   9.981  0.00  0.00    +0.000 HD
BRANCH  26  29
ATOM     29  C   UNL     1      52.922   7.575   8.496  0.00  0.00    +0.000 A 
ATOM     30  N   UNL     1      52.810   8.779   7.835  0.00  0.00    +0.000 N 
ATOM     31  C   UNL     1      52.938   8.550   6.499  0.00  0.00    +0.000 A 
ATOM     32  N   UNL     1      53.120   7.276   6.251  0.00  0.00    +0.000 NA
ATOM     33  C   UNL     1      53.110   6.656   7.480  0.00  0.00    +0.000 A 
ATOM     34 CL   UNL     1      53.318   4.969   7.612  0.00  0.00    +0.000 Cl
ATOM     35  H   UNL     1      52.659   9.672   8.287  0.00  0.00    +0.000 HD
ENDBRANCH  26  29
ENDBRANCH  24  25
ENDBRANCH   4  24
TORSDOF 6
ENDMDL
MODEL 8
REMARK VINA RESULT:    -6.642      4.632      7.631
REMARK INTER + INTRA:         -10.157
REMARK INTER:                  -8.079
REMARK INTRA:                  -2.078
REMARK UNBOUND:                -1.186
REMARK  Name = 
REMARK  7 active torsions:
REMARK  status: ('A' for Active; 'I' for Inactive)
REMARK    1  A    between atoms: C_1  and  N_2
REMARK    2  A    between atoms: N_2  and  C_3
REMARK    3  A    between atoms: C_3  and  C_4
REMARK    4  A    between atoms: C_7  and  C_8
REMARK    5  A    between atoms: C_8  and  N_9
REMARK    6  A    between atoms: C_10  and  C_12
REMARK    7  A    between atoms: C_21  and  C_23
REMARK                            x       y       z     vdW  Elec       q    Type
REMARK                         _______ _______ _______ _____ _____    ______ ____
ROOT
ATOM      1  C   UNL     1      49.933   6.216  19.027  0.00  0.00    +0.000 A 
ATOM      2  C   UNL     1      50.421   5.280  18.100  0.00  0.00    +0.000 A 
ATOM      3  C   UNL     1      49.543   4.446  17.406  0.00  0.00    +0.000 A 
ATOM      4  C   UNL     1      48.165   4.523  17.642  0.00  0.00    +0.000 A 
ATOM      5  C   UNL     1      47.694   5.446  18.580  0.00  0.00    +0.000 A 
ATOM      6  F   UNL     1      46.376   5.553  18.806  0.00  0.00    +0.000 F 
ATOM      7  C   UNL     1      48.558   6.286  19.269  0.00  0.00    +0.000 A 
ENDROOT
BRANCH   1   8
ATOM      8  C   UNL     1      50.870   7.179  19.706  0.00  0.00    +0.000 C 
BRANCH   8  10
ATOM      9  C   UNL     1      49.945   9.059  21.139  0.00  0.00    +0.000 C 
ATOM     10  N   UNL     1      50.404   8.564  19.845  0.00  0.00    +0.000 N 
ATOM     11  C   UNL     1      50.595   9.548  18.857  0.00  0.00    +0.000 C 
ATOM     12  O   UNL     1      50.358  10.732  19.089  0.00  0.00    +0.000 OA
BRANCH  11  13
ATOM     13  C   UNL     1      51.044   9.152  17.516  0.00  0.00    +0.000 A 
ATOM     14  C   UNL     1      52.370   9.049  17.129  0.00  0.00    +0.000 A 
ATOM     15  S   UNL     1      52.577   8.489  15.529  0.00  0.00    +0.000 S 
ATOM     16  C   UNL     1      50.907   8.225  15.352  0.00  0.00    +0.000 A 
ATOM     17  N   UNL     1      50.407   7.640  14.236  0.00  0.00    +0.000 NA
ATOM     18  C   UNL     1      49.133   7.433  14.272  0.00  0.00    +0.000 A 
ATOM     19  N   UNL     1      48.309   7.801  15.308  0.00  0.00    +0.000 N 
ATOM     20  C   UNL     1      48.751   8.529  16.391  0.00  0.00    +0.000 A 
ATOM     21  O   UNL     1      47.957   9.060  17.161  0.00  0.00    +0.000 OA
ATOM     22  C   UNL     1      50.195   8.660  16.456  0.00  0.00    +0.000 A 
ATOM     23  H   UNL     1      47.311   7.675  15.241  0.00  0.00    +0.000 HD
ENDBRANCH  11  13
ENDBRANCH   8  10
ENDBRANCH   1   8
BRANCH   4  24
ATOM     24  C   UNL     1      47.209   3.680  16.855  0.00  0.00    +0.000 C 
BRANCH  24  25
ATOM     25  N   UNL     1      46.603   4.452  15.796  0.00  0.00    +0.000 N 
ATOM     26  C   UNL     1      46.758   4.118  14.476  0.00  0.00    +0.000 C 
ATOM     27  O   UNL     1      47.504   3.213  14.111  0.00  0.00    +0.000 OA
ATOM     28  H   UNL     1      45.883   5.117  16.052  0.00  0.00    +0.000 HD
BRANCH  26  29
ATOM     29  C   UNL     1      45.993   4.882  13.530  0.00  0.00    +0.000 A 
ATOM     30  N   UNL     1      45.913   6.256  13.606  0.00  0.00    +0.000 N 
ATOM     31  C   UNL     1      45.131   6.698  12.583  0.00  0.00    +0.000 A 
ATOM     32  N   UNL     1      44.696   5.701  11.852  0.00  0.00    +0.000 NA
ATOM     33  C   UNL     1      45.220   4.566  12.428  0.00  0.00    +0.000 A 
ATOM     34 CL   UNL     1      44.895   3.024  11.778  0.00  0.00    +0.000 Cl
ATOM     35  H   UNL     1      46.367   6.821  14.313  0.00  0.00    +0.000 HD
ENDBRANCH  26  29
ENDBRANCH  24  25
ENDBRANCH   4  24
TORSDOF 6
ENDMDL
MODEL 9
REMARK VINA RESULT:    -6.566      4.342      8.176
REMARK INTER + INTRA:         -10.056
REMARK INTER:                  -8.089
REMARK INTRA:                  -1.966
REMARK UNBOUND:                -1.186
REMARK  Name = 
REMARK  7 active torsions:
REMARK  status: ('A' for Active; 'I' for Inactive)
REMARK    1  A    between atoms: C_1  and  N_2
REMARK    2  A    between atoms: N_2  and  C_3
REMARK    3  A    between atoms: C_3  and  C_4
REMARK    4  A    between atoms: C_7  and  C_8
REMARK    5  A    between atoms: C_8  and  N_9
REMARK    6  A    between atoms: C_10  and  C_12
REMARK    7  A    between atoms: C_21  and  C_23
REMARK                            x       y       z     vdW  Elec       q    Type
REMARK                         _______ _______ _______ _____ _____    ______ ____
ROOT
ATOM      1  C   UNL     1      50.985   4.381  18.793  0.00  0.00    +0.000 A 
ATOM      2  C   UNL     1      50.878   3.423  17.771  0.00  0.00    +0.000 A 
ATOM      3  C   UNL     1      49.629   3.076  17.254  0.00  0.00    +0.000 A 
ATOM      4  C   UNL     1      48.466   3.669  17.763  0.00  0.00    +0.000 A 
ATOM      5  C   UNL     1      48.586   4.609  18.791  0.00  0.00    +0.000 A 
ATOM      6  F   UNL     1      47.489   5.206  19.278  0.00  0.00    +0.000 F 
ATOM      7  C   UNL     1      49.824   4.966  19.308  0.00  0.00    +0.000 A 
ENDROOT
BRANCH   1   8
ATOM      8  C   UNL     1      52.337   4.824  19.287  0.00  0.00    +0.000 C 
BRANCH   8  10
ATOM      9  C   UNL     1      54.282   4.614  17.669  0.00  0.00    +0.000 C 
ATOM     10  N   UNL     1      53.238   5.420  18.294  0.00  0.00    +0.000 N 
ATOM     11  C   UNL     1      53.015   6.678  17.704  0.00  0.00    +0.000 C 
ATOM     12  O   UNL     1      53.687   7.056  16.746  0.00  0.00    +0.000 OA
BRANCH  11  13
ATOM     13  C   UNL     1      51.992   7.572  18.264  0.00  0.00    +0.000 A 
ATOM     14  C   UNL     1      52.172   8.370  19.383  0.00  0.00    +0.000 A 
ATOM     15  S   UNL     1      50.827   9.358  19.743  0.00  0.00    +0.000 S 
ATOM     16  C   UNL     1      50.020   8.861  18.332  0.00  0.00    +0.000 A 
ATOM     17  N   UNL     1      48.840   9.421  17.970  0.00  0.00    +0.000 NA
ATOM     18  C   UNL     1      48.380   9.002  16.837  0.00  0.00    +0.000 A 
ATOM     19  N   UNL     1      48.976   8.040  16.059  0.00  0.00    +0.000 N 
ATOM     20  C   UNL     1      50.094   7.342  16.460  0.00  0.00    +0.000 A 
ATOM     21  O   UNL     1      50.448   6.325  15.872  0.00  0.00    +0.000 OA
ATOM     22  C   UNL     1      50.718   7.876  17.656  0.00  0.00    +0.000 A 
ATOM     23  H   UNL     1      48.527   7.706  15.220  0.00  0.00    +0.000 HD
ENDBRANCH  11  13
ENDBRANCH   8  10
ENDBRANCH   1   8
BRANCH   4  24
ATOM     24  C   UNL     1      47.128   3.355  17.169  0.00  0.00    +0.000 C 
BRANCH  24  25
ATOM     25  N   UNL     1      46.797   4.302  16.130  0.00  0.00    +0.000 N 
ATOM     26  C   UNL     1      46.978   4.013  14.803  0.00  0.00    +0.000 C 
ATOM     27  O   UNL     1      47.528   2.982  14.424  0.00  0.00    +0.000 OA
ATOM     28  H   UNL     1      46.227   5.099  16.385  0.00  0.00    +0.000 HD
BRANCH  26  29
ATOM     29  C   UNL     1      46.482   4.983  13.866  0.00  0.00    +0.000 A 
ATOM     30  N   UNL     1      46.819   6.316  13.957  0.00  0.00    +0.000 N 
ATOM     31  C   UNL     1      46.210   6.984  12.939  0.00  0.00    +0.000 A 
ATOM     32  N   UNL     1      45.497   6.172  12.198  0.00  0.00    +0.000 NA
ATOM     33  C   UNL     1      45.653   4.926  12.760  0.00  0.00    +0.000 A 
ATOM     34 CL   UNL     1      44.880   3.560  12.093  0.00  0.00    +0.000 Cl
ATOM     35  H   UNL     1      47.420   6.710  14.670  0.00  0.00    +0.000 HD
ENDBRANCH  26  29
ENDBRANCH  24  25
ENDBRANCH   4  24
TORSDOF 6
ENDMDL
