MODEL 1
REMARK VINA RESULT:    -6.989      0.000      0.000
REMARK INTER + INTRA:         -10.371
REMARK INTER:                  -9.236
REMARK INTRA:                  -1.135
REMARK UNBOUND:                -1.135
REMARK  Name = 
REMARK  6 active torsions:
REMARK  status: ('A' for Active; 'I' for Inactive)
REMARK    1  A    between atoms: N_1  and  C_2
REMARK    2  A    between atoms: C_5  and  C_6
REMARK    3  A    between atoms: C_6  and  C_7
REMARK    4  A    between atoms: C_10  and  C_11
REMARK    5  A    between atoms: C_11  and  N_12
REMARK    6  A    between atoms: C_13  and  C_15
REMARK                            x       y       z     vdW  Elec       q    Type
REMARK                         _______ _______ _______ _____ _____    ______ ____
ROOT
ATOM      1  C   UNL     1      47.171   5.394  14.016  0.00  0.00    +0.000 A 
ATOM      2  C   UNL     1      47.138   4.528  15.111  0.00  0.00    +0.000 A 
ATOM      3  C   UNL     1      47.838   4.836  16.270  0.00  0.00    +0.000 A 
ATOM      4  C   UNL     1      48.601   5.997  16.303  0.00  0.00    +0.000 A 
ATOM      5  N   UNL     1      48.662   6.855  15.251  0.00  0.00    +0.000 NA
ATOM      6  C   UNL     1      47.948   6.539  14.144  0.00  0.00    +0.000 A 
ENDROOT
BRANCH   1   7
ATOM      7  C   UNL     1      46.405   5.082  12.757  0.00  0.00    +0.000 C 
BRANCH   7  11
ATOM      8  C   UNL     1      43.757   4.236  10.251  0.00  0.00    +0.000 C 
ATOM      9  C   UNL     1      44.824   3.244  10.720  0.00  0.00    +0.000 C 
ATOM     10  C   UNL     1      44.816   3.089  12.240  0.00  0.00    +0.000 C 
ATOM     11  C   UNL     1      45.015   4.430  12.967  0.00  0.00    +0.000 C 
ATOM     12  C   UNL     1      43.890   5.387  12.522  0.00  0.00    +0.000 C 
ATOM     13  C   UNL     1      43.832   5.573  11.002  0.00  0.00    +0.000 C 
BRANCH   8  14
ATOM     14  N   UNL     1      43.891   4.471   8.812  0.00  0.00    +0.000 NA
ATOM     15  H   UNL     1      44.799   4.896   8.618  0.00  0.00    +0.000 HD
ATOM     16  H   UNL     1      43.197   5.153   8.506  0.00  0.00    +0.000 HD
ENDBRANCH   8  14
ENDBRANCH   7  11
ENDBRANCH   1   7
BRANCH   4  17
ATOM     17  C   UNL     1      49.394   6.333  17.542  0.00  0.00    +0.000 C 
BRANCH  17  18
ATOM     18  N   UNL     1      50.364   5.313  17.875  0.00  0.00    +0.000 N 
ATOM     19  C   UNL     1      51.644   5.327  17.392  0.00  0.00    +0.000 C 
ATOM     20  O   UNL     1      52.044   6.201  16.626  0.00  0.00    +0.000 OA
ATOM     21  H   UNL     1      49.991   4.473  18.306  0.00  0.00    +0.000 HD
BRANCH  19  22
ATOM     22  C   UNL     1      52.549   4.285  17.899  0.00  0.00    +0.000 A 
ATOM     23  C   UNL     1      53.741   4.651  18.511  0.00  0.00    +0.000 A 
ATOM     24  S   UNL     1      54.657   3.329  19.077  0.00  0.00    +0.000 S 
ATOM     25  C   UNL     1      53.516   2.217  18.482  0.00  0.00    +0.000 A 
ATOM     26  N   UNL     1      53.715   0.877  18.612  0.00  0.00    +0.000 NA
ATOM     27  C   UNL     1      52.789   0.149  18.082  0.00  0.00    +0.000 A 
ATOM     28  N   UNL     1      51.675   0.637  17.451  0.00  0.00    +0.000 N 
ATOM     29  C   UNL     1      51.402   1.981  17.352  0.00  0.00    +0.000 A 
ATOM     30  O   UNL     1      50.349   2.382  16.872  0.00  0.00    +0.000 OA
ATOM     31  C   UNL     1      52.436   2.846  17.889  0.00  0.00    +0.000 A 
ATOM     32  H   UNL     1      50.974   0.014  17.084  0.00  0.00    +0.000 HD
ENDBRANCH  19  22
ENDBRANCH  17  18
ENDBRANCH   4  17
TORSDOF 6
ENDMDL
MODEL 2
REMARK VINA RESULT:    -6.926      1.748      2.364
REMARK INTER + INTRA:         -10.288
REMARK INTER:                  -9.258
REMARK INTRA:                  -1.031
REMARK UNBOUND:                -1.135
REMARK  Name = 
REMARK  6 active torsions:
REMARK  status: ('A' for Active; 'I' for Inactive)
REMARK    1  A    between atoms: N_1  and  C_2
REMARK    2  A    between atoms: C_5  and  C_6
REMARK    3  A    between atoms: C_6  and  C_7
REMARK    4  A    between atoms: C_10  and  C_11
REMARK    5  A    between atoms: C_11  and  N_12
REMARK    6  A    between atoms: C_13  and  C_15
REMARK                            x       y       z     vdW  Elec       q    Type
REMARK                         _______ _______ _______ _____ _____    ______ ____
ROOT
ATOM      1  C   UNL     1      46.871   6.335  12.426  0.00  0.00    +0.000 A 
ATOM      2  C   UNL     1      46.961   7.713  12.640  0.00  0.00    +0.000 A 
ATOM      3  C   UNL     1      47.705   8.209  13.703  0.00  0.00    +0.000 A 
ATOM      4  C   UNL     1      48.319   7.312  14.567  0.00  0.00    +0.000 A 
ATOM      5  N   UNL     1      48.242   5.966  14.392  0.00  0.00    +0.000 NA
ATOM      6  C   UNL     1      47.530   5.514  13.332  0.00  0.00    +0.000 A 
ENDROOT
BRANCH   1   7
ATOM      7  C   UNL     1      46.080   5.781  11.270  0.00  0.00    +0.000 C 
BRANCH   7  11
ATOM      8  C   UNL     1      43.299   3.395  12.033  0.00  0.00    +0.000 C 
ATOM      9  C   UNL     1      43.966   4.281  13.089  0.00  0.00    +0.000 C 
ATOM     10  C   UNL     1      43.907   5.757  12.699  0.00  0.00    +0.000 C 
ATOM     11  C   UNL     1      44.552   6.029  11.329  0.00  0.00    +0.000 C 
ATOM     12  C   UNL     1      43.818   5.169  10.278  0.00  0.00    +0.000 C 
ATOM     13  C   UNL     1      43.825   3.675  10.618  0.00  0.00    +0.000 C 
BRANCH   8  14
ATOM     14  N   UNL     1      43.504   1.984  12.364  0.00  0.00    +0.000 NA
ATOM     15  H   UNL     1      43.564   1.436  11.505  0.00  0.00    +0.000 HD
ATOM     16  H   UNL     1      42.690   1.623  12.863  0.00  0.00    +0.000 HD
ENDBRANCH   8  14
ENDBRANCH   7  11
ENDBRANCH   1   7
BRANCH   4  17
ATOM     17  C   UNL     1      49.106   7.832  15.746  0.00  0.00    +0.000 C 
BRANCH  17  18
ATOM     18  N   UNL     1      50.115   6.898  16.195  0.00  0.00    +0.000 N 
ATOM     19  C   UNL     1      50.046   6.264  17.406  0.00  0.00    +0.000 C 
ATOM     20  O   UNL     1      49.128   6.466  18.197  0.00  0.00    +0.000 OA
ATOM     21  H   UNL     1      50.984   6.899  15.669  0.00  0.00    +0.000 HD
BRANCH  19  22
ATOM     22  C   UNL     1      51.087   5.263  17.684  0.00  0.00    +0.000 A 
ATOM     23  C   UNL     1      52.322   5.676  18.167  0.00  0.00    +0.000 A 
ATOM     24  S   UNL     1      53.403   4.393  18.475  0.00  0.00    +0.000 S 
ATOM     25  C   UNL     1      52.275   3.243  17.930  0.00  0.00    +0.000 A 
ATOM     26  N   UNL     1      52.588   1.919  17.900  0.00  0.00    +0.000 NA
ATOM     27  C   UNL     1      51.653   1.163  17.429  0.00  0.00    +0.000 A 
ATOM     28  N   UNL     1      50.429   1.606  17.001  0.00  0.00    +0.000 N 
ATOM     29  C   UNL     1      50.047   2.925  17.070  0.00  0.00    +0.000 A 
ATOM     30  O   UNL     1      48.911   3.274  16.776  0.00  0.00    +0.000 OA
ATOM     31  C   UNL     1      51.080   3.826  17.548  0.00  0.00    +0.000 A 
ATOM     32  H   UNL     1      49.732   0.960  16.670  0.00  0.00    +0.000 HD
ENDBRANCH  19  22
ENDBRANCH  17  18
ENDBRANCH   4  17
TORSDOF 6
ENDMDL
MODEL 3
REMARK VINA RESULT:    -6.862      3.102      8.896
REMARK INTER + INTRA:         -10.203
REMARK INTER:                  -9.227
REMARK INTRA:                  -0.976
REMARK UNBOUND:                -1.135
REMARK  Name = 
REMARK  6 active torsions:
REMARK  status: ('A' for Active; 'I' for Inactive)
REMARK    1  A    between atoms: N_1  and  C_2
REMARK    2  A    between atoms: C_5  and  C_6
REMARK    3  A    between atoms: C_6  and  C_7
REMARK    4  A    between atoms: C_10  and  C_11
REMARK    5  A    between atoms: C_11  and  N_12
REMARK    6  A    between atoms: C_13  and  C_15
REMARK                            x       y       z     vdW  Elec       q    Type
REMARK                         _______ _______ _______ _____ _____    ______ ____
ROOT
ATOM      1  C   UNL     1      51.282   2.228  17.387  0.00  0.00    +0.000 A 
ATOM      2  C   UNL     1      49.892   2.095  17.327  0.00  0.00    +0.000 A 
ATOM      3  C   UNL     1      49.081   3.222  17.300  0.00  0.00    +0.000 A 
ATOM      4  C   UNL     1      49.674   4.476  17.374  0.00  0.00    +0.000 A 
ATOM      5  N   UNL     1      51.022   4.639  17.443  0.00  0.00    +0.000 NA
ATOM      6  C   UNL     1      51.787   3.521  17.442  0.00  0.00    +0.000 A 
ENDROOT
BRANCH   1   7
ATOM      7  C   UNL     1      52.176   1.016  17.402  0.00  0.00    +0.000 C 
BRANCH   7  11
ATOM      8  C   UNL     1      55.087  -1.337  17.453  0.00  0.00    +0.000 C 
ATOM      9  C   UNL     1      54.702  -0.495  16.234  0.00  0.00    +0.000 C 
ATOM     10  C   UNL     1      54.642   0.993  16.577  0.00  0.00    +0.000 C 
ATOM     11  C   UNL     1      53.665   1.291  17.728  0.00  0.00    +0.000 C 
ATOM     12  C   UNL     1      54.115   0.477  18.958  0.00  0.00    +0.000 C 
ATOM     13  C   UNL     1      54.213  -1.027  18.677  0.00  0.00    +0.000 C 
BRANCH   8  14
ATOM     14  N   UNL     1      54.989  -2.761  17.127  0.00  0.00    +0.000 NA
ATOM     15  H   UNL     1      54.207  -3.176  17.636  0.00  0.00    +0.000 HD
ATOM     16  H   UNL     1      55.822  -3.249  17.457  0.00  0.00    +0.000 HD
ENDBRANCH   8  14
ENDBRANCH   7  11
ENDBRANCH   1   7
BRANCH   4  17
ATOM     17  C   UNL     1      48.808   5.712  17.378  0.00  0.00    +0.000 C 
BRANCH  17  18
ATOM     18  N   UNL     1      47.949   5.792  16.217  0.00  0.00    +0.000 N 
ATOM     19  C   UNL     1      48.394   6.227  14.998  0.00  0.00    +0.000 C 
ATOM     20  O   UNL     1      49.552   6.598  14.820  0.00  0.00    +0.000 OA
ATOM     21  H   UNL     1      46.953   5.717  16.399  0.00  0.00    +0.000 HD
BRANCH  19  22
ATOM     22  C   UNL     1      47.436   6.155  13.885  0.00  0.00    +0.000 A 
ATOM     23  C   UNL     1      47.085   7.316  13.208  0.00  0.00    +0.000 A 
ATOM     24  S   UNL     1      45.997   7.057  11.921  0.00  0.00    +0.000 S 
ATOM     25  C   UNL     1      45.920   5.391  12.251  0.00  0.00    +0.000 A 
ATOM     26  N   UNL     1      45.121   4.570  11.516  0.00  0.00    +0.000 NA
ATOM     27  C   UNL     1      45.131   3.337  11.900  0.00  0.00    +0.000 A 
ATOM     28  N   UNL     1      45.878   2.846  12.938  0.00  0.00    +0.000 N 
ATOM     29  C   UNL     1      46.746   3.625  13.667  0.00  0.00    +0.000 A 
ATOM     30  O   UNL     1      47.475   3.136  14.520  0.00  0.00    +0.000 OA
ATOM     31  C   UNL     1      46.737   5.031  13.308  0.00  0.00    +0.000 A 
ATOM     32  H   UNL     1      45.863   1.866  13.168  0.00  0.00    +0.000 HD
ENDBRANCH  19  22
ENDBRANCH  17  18
ENDBRANCH   4  17
TORSDOF 6
ENDMDL
MODEL 4
REMARK VINA RESULT:    -6.527      3.399      9.470
REMARK INTER + INTRA:          -9.761
REMARK INTER:                  -8.772
REMARK INTRA:                  -0.989
REMARK UNBOUND:                -1.135
REMARK  Name = 
REMARK  6 active torsions:
REMARK  status: ('A' for Active; 'I' for Inactive)
REMARK    1  A    between atoms: N_1  and  C_2
REMARK    2  A    between atoms: C_5  and  C_6
REMARK    3  A    between atoms: C_6  and  C_7
REMARK    4  A    between atoms: C_10  and  C_11
REMARK    5  A    between atoms: C_11  and  N_12
REMARK    6  A    between atoms: C_13  and  C_15
REMARK                            x       y       z     vdW  Elec       q    Type
REMARK                         _______ _______ _______ _____ _____    ______ ____
ROOT
ATOM      1  C   UNL     1      51.154   3.803  18.267  0.00  0.00    +0.000 A 
ATOM      2  C   UNL     1      50.157   4.681  18.700  0.00  0.00    +0.000 A 
ATOM      3  C   UNL     1      48.847   4.524  18.264  0.00  0.00    +0.000 A 
ATOM      4  C   UNL     1      48.559   3.508  17.362  0.00  0.00    +0.000 A 
ATOM      5  N   UNL     1      49.508   2.644  16.914  0.00  0.00    +0.000 NA
ATOM      6  C   UNL     1      50.771   2.807  17.377  0.00  0.00    +0.000 A 
ENDROOT
BRANCH   1   7
ATOM      7  C   UNL     1      52.576   3.951  18.741  0.00  0.00    +0.000 C 
BRANCH   7  11
ATOM      8  C   UNL     1      54.821   6.939  18.544  0.00  0.00    +0.000 C 
ATOM      9  C   UNL     1      55.252   5.596  19.141  0.00  0.00    +0.000 C 
ATOM     10  C   UNL     1      55.058   4.453  18.146  0.00  0.00    +0.000 C 
ATOM     11  C   UNL     1      53.604   4.346  17.652  0.00  0.00    +0.000 C 
ATOM     12  C   UNL     1      53.221   5.692  17.001  0.00  0.00    +0.000 C 
ATOM     13  C   UNL     1      53.410   6.886  17.943  0.00  0.00    +0.000 C 
BRANCH   8  14
ATOM     14  N   UNL     1      54.881   7.983  19.569  0.00  0.00    +0.000 NA
ATOM     15  H   UNL     1      54.519   8.858  19.188  0.00  0.00    +0.000 HD
ATOM     16  H   UNL     1      55.853   8.171  19.816  0.00  0.00    +0.000 HD
ENDBRANCH   8  14
ENDBRANCH   7  11
ENDBRANCH   1   7
BRANCH   4  17
ATOM     17  C   UNL     1      47.148   3.341  16.853  0.00  0.00    +0.000 C 
BRANCH  17  18
ATOM     18  N   UNL     1      46.788   4.344  15.876  0.00  0.00    +0.000 N 
ATOM     19  C   UNL     1      46.866   4.122  14.527  0.00  0.00    +0.000 C 
ATOM     20  O   UNL     1      47.269   3.058  14.063  0.00  0.00    +0.000 OA
ATOM     21  H   UNL     1      46.682   5.289  16.231  0.00  0.00    +0.000 HD
BRANCH  19  22
ATOM     22  C   UNL     1      46.368   5.195  13.655  0.00  0.00    +0.000 A 
ATOM     23  C   UNL     1      47.143   6.330  13.454  0.00  0.00    +0.000 A 
ATOM     24  S   UNL     1      46.442   7.460  12.387  0.00  0.00    +0.000 S 
ATOM     25  C   UNL     1      45.056   6.495  12.191  0.00  0.00    +0.000 A 
ATOM     26  N   UNL     1      44.023   6.909  11.407  0.00  0.00    +0.000 NA
ATOM     27  C   UNL     1      43.020   6.095  11.379  0.00  0.00    +0.000 A 
ATOM     28  N   UNL     1      42.962   4.901  12.047  0.00  0.00    +0.000 N 
ATOM     29  C   UNL     1      44.005   4.415  12.799  0.00  0.00    +0.000 A 
ATOM     30  O   UNL     1      43.961   3.298  13.300  0.00  0.00    +0.000 OA
ATOM     31  C   UNL     1      45.140   5.313  12.904  0.00  0.00    +0.000 A 
ATOM     32  H   UNL     1      42.160   4.298  11.960  0.00  0.00    +0.000 HD
ENDBRANCH  19  22
ENDBRANCH  17  18
ENDBRANCH   4  17
TORSDOF 6
ENDMDL
MODEL 5
REMARK VINA RESULT:    -6.398      1.718      2.933
REMARK INTER + INTRA:          -9.590
REMARK INTER:                  -8.670
REMARK INTRA:                  -0.920
REMARK UNBOUND:                -1.135
REMARK  Name = 
REMARK  6 active torsions:
REMARK  status: ('A' for Active; 'I' for Inactive)
REMARK    1  A    between atoms: N_1  and  C_2
REMARK    2  A    between atoms: C_5  and  C_6
REMARK    3  A    between atoms: C_6  and  C_7
REMARK    4  A    between atoms: C_10  and  C_11
REMARK    5  A    between atoms: C_11  and  N_12
REMARK    6  A    between atoms: C_13  and  C_15
REMARK                            x       y       z     vdW  Elec       q    Type
REMARK                         _______ _______ _______ _____ _____    ______ ____
ROOT
ATOM      1  C   UNL     1      47.180   4.951  13.894  0.00  0.00    +0.000 A 
ATOM      2  C   UNL     1      47.449   5.664  15.065  0.00  0.00    +0.000 A 
ATOM      3  C   UNL     1      47.800   4.993  16.229  0.00  0.00    +0.000 A 
ATOM      4  C   UNL     1      47.837   3.604  16.216  0.00  0.00    +0.000 A 
ATOM      5  N   UNL     1      47.572   2.881  15.096  0.00  0.00    +0.000 NA
ATOM      6  C   UNL     1      47.257   3.565  13.971  0.00  0.00    +0.000 A 
ENDROOT
BRANCH   1   7
ATOM      7  C   UNL     1      46.813   5.664  12.619  0.00  0.00    +0.000 C 
BRANCH   7  11
ATOM      8  C   UNL     1      43.868   4.134  10.888  0.00  0.00    +0.000 C 
ATOM      9  C   UNL     1      44.202   3.891  12.362  0.00  0.00    +0.000 C 
ATOM     10  C   UNL     1      44.306   5.203  13.137  0.00  0.00    +0.000 C 
ATOM     11  C   UNL     1      45.348   6.161  12.533  0.00  0.00    +0.000 C 
ATOM     12  C   UNL     1      44.950   6.436  11.068  0.00  0.00    +0.000 C 
ATOM     13  C   UNL     1      44.810   5.156  10.236  0.00  0.00    +0.000 C 
BRANCH   8  14
ATOM     14  N   UNL     1      43.922   2.872  10.149  0.00  0.00    +0.000 NA
ATOM     15  H   UNL     1      44.604   2.249  10.584  0.00  0.00    +0.000 HD
ATOM     16  H   UNL     1      44.268   3.039   9.203  0.00  0.00    +0.000 HD
ENDBRANCH   8  14
ENDBRANCH   7  11
ENDBRANCH   1   7
BRANCH   4  17
ATOM     17  C   UNL     1      48.186   2.856  17.480  0.00  0.00    +0.000 C 
BRANCH  17  18
ATOM     18  N   UNL     1      49.572   3.019  17.858  0.00  0.00    +0.000 N 
ATOM     19  C   UNL     1      50.588   2.330  17.254  0.00  0.00    +0.000 C 
ATOM     20  O   UNL     1      50.380   1.509  16.363  0.00  0.00    +0.000 OA
ATOM     21  H   UNL     1      49.736   3.504  18.735  0.00  0.00    +0.000 HD
BRANCH  19  22
ATOM     22  C   UNL     1      51.955   2.675  17.669  0.00  0.00    +0.000 A 
ATOM     23  C   UNL     1      52.801   1.678  18.138  0.00  0.00    +0.000 A 
ATOM     24  S   UNL     1      54.361   2.235  18.541  0.00  0.00    +0.000 S 
ATOM     25  C   UNL     1      53.948   3.837  18.148  0.00  0.00    +0.000 A 
ATOM     26  N   UNL     1      54.848   4.846  18.301  0.00  0.00    +0.000 NA
ATOM     27  C   UNL     1      54.389   6.016  18.001  0.00  0.00    +0.000 A 
ATOM     28  N   UNL     1      53.122   6.266  17.547  0.00  0.00    +0.000 N 
ATOM     29  C   UNL     1      52.200   5.271  17.319  0.00  0.00    +0.000 A 
ATOM     30  O   UNL     1      51.111   5.517  16.816  0.00  0.00    +0.000 OA
ATOM     31  C   UNL     1      52.649   3.941  17.686  0.00  0.00    +0.000 A 
ATOM     32  H   UNL     1      52.834   7.200  17.303  0.00  0.00    +0.000 HD
ENDBRANCH  19  22
ENDBRANCH  17  18
ENDBRANCH   4  17
TORSDOF 6
ENDMDL
MODEL 6
REMARK VINA RESULT:    -6.264      3.220      9.677
REMARK INTER + INTRA:          -9.413
REMARK INTER:                  -9.022
REMARK INTRA:                  -0.391
REMARK UNBOUND:                -1.135
REMARK  Name = 
REMARK  6 active torsions:
REMARK  status: ('A' for Active; 'I' for Inactive)
REMARK    1  A    between atoms: N_1  and  C_2
REMARK    2  A    between atoms: C_5  and  C_6
REMARK    3  A    between atoms: C_6  and  C_7
REMARK    4  A    between atoms: C_10  and  C_11
REMARK    5  A    between atoms: C_11  and  N_12
REMARK    6  A    between atoms: C_13  and  C_15
REMARK                            x       y       z     vdW  Elec       q    Type
REMARK                         _______ _______ _______ _____ _____    ______ ____
ROOT
ATOM      1  C   UNL     1      51.438   2.938  17.864  0.00  0.00    +0.000 A 
ATOM      2  C   UNL     1      50.679   4.030  18.291  0.00  0.00    +0.000 A 
ATOM      3  C   UNL     1      49.328   4.111  17.974  0.00  0.00    +0.000 A 
ATOM      4  C   UNL     1      48.763   3.110  17.194  0.00  0.00    +0.000 A 
ATOM      5  N   UNL     1      49.477   2.040  16.755  0.00  0.00    +0.000 NA
ATOM      6  C   UNL     1      50.785   1.977  17.102  0.00  0.00    +0.000 A 
ENDROOT
BRANCH   1   7
ATOM      7  C   UNL     1      52.900   2.828  18.212  0.00  0.00    +0.000 C 
BRANCH   7  11
ATOM      8  C   UNL     1      55.337   0.052  18.819  0.00  0.00    +0.000 C 
ATOM      9  C   UNL     1      53.864  -0.177  18.467  0.00  0.00    +0.000 C 
ATOM     10  C   UNL     1      53.485   0.521  17.162  0.00  0.00    +0.000 C 
ATOM     11  C   UNL     1      53.767   2.034  17.203  0.00  0.00    +0.000 C 
ATOM     12  C   UNL     1      55.268   2.232  17.498  0.00  0.00    +0.000 C 
ATOM     13  C   UNL     1      55.720   1.539  18.788  0.00  0.00    +0.000 C 
BRANCH   8  14
ATOM     14  N   UNL     1      55.626  -0.503  20.142  0.00  0.00    +0.000 NA
ATOM     15  H   UNL     1      55.866   0.252  20.786  0.00  0.00    +0.000 HD
ATOM     16  H   UNL     1      56.453  -1.098  20.095  0.00  0.00    +0.000 HD
ENDBRANCH   8  14
ENDBRANCH   7  11
ENDBRANCH   1   7
BRANCH   4  17
ATOM     17  C   UNL     1      47.305   3.196  16.812  0.00  0.00    +0.000 C 
BRANCH  17  18
ATOM     18  N   UNL     1      47.037   4.270  15.881  0.00  0.00    +0.000 N 
ATOM     19  C   UNL     1      47.050   4.090  14.525  0.00  0.00    +0.000 C 
ATOM     20  O   UNL     1      47.312   3.004  14.012  0.00  0.00    +0.000 OA
ATOM     21  H   UNL     1      47.053   5.207  16.271  0.00  0.00    +0.000 HD
BRANCH  19  22
ATOM     22  C   UNL     1      46.656   5.245  13.704  0.00  0.00    +0.000 A 
ATOM     23  C   UNL     1      47.515   6.331  13.594  0.00  0.00    +0.000 A 
ATOM     24  S   UNL     1      46.929   7.568  12.577  0.00  0.00    +0.000 S 
ATOM     25  C   UNL     1      45.486   6.718  12.286  0.00  0.00    +0.000 A 
ATOM     26  N   UNL     1      44.510   7.249  11.500  0.00  0.00    +0.000 NA
ATOM     27  C   UNL     1      43.454   6.513  11.395  0.00  0.00    +0.000 A 
ATOM     28  N   UNL     1      43.291   5.289  11.988  0.00  0.00    +0.000 N 
ATOM     29  C   UNL     1      44.273   4.686  12.739  0.00  0.00    +0.000 A 
ATOM     30  O   UNL     1      44.135   3.549  13.170  0.00  0.00    +0.000 OA
ATOM     31  C   UNL     1      45.464   5.493  12.928  0.00  0.00    +0.000 A 
ATOM     32  H   UNL     1      42.452   4.751  11.843  0.00  0.00    +0.000 HD
ENDBRANCH  19  22
ENDBRANCH  17  18
ENDBRANCH   4  17
TORSDOF 6
ENDMDL
MODEL 7
REMARK VINA RESULT:    -6.244      4.621      9.011
REMARK INTER + INTRA:          -9.387
REMARK INTER:                  -8.363
REMARK INTRA:                  -1.024
REMARK UNBOUND:                -1.135
REMARK  Name = 
REMARK  6 active torsions:
REMARK  status: ('A' for Active; 'I' for Inactive)
REMARK    1  A    between atoms: N_1  and  C_2
REMARK    2  A    between atoms: C_5  and  C_6
REMARK    3  A    between atoms: C_6  and  C_7
REMARK    4  A    between atoms: C_10  and  C_11
REMARK    5  A    between atoms: C_11  and  N_12
REMARK    6  A    between atoms: C_13  and  C_15
REMARK                            x       y       z     vdW  Elec       q    Type
REMARK                         _______ _______ _______ _____ _____    ______ ____
ROOT
ATOM      1  C   UNL     1      49.017   7.916  16.295  0.00  0.00    +0.000 A 
ATOM      2  C   UNL     1      49.591   6.995  15.415  0.00  0.00    +0.000 A 
ATOM      3  C   UNL     1      49.374   7.103  14.047  0.00  0.00    +0.000 A 
ATOM      4  C   UNL     1      48.545   8.114  13.579  0.00  0.00    +0.000 A 
ATOM      5  N   UNL     1      47.964   9.020  14.409  0.00  0.00    +0.000 NA
ATOM      6  C   UNL     1      48.215   8.903  15.735  0.00  0.00    +0.000 A 
ENDROOT
BRANCH   1   7
ATOM      7  C   UNL     1      49.254   7.821  17.779  0.00  0.00    +0.000 C 
BRANCH   7  11
ATOM      8  C   UNL     1      49.039   5.309  20.545  0.00  0.00    +0.000 C 
ATOM      9  C   UNL     1      49.264   6.806  20.778  0.00  0.00    +0.000 C 
ATOM     10  C   UNL     1      48.162   7.645  20.133  0.00  0.00    +0.000 C 
ATOM     11  C   UNL     1      48.032   7.380  18.623  0.00  0.00    +0.000 C 
ATOM     12  C   UNL     1      47.745   5.878  18.424  0.00  0.00    +0.000 C 
ATOM     13  C   UNL     1      48.806   4.977  19.065  0.00  0.00    +0.000 C 
BRANCH   8  14
ATOM     14  N   UNL     1      50.185   4.548  21.046  0.00  0.00    +0.000 NA
ATOM     15  H   UNL     1      50.648   4.075  20.269  0.00  0.00    +0.000 HD
ATOM     16  H   UNL     1      49.863   3.806  21.668  0.00  0.00    +0.000 HD
ENDBRANCH   8  14
ENDBRANCH   7  11
ENDBRANCH   1   7
BRANCH   4  17
ATOM     17  C   UNL     1      48.272   8.229  12.099  0.00  0.00    +0.000 C 
BRANCH  17  18
ATOM     18  N   UNL     1      47.578   7.075  11.571  0.00  0.00    +0.000 N 
ATOM     19  C   UNL     1      46.213   6.970  11.574  0.00  0.00    +0.000 C 
ATOM     20  O   UNL     1      45.492   7.846  12.047  0.00  0.00    +0.000 OA
ATOM     21  H   UNL     1      48.151   6.256  11.398  0.00  0.00    +0.000 HD
BRANCH  19  22
ATOM     22  C   UNL     1      45.643   5.789  10.910  0.00  0.00    +0.000 A 
ATOM     23  C   UNL     1      45.853   5.600   9.550  0.00  0.00    +0.000 A 
ATOM     24  S   UNL     1      45.161   4.165   8.941  0.00  0.00    +0.000 S 
ATOM     25  C   UNL     1      44.517   3.768  10.464  0.00  0.00    +0.000 A 
ATOM     26  N   UNL     1      43.767   2.645  10.632  0.00  0.00    +0.000 NA
ATOM     27  C   UNL     1      43.311   2.486  11.830  0.00  0.00    +0.000 A 
ATOM     28  N   UNL     1      43.550   3.336  12.878  0.00  0.00    +0.000 N 
ATOM     29  C   UNL     1      44.352   4.448  12.769  0.00  0.00    +0.000 A 
ATOM     30  O   UNL     1      44.629   5.130  13.748  0.00  0.00    +0.000 OA
ATOM     31  C   UNL     1      44.852   4.699  11.430  0.00  0.00    +0.000 A 
ATOM     32  H   UNL     1      43.187   3.139  13.797  0.00  0.00    +0.000 HD
ENDBRANCH  19  22
ENDBRANCH  17  18
ENDBRANCH   4  17
TORSDOF 6
ENDMDL
MODEL 8
REMARK VINA RESULT:    -6.188      2.302      3.415
REMARK INTER + INTRA:          -9.313
REMARK INTER:                  -8.263
REMARK INTRA:                  -1.050
REMARK UNBOUND:                -1.135
REMARK  Name = 
REMARK  6 active torsions:
REMARK  status: ('A' for Active; 'I' for Inactive)
REMARK    1  A    between atoms: N_1  and  C_2
REMARK    2  A    between atoms: C_5  and  C_6
REMARK    3  A    between atoms: C_6  and  C_7
REMARK    4  A    between atoms: C_10  and  C_11
REMARK    5  A    between atoms: C_11  and  N_12
REMARK    6  A    between atoms: C_13  and  C_15
REMARK                            x       y       z     vdW  Elec       q    Type
REMARK                         _______ _______ _______ _____ _____    ______ ____
ROOT
ATOM      1  C   UNL     1      46.663   6.871  12.827  0.00  0.00    +0.000 A 
ATOM      2  C   UNL     1      46.927   8.212  12.540  0.00  0.00    +0.000 A 
ATOM      3  C   UNL     1      48.229   8.696  12.584  0.00  0.00    +0.000 A 
ATOM      4  C   UNL     1      49.251   7.832  12.958  0.00  0.00    +0.000 A 
ATOM      5  N   UNL     1      49.026   6.525  13.252  0.00  0.00    +0.000 NA
ATOM      6  C   UNL     1      47.750   6.078  13.176  0.00  0.00    +0.000 A 
ENDROOT
BRANCH   1   7
ATOM      7  C   UNL     1      45.260   6.328  12.769  0.00  0.00    +0.000 C 
BRANCH   7  11
ATOM      8  C   UNL     1      43.349   3.578  11.096  0.00  0.00    +0.000 C 
ATOM      9  C   UNL     1      42.685   4.711  11.884  0.00  0.00    +0.000 C 
ATOM     10  C   UNL     1      43.095   6.081  11.348  0.00  0.00    +0.000 C 
ATOM     11  C   UNL     1      44.621   6.283  11.358  0.00  0.00    +0.000 C 
ATOM     12  C   UNL     1      45.256   5.164  10.506  0.00  0.00    +0.000 C 
ATOM     13  C   UNL     1      44.869   3.759  10.981  0.00  0.00    +0.000 C 
BRANCH   8  14
ATOM     14  N   UNL     1      43.053   2.291  11.726  0.00  0.00    +0.000 NA
ATOM     15  H   UNL     1      42.809   1.606  11.009  0.00  0.00    +0.000 HD
ATOM     16  H   UNL     1      42.226   2.376  12.317  0.00  0.00    +0.000 HD
ENDBRANCH   8  14
ENDBRANCH   7  11
ENDBRANCH   1   7
BRANCH   4  17
ATOM     17  C   UNL     1      50.668   8.346  13.042  0.00  0.00    +0.000 C 
BRANCH  17  18
ATOM     18  N   UNL     1      51.451   7.655  14.043  0.00  0.00    +0.000 N 
ATOM     19  C   UNL     1      51.652   8.158  15.299  0.00  0.00    +0.000 C 
ATOM     20  O   UNL     1      51.194   9.244  15.649  0.00  0.00    +0.000 OA
ATOM     21  H   UNL     1      52.022   6.888  13.703  0.00  0.00    +0.000 HD
BRANCH  19  22
ATOM     22  C   UNL     1      52.380   7.298  16.243  0.00  0.00    +0.000 A 
ATOM     23  C   UNL     1      53.695   7.601  16.572  0.00  0.00    +0.000 A 
ATOM     24  S   UNL     1      54.384   6.531  17.706  0.00  0.00    +0.000 S 
ATOM     25  C   UNL     1      52.964   5.596  17.765  0.00  0.00    +0.000 A 
ATOM     26  N   UNL     1      52.895   4.482  18.543  0.00  0.00    +0.000 NA
ATOM     27  C   UNL     1      51.772   3.848  18.462  0.00  0.00    +0.000 A 
ATOM     28  N   UNL     1      50.709   4.235  17.690  0.00  0.00    +0.000 N 
ATOM     29  C   UNL     1      50.712   5.386  16.938  0.00  0.00    +0.000 A 
ATOM     30  O   UNL     1      49.710   5.757  16.340  0.00  0.00    +0.000 OA
ATOM     31  C   UNL     1      51.968   6.111  16.955  0.00  0.00    +0.000 A 
ATOM     32  H   UNL     1      49.849   3.710  17.694  0.00  0.00    +0.000 HD
ENDBRANCH  19  22
ENDBRANCH  17  18
ENDBRANCH   4  17
TORSDOF 6
ENDMDL
MODEL 9
REMARK VINA RESULT:    -6.079      5.917      7.503
REMARK INTER + INTRA:          -9.168
REMARK INTER:                  -8.288
REMARK INTRA:                  -0.880
REMARK UNBOUND:                -1.135
REMARK  Name = 
REMARK  6 active torsions:
REMARK  status: ('A' for Active; 'I' for Inactive)
REMARK    1  A    between atoms: N_1  and  C_2
REMARK    2  A    between atoms: C_5  and  C_6
REMARK    3  A    between atoms: C_6  and  C_7
REMARK    4  A    between atoms: C_10  and  C_11
REMARK    5  A    between atoms: C_11  and  N_12
REMARK    6  A    between atoms: C_13  and  C_15
REMARK                            x       y       z     vdW  Elec       q    Type
REMARK                         _______ _______ _______ _____ _____    ______ ____
ROOT
ATOM      1  C   UNL     1      46.671   6.788  12.700  0.00  0.00    +0.000 A 
ATOM      2  C   UNL     1      46.995   8.003  12.091  0.00  0.00    +0.000 A 
ATOM      3  C   UNL     1      48.313   8.442  12.063  0.00  0.00    +0.000 A 
ATOM      4  C   UNL     1      49.289   7.674  12.685  0.00  0.00    +0.000 A 
ATOM      5  N   UNL     1      49.004   6.493  13.294  0.00  0.00    +0.000 NA
ATOM      6  C   UNL     1      47.714   6.079  13.283  0.00  0.00    +0.000 A 
ENDROOT
BRANCH   1   7
ATOM      7  C   UNL     1      45.249   6.291  12.726  0.00  0.00    +0.000 C 
BRANCH   7  11
ATOM      8  C   UNL     1      43.342   3.478  11.157  0.00  0.00    +0.000 C 
ATOM      9  C   UNL     1      42.684   4.593  11.975  0.00  0.00    +0.000 C 
ATOM     10  C   UNL     1      43.025   5.973  11.416  0.00  0.00    +0.000 C 
ATOM     11  C   UNL     1      44.543   6.221  11.349  0.00  0.00    +0.000 C 
ATOM     12  C   UNL     1      45.168   5.119  10.469  0.00  0.00    +0.000 C 
ATOM     13  C   UNL     1      44.849   3.705  10.966  0.00  0.00    +0.000 C 
BRANCH   8  14
ATOM     14  N   UNL     1      43.118   2.185  11.804  0.00  0.00    +0.000 NA
ATOM     15  H   UNL     1      42.143   2.114  12.099  0.00  0.00    +0.000 HD
ATOM     16  H   UNL     1      43.668   2.126  12.661  0.00  0.00    +0.000 HD
ENDBRANCH   8  14
ENDBRANCH   7  11
ENDBRANCH   1   7
BRANCH   4  17
ATOM     17  C   UNL     1      50.721   8.150  12.692  0.00  0.00    +0.000 C 
BRANCH  17  18
ATOM     18  N   UNL     1      51.244   8.357  11.360  0.00  0.00    +0.000 N 
ATOM     19  C   UNL     1      52.582   8.295  11.075  0.00  0.00    +0.000 C 
ATOM     20  O   UNL     1      53.425   8.078  11.942  0.00  0.00    +0.000 OA
ATOM     21  H   UNL     1      50.599   8.765  10.690  0.00  0.00    +0.000 HD
BRANCH  19  22
ATOM     22  C   UNL     1      52.959   8.422   9.659  0.00  0.00    +0.000 A 
ATOM     23  C   UNL     1      52.924   9.671   9.051  0.00  0.00    +0.000 A 
ATOM     24  S   UNL     1      53.426   9.655   7.422  0.00  0.00    +0.000 S 
ATOM     25  C   UNL     1      53.664   7.971   7.457  0.00  0.00    +0.000 A 
ATOM     26  N   UNL     1      54.072   7.302   6.345  0.00  0.00    +0.000 NA
ATOM     27  C   UNL     1      54.176   6.024   6.503  0.00  0.00    +0.000 A 
ATOM     28  N   UNL     1      53.927   5.358   7.674  0.00  0.00    +0.000 N 
ATOM     29  C   UNL     1      53.573   5.999   8.838  0.00  0.00    +0.000 A 
ATOM     30  O   UNL     1      53.456   5.387   9.891  0.00  0.00    +0.000 OA
ATOM     31  C   UNL     1      53.395   7.433   8.702  0.00  0.00    +0.000 A 
ATOM     32  H   UNL     1      54.054   4.361   7.739  0.00  0.00    +0.000 HD
ENDBRANCH  19  22
ENDBRANCH  17  18
ENDBRANCH   4  17
TORSDOF 6
ENDMDL
