MODEL 1
REMARK VINA RESULT:    -7.747      0.000      0.000
REMARK INTER + INTRA:         -12.180
REMARK INTER:                 -10.917
REMARK INTRA:                  -1.263
REMARK UNBOUND:                -1.263
REMARK  Name = 
REMARK  7 active torsions:
REMARK  status: ('A' for Active; 'I' for Inactive)
REMARK    1  A    between atoms: C_2  and  C_19
REMARK    2  A    between atoms: N_3  and  C_4
REMARK    3  A    between atoms: C_4  and  C_5
REMARK    4  A    between atoms: C_8  and  C_9
REMARK    5  A    between atoms: C_9  and  N_10
REMARK    6  A    between atoms: N_10  and  C_11
REMARK    7  A    between atoms: C_11  and  C_12
REMARK                            x       y       z     vdW  Elec       q    Type
REMARK                         _______ _______ _______ _____ _____    ______ ____
ROOT
ATOM      1  C   UNL     1      46.639   7.798  13.184  0.00  0.00    +0.000 C 
ENDROOT
BRANCH   1   2
ATOM      2  C   UNL     1      45.948   6.781  12.318  0.00  0.00    +0.000 A 
ATOM      3  C   UNL     1      46.333   6.622  10.982  0.00  0.00    +0.000 A 
ATOM      4  C   UNL     1      45.718   5.663  10.174  0.00  0.00    +0.000 A 
ATOM      5  C   UNL     1      44.710   4.831  10.683  0.00  0.00    +0.000 A 
ATOM      6  C   UNL     1      44.292   5.027  12.008  0.00  0.00    +0.000 A 
ATOM      7  C   UNL     1      44.900   5.994  12.816  0.00  0.00    +0.000 A 
BRANCH   5   8
ATOM      8  C   UNL     1      44.030   3.791   9.818  0.00  0.00    +0.000 C 
BRANCH   8   9
ATOM      9  N   UNL     1      44.183   4.069   8.388  0.00  0.00    +0.000 NA
ATOM     10  H   UNL     1      44.791   4.878   8.273  0.00  0.00    +0.000 HD
BRANCH   9  11
ATOM     11  C   UNL     1      44.727   2.919   7.668  0.00  0.00    +0.000 C 
BRANCH  11  12
ATOM     12  C   UNL     1      46.210   2.691   8.024  0.00  0.00    +0.000 C 
ATOM     13  C   UNL     1      47.183   3.367   7.063  0.00  0.00    +0.000 C 
ATOM     14  C   UNL     1      47.294   2.363   5.936  0.00  0.00    +0.000 C 
ATOM     15  N   UNL     1      47.316   1.058   6.610  0.00  0.00    +0.000 NA
ATOM     16  C   UNL     1      46.578   1.212   7.877  0.00  0.00    +0.000 C 
ATOM     17  H   UNL     1      48.286   0.828   6.831  0.00  0.00    +0.000 HD
ENDBRANCH  11  12
ENDBRANCH   9  11
ENDBRANCH   8   9
ENDBRANCH   5   8
ENDBRANCH   1   2
BRANCH   1  20
ATOM     18  O   UNL     1      49.193   6.606  13.416  0.00  0.00    +0.000 OA
ATOM     19  C   UNL     1      48.473   6.678  14.408  0.00  0.00    +0.000 C 
ATOM     20  N   UNL     1      47.206   7.196  14.364  0.00  0.00    +0.000 N 
ATOM     21  H   UNL     1      46.713   7.380  15.231  0.00  0.00    +0.000 HD
BRANCH  19  22
ATOM     22  C   UNL     1      48.909   6.153  15.710  0.00  0.00    +0.000 A 
ATOM     23  C   UNL     1      49.915   6.801  16.415  0.00  0.00    +0.000 A 
ATOM     24  S   UNL     1      50.296   6.057  17.902  0.00  0.00    +0.000 S 
ATOM     25  C   UNL     1      49.101   4.868  17.677  0.00  0.00    +0.000 A 
ATOM     26  N   UNL     1      48.870   3.919  18.624  0.00  0.00    +0.000 NA
ATOM     27  C   UNL     1      47.907   3.107  18.344  0.00  0.00    +0.000 A 
ATOM     28  N   UNL     1      47.162   3.148  17.193  0.00  0.00    +0.000 N 
ATOM     29  C   UNL     1      47.419   4.030  16.170  0.00  0.00    +0.000 A 
ATOM     30  O   UNL     1      46.842   3.930  15.095  0.00  0.00    +0.000 OA
ATOM     31  C   UNL     1      48.447   5.011  16.466  0.00  0.00    +0.000 A 
ATOM     32  H   UNL     1      46.448   2.457  17.014  0.00  0.00    +0.000 HD
ENDBRANCH  19  22
ENDBRANCH   1  20
TORSDOF 7
ENDMDL
MODEL 2
REMARK VINA RESULT:    -6.900      4.151      9.097
REMARK INTER + INTRA:         -10.987
REMARK INTER:                  -9.827
REMARK INTRA:                  -1.160
REMARK UNBOUND:                -1.263
REMARK  Name = 
REMARK  7 active torsions:
REMARK  status: ('A' for Active; 'I' for Inactive)
REMARK    1  A    between atoms: C_2  and  C_19
REMARK    2  A    between atoms: N_3  and  C_4
REMARK    3  A    between atoms: C_4  and  C_5
REMARK    4  A    between atoms: C_8  and  C_9
REMARK    5  A    between atoms: C_9  and  N_10
REMARK    6  A    between atoms: N_10  and  C_11
REMARK    7  A    between atoms: C_11  and  C_12
REMARK                            x       y       z     vdW  Elec       q    Type
REMARK                         _______ _______ _______ _____ _____    ______ ____
ROOT
ATOM      1  C   UNL     1      47.268   3.352  16.847  0.00  0.00    +0.000 C 
ENDROOT
BRANCH   1   2
ATOM      2  C   UNL     1      48.739   3.334  17.159  0.00  0.00    +0.000 A 
ATOM      3  C   UNL     1      49.381   4.505  17.579  0.00  0.00    +0.000 A 
ATOM      4  C   UNL     1      50.740   4.495  17.898  0.00  0.00    +0.000 A 
ATOM      5  C   UNL     1      51.491   3.314  17.816  0.00  0.00    +0.000 A 
ATOM      6  C   UNL     1      50.857   2.154  17.346  0.00  0.00    +0.000 A 
ATOM      7  C   UNL     1      49.498   2.164  17.017  0.00  0.00    +0.000 A 
BRANCH   5   8
ATOM      8  C   UNL     1      52.967   3.289  18.153  0.00  0.00    +0.000 C 
BRANCH   8   9
ATOM      9  N   UNL     1      53.319   2.177  19.040  0.00  0.00    +0.000 NA
ATOM     10  H   UNL     1      52.828   1.340  18.727  0.00  0.00    +0.000 HD
BRANCH   9  11
ATOM     11  C   UNL     1      54.760   1.941  19.067  0.00  0.00    +0.000 C 
BRANCH  11  12
ATOM     12  C   UNL     1      55.097   0.504  18.620  0.00  0.00    +0.000 C 
ATOM     13  C   UNL     1      55.773   0.429  17.254  0.00  0.00    +0.000 C 
ATOM     14  C   UNL     1      54.600   0.457  16.298  0.00  0.00    +0.000 C 
ATOM     15  N   UNL     1      53.581  -0.380  16.944  0.00  0.00    +0.000 NA
ATOM     16  C   UNL     1      53.817  -0.305  18.398  0.00  0.00    +0.000 C 
ATOM     17  H   UNL     1      53.725  -1.346  16.646  0.00  0.00    +0.000 HD
ENDBRANCH  11  12
ENDBRANCH   9  11
ENDBRANCH   8   9
ENDBRANCH   5   8
ENDBRANCH   1   2
BRANCH   1  20
ATOM     18  O   UNL     1      47.249   3.065  14.034  0.00  0.00    +0.000 OA
ATOM     19  C   UNL     1      46.911   4.137  14.529  0.00  0.00    +0.000 C 
ATOM     20  N   UNL     1      46.941   4.368  15.879  0.00  0.00    +0.000 N 
ATOM     21  H   UNL     1      46.505   5.205  16.250  0.00  0.00    +0.000 HD
BRANCH  19  22
ATOM     22  C   UNL     1      46.502   5.272  13.689  0.00  0.00    +0.000 A 
ATOM     23  C   UNL     1      47.374   6.334  13.489  0.00  0.00    +0.000 A 
ATOM     24  S   UNL     1      46.737   7.563  12.492  0.00  0.00    +0.000 S 
ATOM     25  C   UNL     1      45.291   6.700  12.258  0.00  0.00    +0.000 A 
ATOM     26  N   UNL     1      44.306   7.187  11.454  0.00  0.00    +0.000 NA
ATOM     27  C   UNL     1      43.282   6.411  11.331  0.00  0.00    +0.000 A 
ATOM     28  N   UNL     1      43.146   5.196  11.953  0.00  0.00    +0.000 N 
ATOM     29  C   UNL     1      44.071   4.707  12.844  0.00  0.00    +0.000 A 
ATOM     30  O   UNL     1      43.839   3.700  13.502  0.00  0.00    +0.000 OA
ATOM     31  C   UNL     1      45.274   5.509  12.963  0.00  0.00    +0.000 A 
ATOM     32  H   UNL     1      42.300   4.654  11.849  0.00  0.00    +0.000 HD
ENDBRANCH  19  22
ENDBRANCH   1  20
TORSDOF 7
ENDMDL
MODEL 3
REMARK VINA RESULT:    -6.798      3.193      8.084
REMARK INTER + INTRA:         -10.842
REMARK INTER:                  -9.595
REMARK INTRA:                  -1.247
REMARK UNBOUND:                -1.263
REMARK  Name = 
REMARK  7 active torsions:
REMARK  status: ('A' for Active; 'I' for Inactive)
REMARK    1  A    between atoms: C_2  and  C_19
REMARK    2  A    between atoms: N_3  and  C_4
REMARK    3  A    between atoms: C_4  and  C_5
REMARK    4  A    between atoms: C_8  and  C_9
REMARK    5  A    between atoms: C_9  and  N_10
REMARK    6  A    between atoms: N_10  and  C_11
REMARK    7  A    between atoms: C_11  and  C_12
REMARK                            x       y       z     vdW  Elec       q    Type
REMARK                         _______ _______ _______ _____ _____    ______ ____
ROOT
ATOM      1  C   UNL     1      48.290   8.040  12.030  0.00  0.00    +0.000 C 
ENDROOT
BRANCH   1   2
ATOM      2  C   UNL     1      48.966   7.685  13.326  0.00  0.00    +0.000 A 
ATOM      3  C   UNL     1      48.255   7.012  14.326  0.00  0.00    +0.000 A 
ATOM      4  C   UNL     1      48.879   6.652  15.522  0.00  0.00    +0.000 A 
ATOM      5  C   UNL     1      50.232   6.946  15.747  0.00  0.00    +0.000 A 
ATOM      6  C   UNL     1      50.928   7.665  14.764  0.00  0.00    +0.000 A 
ATOM      7  C   UNL     1      50.302   8.035  13.569  0.00  0.00    +0.000 A 
BRANCH   5   8
ATOM      8  C   UNL     1      50.920   6.568  17.041  0.00  0.00    +0.000 C 
BRANCH   8   9
ATOM      9  N   UNL     1      50.018   5.887  17.974  0.00  0.00    +0.000 NA
ATOM     10  H   UNL     1      49.063   6.189  17.788  0.00  0.00    +0.000 HD
BRANCH   9  11
ATOM     11  C   UNL     1      50.123   4.433  17.864  0.00  0.00    +0.000 C 
BRANCH  11  12
ATOM     12  C   UNL     1      48.928   3.737  18.547  0.00  0.00    +0.000 C 
ATOM     13  C   UNL     1      48.096   2.877  17.601  0.00  0.00    +0.000 C 
ATOM     14  C   UNL     1      47.156   3.883  16.972  0.00  0.00    +0.000 C 
ATOM     15  N   UNL     1      46.788   4.779  18.075  0.00  0.00    +0.000 NA
ATOM     16  C   UNL     1      47.909   4.770  19.034  0.00  0.00    +0.000 C 
ATOM     17  H   UNL     1      45.966   4.391  18.542  0.00  0.00    +0.000 HD
ENDBRANCH  11  12
ENDBRANCH   9  11
ENDBRANCH   8   9
ENDBRANCH   5   8
ENDBRANCH   1   2
BRANCH   1  20
ATOM     18  O   UNL     1      45.480   7.841  11.781  0.00  0.00    +0.000 OA
ATOM     19  C   UNL     1      46.185   6.926  11.364  0.00  0.00    +0.000 C 
ATOM     20  N   UNL     1      47.549   6.927  11.493  0.00  0.00    +0.000 N 
ATOM     21  H   UNL     1      48.096   6.233  10.997  0.00  0.00    +0.000 HD
BRANCH  19  22
ATOM     22  C   UNL     1      45.598   5.729  10.744  0.00  0.00    +0.000 A 
ATOM     23  C   UNL     1      45.835   5.458   9.403  0.00  0.00    +0.000 A 
ATOM     24  S   UNL     1      45.077   4.034   8.848  0.00  0.00    +0.000 S 
ATOM     25  C   UNL     1      44.442   3.706  10.392  0.00  0.00    +0.000 A 
ATOM     26  N   UNL     1      43.708   2.584  10.623  0.00  0.00    +0.000 NA
ATOM     27  C   UNL     1      43.324   2.437  11.846  0.00  0.00    +0.000 A 
ATOM     28  N   UNL     1      43.596   3.322  12.859  0.00  0.00    +0.000 N 
ATOM     29  C   UNL     1      44.254   4.511  12.654  0.00  0.00    +0.000 A 
ATOM     30  O   UNL     1      44.333   5.347  13.546  0.00  0.00    +0.000 OA
ATOM     31  C   UNL     1      44.767   4.690  11.309  0.00  0.00    +0.000 A 
ATOM     32  H   UNL     1      43.231   3.171  13.789  0.00  0.00    +0.000 HD
ENDBRANCH  19  22
ENDBRANCH   1  20
TORSDOF 7
ENDMDL
MODEL 4
REMARK VINA RESULT:    -6.789      2.394      3.193
REMARK INTER + INTRA:         -10.829
REMARK INTER:                  -9.122
REMARK INTRA:                  -1.708
REMARK UNBOUND:                -1.263
REMARK  Name = 
REMARK  7 active torsions:
REMARK  status: ('A' for Active; 'I' for Inactive)
REMARK    1  A    between atoms: C_2  and  C_19
REMARK    2  A    between atoms: N_3  and  C_4
REMARK    3  A    between atoms: C_4  and  C_5
REMARK    4  A    between atoms: C_8  and  C_9
REMARK    5  A    between atoms: C_9  and  N_10
REMARK    6  A    between atoms: N_10  and  C_11
REMARK    7  A    between atoms: C_11  and  C_12
REMARK                            x       y       z     vdW  Elec       q    Type
REMARK                         _______ _______ _______ _____ _____    ______ ____
ROOT
ATOM      1  C   UNL     1      49.031   7.876  13.385  0.00  0.00    +0.000 C 
ENDROOT
BRANCH   1   2
ATOM      2  C   UNL     1      47.658   7.725  12.790  0.00  0.00    +0.000 A 
ATOM      3  C   UNL     1      46.635   8.607  13.155  0.00  0.00    +0.000 A 
ATOM      4  C   UNL     1      45.363   8.493  12.590  0.00  0.00    +0.000 A 
ATOM      5  C   UNL     1      45.083   7.503  11.637  0.00  0.00    +0.000 A 
ATOM      6  C   UNL     1      46.096   6.589  11.311  0.00  0.00    +0.000 A 
ATOM      7  C   UNL     1      47.368   6.695  11.883  0.00  0.00    +0.000 A 
BRANCH   5   8
ATOM      8  C   UNL     1      43.707   7.364  11.020  0.00  0.00    +0.000 C 
BRANCH   8   9
ATOM      9  N   UNL     1      43.417   5.988  10.610  0.00  0.00    +0.000 NA
ATOM     10  H   UNL     1      44.283   5.545  10.308  0.00  0.00    +0.000 HD
BRANCH   9  11
ATOM     11  C   UNL     1      42.802   5.219  11.690  0.00  0.00    +0.000 C 
BRANCH  11  12
ATOM     12  C   UNL     1      43.014   3.706  11.485  0.00  0.00    +0.000 C 
ATOM     13  C   UNL     1      43.758   3.029  12.632  0.00  0.00    +0.000 C 
ATOM     14  C   UNL     1      45.210   3.283  12.285  0.00  0.00    +0.000 C 
ATOM     15  N   UNL     1      45.273   3.113  10.828  0.00  0.00    +0.000 NA
ATOM     16  C   UNL     1      43.940   3.447  10.294  0.00  0.00    +0.000 C 
ATOM     17  H   UNL     1      45.460   2.129  10.629  0.00  0.00    +0.000 HD
ENDBRANCH  11  12
ENDBRANCH   9  11
ENDBRANCH   8   9
ENDBRANCH   5   8
ENDBRANCH   1   2
BRANCH   1  20
ATOM     18  O   UNL     1      48.749   8.595  16.105  0.00  0.00    +0.000 OA
ATOM     19  C   UNL     1      49.015   7.432  15.817  0.00  0.00    +0.000 C 
ATOM     20  N   UNL     1      49.215   7.018  14.527  0.00  0.00    +0.000 N 
ATOM     21  H   UNL     1      49.274   6.026  14.326  0.00  0.00    +0.000 HD
BRANCH  19  22
ATOM     22  C   UNL     1      49.194   6.408  16.857  0.00  0.00    +0.000 A 
ATOM     23  C   UNL     1      50.086   6.628  17.898  0.00  0.00    +0.000 A 
ATOM     24  S   UNL     1      50.169   5.338  19.012  0.00  0.00    +0.000 S 
ATOM     25  C   UNL     1      48.984   4.459  18.166  0.00  0.00    +0.000 A 
ATOM     26  N   UNL     1      48.552   3.251  18.619  0.00  0.00    +0.000 NA
ATOM     27  C   UNL     1      47.620   2.714  17.905  0.00  0.00    +0.000 A 
ATOM     28  N   UNL     1      47.092   3.269  16.768  0.00  0.00    +0.000 N 
ATOM     29  C   UNL     1      47.560   4.441  16.223  0.00  0.00    +0.000 A 
ATOM     30  O   UNL     1      47.177   4.819  15.123  0.00  0.00    +0.000 OA
ATOM     31  C   UNL     1      48.559   5.120  17.027  0.00  0.00    +0.000 A 
ATOM     32  H   UNL     1      46.392   2.778  16.230  0.00  0.00    +0.000 HD
ENDBRANCH  19  22
ENDBRANCH   1  20
TORSDOF 7
ENDMDL
MODEL 5
REMARK VINA RESULT:    -6.766      1.907      2.650
REMARK INTER + INTRA:         -10.797
REMARK INTER:                  -9.955
REMARK INTRA:                  -0.842
REMARK UNBOUND:                -1.263
REMARK  Name = 
REMARK  7 active torsions:
REMARK  status: ('A' for Active; 'I' for Inactive)
REMARK    1  A    between atoms: C_2  and  C_19
REMARK    2  A    between atoms: N_3  and  C_4
REMARK    3  A    between atoms: C_4  and  C_5
REMARK    4  A    between atoms: C_8  and  C_9
REMARK    5  A    between atoms: C_9  and  N_10
REMARK    6  A    between atoms: N_10  and  C_11
REMARK    7  A    between atoms: C_11  and  C_12
REMARK                            x       y       z     vdW  Elec       q    Type
REMARK                         _______ _______ _______ _____ _____    ______ ____
ROOT
ATOM      1  C   UNL     1      47.429   6.701  13.491  0.00  0.00    +0.000 C 
ENDROOT
BRANCH   1   2
ATOM      2  C   UNL     1      46.552   5.775  12.693  0.00  0.00    +0.000 A 
ATOM      3  C   UNL     1      46.222   4.513  13.200  0.00  0.00    +0.000 A 
ATOM      4  C   UNL     1      45.388   3.654  12.481  0.00  0.00    +0.000 A 
ATOM      5  C   UNL     1      44.852   4.038  11.243  0.00  0.00    +0.000 A 
ATOM      6  C   UNL     1      45.226   5.283  10.714  0.00  0.00    +0.000 A 
ATOM      7  C   UNL     1      46.069   6.140  11.428  0.00  0.00    +0.000 A 
BRANCH   5   8
ATOM      8  C   UNL     1      43.951   3.116  10.450  0.00  0.00    +0.000 C 
BRANCH   8   9
ATOM      9  N   UNL     1      44.688   2.013   9.830  0.00  0.00    +0.000 NA
ATOM     10  H   UNL     1      44.145   1.156   9.930  0.00  0.00    +0.000 HD
BRANCH   9  11
ATOM     11  C   UNL     1      44.969   2.274   8.420  0.00  0.00    +0.000 C 
BRANCH  11  12
ATOM     12  C   UNL     1      46.486   2.355   8.160  0.00  0.00    +0.000 C 
ATOM     13  C   UNL     1      46.876   3.393   7.113  0.00  0.00    +0.000 C 
ATOM     14  C   UNL     1      46.689   2.643   5.811  0.00  0.00    +0.000 C 
ATOM     15  N   UNL     1      47.184   1.290   6.094  0.00  0.00    +0.000 NA
ATOM     16  C   UNL     1      46.997   1.052   7.537  0.00  0.00    +0.000 C 
ATOM     17  H   UNL     1      48.185   1.268   5.894  0.00  0.00    +0.000 HD
ENDBRANCH  11  12
ENDBRANCH   9  11
ENDBRANCH   8   9
ENDBRANCH   5   8
ENDBRANCH   1   2
BRANCH   1  20
ATOM     18  O   UNL     1      49.047   7.879  15.489  0.00  0.00    +0.000 OA
ATOM     19  C   UNL     1      48.716   6.701  15.602  0.00  0.00    +0.000 C 
ATOM     20  N   UNL     1      47.976   6.048  14.653  0.00  0.00    +0.000 N 
ATOM     21  H   UNL     1      47.596   5.132  14.862  0.00  0.00    +0.000 HD
BRANCH  19  22
ATOM     22  C   UNL     1      49.148   5.893  16.751  0.00  0.00    +0.000 A 
ATOM     23  C   UNL     1      48.201   5.282  17.562  0.00  0.00    +0.000 A 
ATOM     24  S   UNL     1      48.877   4.385  18.847  0.00  0.00    +0.000 S 
ATOM     25  C   UNL     1      50.460   4.747  18.339  0.00  0.00    +0.000 A 
ATOM     26  N   UNL     1      51.538   4.243  18.998  0.00  0.00    +0.000 NA
ATOM     27  C   UNL     1      52.677   4.561  18.481  0.00  0.00    +0.000 A 
ATOM     28  N   UNL     1      52.836   5.352  17.372  0.00  0.00    +0.000 N 
ATOM     29  C   UNL     1      51.782   5.956  16.730  0.00  0.00    +0.000 A 
ATOM     30  O   UNL     1      51.974   6.783  15.847  0.00  0.00    +0.000 OA
ATOM     31  C   UNL     1      50.475   5.573  17.230  0.00  0.00    +0.000 A 
ATOM     32  H   UNL     1      53.758   5.599  17.041  0.00  0.00    +0.000 HD
ENDBRANCH  19  22
ENDBRANCH   1  20
TORSDOF 7
ENDMDL
MODEL 6
REMARK VINA RESULT:    -6.533      2.896      8.722
REMARK INTER + INTRA:         -10.469
REMARK INTER:                  -9.236
REMARK INTRA:                  -1.233
REMARK UNBOUND:                -1.263
REMARK  Name = 
REMARK  7 active torsions:
REMARK  status: ('A' for Active; 'I' for Inactive)
REMARK    1  A    between atoms: C_2  and  C_19
REMARK    2  A    between atoms: N_3  and  C_4
REMARK    3  A    between atoms: C_4  and  C_5
REMARK    4  A    between atoms: C_8  and  C_9
REMARK    5  A    between atoms: C_9  and  N_10
REMARK    6  A    between atoms: N_10  and  C_11
REMARK    7  A    between atoms: C_11  and  C_12
REMARK                            x       y       z     vdW  Elec       q    Type
REMARK                         _______ _______ _______ _____ _____    ______ ____
ROOT
ATOM      1  C   UNL     1      47.060   7.945  12.187  0.00  0.00    +0.000 C 
ENDROOT
BRANCH   1   2
ATOM      2  C   UNL     1      47.786   7.964  13.505  0.00  0.00    +0.000 A 
ATOM      3  C   UNL     1      47.952   9.169  14.196  0.00  0.00    +0.000 A 
ATOM      4  C   UNL     1      48.600   9.197  15.432  0.00  0.00    +0.000 A 
ATOM      5  C   UNL     1      49.088   8.019  16.016  0.00  0.00    +0.000 A 
ATOM      6  C   UNL     1      48.965   6.820  15.298  0.00  0.00    +0.000 A 
ATOM      7  C   UNL     1      48.325   6.792  14.055  0.00  0.00    +0.000 A 
BRANCH   5   8
ATOM      8  C   UNL     1      49.798   8.034  17.354  0.00  0.00    +0.000 C 
BRANCH   8   9
ATOM      9  N   UNL     1      48.940   7.567  18.446  0.00  0.00    +0.000 NA
ATOM     10  H   UNL     1      48.053   7.253  18.055  0.00  0.00    +0.000 HD
BRANCH   9  11
ATOM     11  C   UNL     1      49.570   6.489  19.206  0.00  0.00    +0.000 C 
BRANCH  11  12
ATOM     12  C   UNL     1      48.520   5.485  19.722  0.00  0.00    +0.000 C 
ATOM     13  C   UNL     1      48.634   4.100  19.094  0.00  0.00    +0.000 C 
ATOM     14  C   UNL     1      47.860   4.253  17.802  0.00  0.00    +0.000 C 
ATOM     15  N   UNL     1      46.704   5.081  18.163  0.00  0.00    +0.000 NA
ATOM     16  C   UNL     1      47.111   5.919  19.307  0.00  0.00    +0.000 C 
ATOM     17  H   UNL     1      45.951   4.463  18.472  0.00  0.00    +0.000 HD
ENDBRANCH  11  12
ENDBRANCH   9  11
ENDBRANCH   8   9
ENDBRANCH   5   8
ENDBRANCH   1   2
BRANCH   1  20
ATOM     18  O   UNL     1      44.336   7.498  11.576  0.00  0.00    +0.000 OA
ATOM     19  C   UNL     1      45.107   6.543  11.608  0.00  0.00    +0.000 C 
ATOM     20  N   UNL     1      46.428   6.673  11.945  0.00  0.00    +0.000 N 
ATOM     21  H   UNL     1      47.057   5.890  11.805  0.00  0.00    +0.000 HD
BRANCH  19  22
ATOM     22  C   UNL     1      44.642   5.175  11.341  0.00  0.00    +0.000 A 
ATOM     23  C   UNL     1      43.872   4.509  12.286  0.00  0.00    +0.000 A 
ATOM     24  S   UNL     1      43.422   2.932  11.813  0.00  0.00    +0.000 S 
ATOM     25  C   UNL     1      44.202   3.101  10.311  0.00  0.00    +0.000 A 
ATOM     26  N   UNL     1      44.165   2.102   9.388  0.00  0.00    +0.000 NA
ATOM     27  C   UNL     1      44.761   2.379   8.277  0.00  0.00    +0.000 A 
ATOM     28  N   UNL     1      45.405   3.560   8.011  0.00  0.00    +0.000 N 
ATOM     29  C   UNL     1      45.546   4.559   8.944  0.00  0.00    +0.000 A 
ATOM     30  O   UNL     1      46.265   5.526   8.726  0.00  0.00    +0.000 OA
ATOM     31  C   UNL     1      44.833   4.326  10.187  0.00  0.00    +0.000 A 
ATOM     32  H   UNL     1      45.889   3.700   7.135  0.00  0.00    +0.000 HD
ENDBRANCH  19  22
ENDBRANCH   1  20
TORSDOF 7
ENDMDL
MODEL 7
REMARK VINA RESULT:    -6.343      3.875      9.453
REMARK INTER + INTRA:         -10.201
REMARK INTER:                  -9.019
REMARK INTRA:                  -1.182
REMARK UNBOUND:                -1.263
REMARK  Name = 
REMARK  7 active torsions:
REMARK  status: ('A' for Active; 'I' for Inactive)
REMARK    1  A    between atoms: C_2  and  C_19
REMARK    2  A    between atoms: N_3  and  C_4
REMARK    3  A    between atoms: C_4  and  C_5
REMARK    4  A    between atoms: C_8  and  C_9
REMARK    5  A    between atoms: C_9  and  N_10
REMARK    6  A    between atoms: N_10  and  C_11
REMARK    7  A    between atoms: C_11  and  C_12
REMARK                            x       y       z     vdW  Elec       q    Type
REMARK                         _______ _______ _______ _____ _____    ______ ____
ROOT
ATOM      1  C   UNL     1      47.176   3.350  16.849  0.00  0.00    +0.000 C 
ENDROOT
BRANCH   1   2
ATOM      2  C   UNL     1      48.657   3.359  17.112  0.00  0.00    +0.000 A 
ATOM      3  C   UNL     1      49.297   4.549  17.474  0.00  0.00    +0.000 A 
ATOM      4  C   UNL     1      50.666   4.565  17.747  0.00  0.00    +0.000 A 
ATOM      5  C   UNL     1      51.429   3.391  17.677  0.00  0.00    +0.000 A 
ATOM      6  C   UNL     1      50.795   2.209  17.264  0.00  0.00    +0.000 A 
ATOM      7  C   UNL     1      49.425   2.193  16.981  0.00  0.00    +0.000 A 
BRANCH   5   8
ATOM      8  C   UNL     1      52.916   3.393  17.965  0.00  0.00    +0.000 C 
BRANCH   8   9
ATOM      9  N   UNL     1      53.554   4.658  17.589  0.00  0.00    +0.000 NA
ATOM     10  H   UNL     1      52.850   5.394  17.591  0.00  0.00    +0.000 HD
BRANCH   9  11
ATOM     11  C   UNL     1      54.651   5.000  18.492  0.00  0.00    +0.000 C 
BRANCH  11  12
ATOM     12  C   UNL     1      54.633   6.501  18.845  0.00  0.00    +0.000 C 
ATOM     13  C   UNL     1      54.153   6.792  20.263  0.00  0.00    +0.000 C 
ATOM     14  C   UNL     1      52.647   6.805  20.112  0.00  0.00    +0.000 C 
ATOM     15  N   UNL     1      52.413   7.483  18.831  0.00  0.00    +0.000 NA
ATOM     16  C   UNL     1      53.601   7.243  17.990  0.00  0.00    +0.000 C 
ATOM     17  H   UNL     1      52.345   8.487  19.007  0.00  0.00    +0.000 HD
ENDBRANCH  11  12
ENDBRANCH   9  11
ENDBRANCH   8   9
ENDBRANCH   5   8
ENDBRANCH   1   2
BRANCH   1  20
ATOM     18  O   UNL     1      47.268   3.072  14.036  0.00  0.00    +0.000 OA
ATOM     19  C   UNL     1      46.833   4.112  14.521  0.00  0.00    +0.000 C 
ATOM     20  N   UNL     1      46.802   4.341  15.872  0.00  0.00    +0.000 N 
ATOM     21  H   UNL     1      46.292   5.141  16.230  0.00  0.00    +0.000 HD
BRANCH  19  22
ATOM     22  C   UNL     1      46.364   5.216  13.671  0.00  0.00    +0.000 A 
ATOM     23  C   UNL     1      47.185   6.313  13.446  0.00  0.00    +0.000 A 
ATOM     24  S   UNL     1      46.483   7.497  12.438  0.00  0.00    +0.000 S 
ATOM     25  C   UNL     1      45.075   6.566  12.232  0.00  0.00    +0.000 A 
ATOM     26  N   UNL     1      44.062   6.997  11.432  0.00  0.00    +0.000 NA
ATOM     27  C   UNL     1      43.073   6.174  11.331  0.00  0.00    +0.000 A 
ATOM     28  N   UNL     1      42.998   4.963  11.971  0.00  0.00    +0.000 N 
ATOM     29  C   UNL     1      43.954   4.529  12.859  0.00  0.00    +0.000 A 
ATOM     30  O   UNL     1      43.774   3.522  13.533  0.00  0.00    +0.000 OA
ATOM     31  C   UNL     1      45.120   5.386  12.954  0.00  0.00    +0.000 A 
ATOM     32  H   UNL     1      42.177   4.382  11.884  0.00  0.00    +0.000 HD
ENDBRANCH  19  22
ENDBRANCH   1  20
TORSDOF 7
ENDMDL
MODEL 8
REMARK VINA RESULT:    -6.319      3.904      8.735
REMARK INTER + INTRA:         -10.168
REMARK INTER:                  -8.622
REMARK INTRA:                  -1.545
REMARK UNBOUND:                -1.263
REMARK  Name = 
REMARK  7 active torsions:
REMARK  status: ('A' for Active; 'I' for Inactive)
REMARK    1  A    between atoms: C_2  and  C_19
REMARK    2  A    between atoms: N_3  and  C_4
REMARK    3  A    between atoms: C_4  and  C_5
REMARK    4  A    between atoms: C_8  and  C_9
REMARK    5  A    between atoms: C_9  and  N_10
REMARK    6  A    between atoms: N_10  and  C_11
REMARK    7  A    between atoms: C_11  and  C_12
REMARK                            x       y       z     vdW  Elec       q    Type
REMARK                         _______ _______ _______ _____ _____    ______ ____
ROOT
ATOM      1  C   UNL     1      47.114   3.494  16.707  0.00  0.00    +0.000 C 
ENDROOT
BRANCH   1   2
ATOM      2  C   UNL     1      48.278   4.039  17.489  0.00  0.00    +0.000 A 
ATOM      3  C   UNL     1      49.544   3.460  17.354  0.00  0.00    +0.000 A 
ATOM      4  C   UNL     1      50.639   3.973  18.053  0.00  0.00    +0.000 A 
ATOM      5  C   UNL     1      50.499   5.085  18.895  0.00  0.00    +0.000 A 
ATOM      6  C   UNL     1      49.218   5.632  19.068  0.00  0.00    +0.000 A 
ATOM      7  C   UNL     1      48.119   5.113  18.376  0.00  0.00    +0.000 A 
BRANCH   5   8
ATOM      8  C   UNL     1      51.675   5.649  19.664  0.00  0.00    +0.000 C 
BRANCH   8   9
ATOM      9  N   UNL     1      52.657   6.294  18.788  0.00  0.00    +0.000 NA
ATOM     10  H   UNL     1      52.662   5.812  17.890  0.00  0.00    +0.000 HD
BRANCH   9  11
ATOM     11  C   UNL     1      52.366   7.714  18.602  0.00  0.00    +0.000 C 
BRANCH  11  12
ATOM     12  C   UNL     1      52.436   8.104  17.112  0.00  0.00    +0.000 C 
ATOM     13  C   UNL     1      51.168   8.775  16.593  0.00  0.00    +0.000 C 
ATOM     14  C   UNL     1      50.283   7.597  16.247  0.00  0.00    +0.000 C 
ATOM     15  N   UNL     1      51.196   6.615  15.651  0.00  0.00    +0.000 NA
ATOM     16  C   UNL     1      52.531   6.855  16.231  0.00  0.00    +0.000 C 
ATOM     17  H   UNL     1      51.248   6.795  14.646  0.00  0.00    +0.000 HD
ENDBRANCH  11  12
ENDBRANCH   9  11
ENDBRANCH   8   9
ENDBRANCH   5   8
ENDBRANCH   1   2
BRANCH   1  20
ATOM     18  O   UNL     1      47.259   3.229  13.896  0.00  0.00    +0.000 OA
ATOM     19  C   UNL     1      46.708   4.215  14.377  0.00  0.00    +0.000 C 
ATOM     20  N   UNL     1      46.641   4.438  15.726  0.00  0.00    +0.000 N 
ATOM     21  H   UNL     1      46.043   5.177  16.080  0.00  0.00    +0.000 HD
BRANCH  19  22
ATOM     22  C   UNL     1      46.128   5.260  13.521  0.00  0.00    +0.000 A 
ATOM     23  C   UNL     1      46.866   6.397  13.221  0.00  0.00    +0.000 A 
ATOM     24  S   UNL     1      46.040   7.504  12.219  0.00  0.00    +0.000 S 
ATOM     25  C   UNL     1      44.683   6.483  12.117  0.00  0.00    +0.000 A 
ATOM     26  N   UNL     1      43.605   6.826  11.361  0.00  0.00    +0.000 NA
ATOM     27  C   UNL     1      42.665   5.942  11.338  0.00  0.00    +0.000 A 
ATOM     28  N   UNL     1      42.699   4.750  12.016  0.00  0.00    +0.000 N 
ATOM     29  C   UNL     1      43.725   4.403  12.862  0.00  0.00    +0.000 A 
ATOM     30  O   UNL     1      43.644   3.409  13.574  0.00  0.00    +0.000 OA
ATOM     31  C   UNL     1      44.839   5.332  12.869  0.00  0.00    +0.000 A 
ATOM     32  H   UNL     1      41.912   4.117  11.990  0.00  0.00    +0.000 HD
ENDBRANCH  19  22
ENDBRANCH   1  20
TORSDOF 7
ENDMDL
MODEL 9
REMARK VINA RESULT:    -6.287      4.743      7.444
REMARK INTER + INTRA:         -10.122
REMARK INTER:                  -9.105
REMARK INTRA:                  -1.018
REMARK UNBOUND:                -1.263
REMARK  Name = 
REMARK  7 active torsions:
REMARK  status: ('A' for Active; 'I' for Inactive)
REMARK    1  A    between atoms: C_2  and  C_19
REMARK    2  A    between atoms: N_3  and  C_4
REMARK    3  A    between atoms: C_4  and  C_5
REMARK    4  A    between atoms: C_8  and  C_9
REMARK    5  A    between atoms: C_9  and  N_10
REMARK    6  A    between atoms: N_10  and  C_11
REMARK    7  A    between atoms: C_11  and  C_12
REMARK                            x       y       z     vdW  Elec       q    Type
REMARK                         _______ _______ _______ _____ _____    ______ ____
ROOT
ATOM      1  C   UNL     1      46.379   8.306  12.251  0.00  0.00    +0.000 C 
ENDROOT
BRANCH   1   2
ATOM      2  C   UNL     1      47.853   8.450  11.986  0.00  0.00    +0.000 A 
ATOM      3  C   UNL     1      48.684   7.325  12.019  0.00  0.00    +0.000 A 
ATOM      4  C   UNL     1      50.049   7.442  11.748  0.00  0.00    +0.000 A 
ATOM      5  C   UNL     1      50.617   8.683  11.427  0.00  0.00    +0.000 A 
ATOM      6  C   UNL     1      49.791   9.817  11.445  0.00  0.00    +0.000 A 
ATOM      7  C   UNL     1      48.425   9.703  11.725  0.00  0.00    +0.000 A 
BRANCH   5   8
ATOM      8  C   UNL     1      52.096   8.826  11.137  0.00  0.00    +0.000 C 
BRANCH   8   9
ATOM      9  N   UNL     1      52.353   9.336   9.787  0.00  0.00    +0.000 NA
ATOM     10  H   UNL     1      52.791  10.253   9.861  0.00  0.00    +0.000 HD
BRANCH   9  11
ATOM     11  C   UNL     1      53.201   8.428   9.018  0.00  0.00    +0.000 C 
BRANCH  11  12
ATOM     12  C   UNL     1      52.567   7.025   8.918  0.00  0.00    +0.000 C 
ATOM     13  C   UNL     1      53.462   5.909   9.446  0.00  0.00    +0.000 C 
ATOM     14  C   UNL     1      54.347   5.598   8.258  0.00  0.00    +0.000 C 
ATOM     15  N   UNL     1      53.447   5.680   7.100  0.00  0.00    +0.000 NA
ATOM     16  C   UNL     1      52.371   6.625   7.453  0.00  0.00    +0.000 C 
ATOM     17  H   UNL     1      53.029   4.760   6.954  0.00  0.00    +0.000 HD
ENDBRANCH  11  12
ENDBRANCH   9  11
ENDBRANCH   8   9
ENDBRANCH   5   8
ENDBRANCH   1   2
BRANCH   1  20
ATOM     18  O   UNL     1      43.830   7.517  11.315  0.00  0.00    +0.000 OA
ATOM     19  C   UNL     1      44.685   6.660  11.519  0.00  0.00    +0.000 C 
ATOM     20  N   UNL     1      45.925   6.958  12.018  0.00  0.00    +0.000 N 
ATOM     21  H   UNL     1      46.646   6.245  12.020  0.00  0.00    +0.000 HD
BRANCH  19  22
ATOM     22  C   UNL     1      44.409   5.234  11.291  0.00  0.00    +0.000 A 
ATOM     23  C   UNL     1      43.632   4.526  12.197  0.00  0.00    +0.000 A 
ATOM     24  S   UNL     1      43.414   2.887  11.779  0.00  0.00    +0.000 S 
ATOM     25  C   UNL     1      44.314   3.076  10.348  0.00  0.00    +0.000 A 
ATOM     26  N   UNL     1      44.484   2.037   9.485  0.00  0.00    +0.000 NA
ATOM     27  C   UNL     1      45.151   2.330   8.420  0.00  0.00    +0.000 A 
ATOM     28  N   UNL     1      45.678   3.566   8.146  0.00  0.00    +0.000 N 
ATOM     29  C   UNL     1      45.611   4.618   9.028  0.00  0.00    +0.000 A 
ATOM     30  O   UNL     1      46.232   5.653   8.821  0.00  0.00    +0.000 OA
ATOM     31  C   UNL     1      44.810   4.360  10.211  0.00  0.00    +0.000 A 
ATOM     32  H   UNL     1      46.227   3.721   7.313  0.00  0.00    +0.000 HD
ENDBRANCH  19  22
ENDBRANCH   1  20
TORSDOF 7
ENDMDL
