MODEL 1
REMARK VINA RESULT:    -9.260      0.000      0.000
REMARK INTER + INTRA:         -12.242
REMARK INTER:                 -11.426
REMARK INTRA:                  -0.816
REMARK UNBOUND:                -0.816
REMARK  Name = 
REMARK  4 active torsions:
REMARK  status: ('A' for Active; 'I' for Inactive)
REMARK    1  A    between atoms: C_2  and  C_4
REMARK    2  A    between atoms: N_8  and  C_9
REMARK    3  A    between atoms: C_9  and  C_10
REMARK    4  A    between atoms: C_15  and  C_16
REMARK                            x       y       z     vdW  Elec       q    Type
REMARK                         _______ _______ _______ _____ _____    ______ ____
ROOT
ATOM      1  C   UNL     1      44.836   5.201  11.918  0.00  0.00    +0.000 A 
ATOM      2  C   UNL     1      45.307   4.330  12.902  0.00  0.00    +0.000 A 
ATOM      3  C   UNL     1      46.416   4.685  13.659  0.00  0.00    +0.000 A 
ATOM      4  F   UNL     1      46.857   3.848  14.608  0.00  0.00    +0.000 F 
ATOM      5  C   UNL     1      47.072   5.898  13.462  0.00  0.00    +0.000 A 
ATOM      6  C   UNL     1      46.635   6.799  12.477  0.00  0.00    +0.000 A 
ATOM      7  C   UNL     1      45.510   6.421  11.716  0.00  0.00    +0.000 A 
ENDROOT
BRANCH   6   8
ATOM      8  C   UNL     1      47.324   8.089  12.236  0.00  0.00    +0.000 A 
ATOM      9  C   UNL     1      46.647   9.313  12.332  0.00  0.00    +0.000 A 
ATOM     10  C   UNL     1      47.331  10.489  12.068  0.00  0.00    +0.000 A 
ATOM     11  N   UNL     1      48.635  10.542  11.731  0.00  0.00    +0.000 NA
ATOM     12  C   UNL     1      49.287   9.376  11.648  0.00  0.00    +0.000 A 
ATOM     13  N   UNL     1      50.646   9.445  11.349  0.00  0.00    +0.000 N 
ATOM     14  C   UNL     1      48.682   8.148  11.889  0.00  0.00    +0.000 A 
ATOM     15  H   UNL     1      50.854  10.421  11.158  0.00  0.00    +0.000 HD
ATOM     16  H   UNL     1      50.891   8.845  10.571  0.00  0.00    +0.000 HD
ENDBRANCH   6   8
BRANCH   1  17
ATOM     17  C   UNL     1      43.603   4.871  11.112  0.00  0.00    +0.000 C 
BRANCH  17  22
ATOM     18  C   UNL     1      46.384   2.281   7.672  0.00  0.00    +0.000 A 
ATOM     19  C   UNL     1      45.705   1.798   8.785  0.00  0.00    +0.000 A 
ATOM     20  C   UNL     1      44.869   2.655   9.498  0.00  0.00    +0.000 A 
ATOM     21  C   UNL     1      44.735   3.981   9.101  0.00  0.00    +0.000 A 
ATOM     22  N   UNL     1      43.860   4.868   9.686  0.00  0.00    +0.000 N 
ATOM     23  N   UNL     1      45.407   4.465   8.036  0.00  0.00    +0.000 NA
ATOM     24  C   UNL     1      46.221   3.618   7.350  0.00  0.00    +0.000 A 
ATOM     25  H   UNL     1      44.032   5.778   9.269  0.00  0.00    +0.000 HD
BRANCH  18  27
ATOM     26  N   UNL     1      48.348   2.031   6.266  0.00  0.00    +0.000 N 
ATOM     27  C   UNL     1      47.256   1.433   6.835  0.00  0.00    +0.000 C 
ATOM     28  O   UNL     1      47.036   0.239   6.684  0.00  0.00    +0.000 OA
ATOM     29  H   UNL     1      48.994   1.418   5.784  0.00  0.00    +0.000 HD
ATOM     30  H   UNL     1      48.699   2.928   6.571  0.00  0.00    +0.000 HD
ENDBRANCH  18  27
ENDBRANCH  17  22
ENDBRANCH   1  17
TORSDOF 4
ENDMDL
MODEL 2
REMARK VINA RESULT:    -8.990      3.127      4.223
REMARK INTER + INTRA:         -11.908
REMARK INTER:                 -11.211
REMARK INTRA:                  -0.697
REMARK UNBOUND:                -0.816
REMARK  Name = 
REMARK  4 active torsions:
REMARK  status: ('A' for Active; 'I' for Inactive)
REMARK    1  A    between atoms: C_2  and  C_4
REMARK    2  A    between atoms: N_8  and  C_9
REMARK    3  A    between atoms: C_9  and  C_10
REMARK    4  A    between atoms: C_15  and  C_16
REMARK                            x       y       z     vdW  Elec       q    Type
REMARK                         _______ _______ _______ _____ _____    ______ ____
ROOT
ATOM      1  C   UNL     1      45.785   5.753  12.026  0.00  0.00    +0.000 A 
ATOM      2  C   UNL     1      46.617   6.661  11.368  0.00  0.00    +0.000 A 
ATOM      3  C   UNL     1      47.772   7.113  11.993  0.00  0.00    +0.000 A 
ATOM      4  F   UNL     1      48.569   7.977  11.351  0.00  0.00    +0.000 F 
ATOM      5  C   UNL     1      48.125   6.677  13.268  0.00  0.00    +0.000 A 
ATOM      6  C   UNL     1      47.313   5.771  13.968  0.00  0.00    +0.000 A 
ATOM      7  C   UNL     1      46.143   5.324  13.319  0.00  0.00    +0.000 A 
ENDROOT
BRANCH   6   8
ATOM      8  C   UNL     1      47.657   5.302  15.332  0.00  0.00    +0.000 A 
ATOM      9  C   UNL     1      48.585   5.985  16.131  0.00  0.00    +0.000 A 
ATOM     10  C   UNL     1      48.894   5.488  17.387  0.00  0.00    +0.000 A 
ATOM     11  N   UNL     1      48.341   4.378  17.914  0.00  0.00    +0.000 NA
ATOM     12  C   UNL     1      47.447   3.728  17.157  0.00  0.00    +0.000 A 
ATOM     13  N   UNL     1      46.845   2.610  17.730  0.00  0.00    +0.000 N 
ATOM     14  C   UNL     1      47.081   4.149  15.884  0.00  0.00    +0.000 A 
ATOM     15  H   UNL     1      47.301   2.459  18.625  0.00  0.00    +0.000 HD
ATOM     16  H   UNL     1      46.908   1.798  17.129  0.00  0.00    +0.000 HD
ENDBRANCH   6   8
BRANCH   1  17
ATOM     17  C   UNL     1      44.550   5.202  11.356  0.00  0.00    +0.000 C 
BRANCH  17  22
ATOM     18  C   UNL     1      46.582   2.436   7.550  0.00  0.00    +0.000 A 
ATOM     19  C   UNL     1      45.971   1.993   8.717  0.00  0.00    +0.000 A 
ATOM     20  C   UNL     1      45.336   2.917   9.545  0.00  0.00    +0.000 A 
ATOM     21  C   UNL     1      45.333   4.265   9.204  0.00  0.00    +0.000 A 
ATOM     22  N   UNL     1      44.649   5.229   9.911  0.00  0.00    +0.000 N 
ATOM     23  N   UNL     1      45.943   4.707   8.085  0.00  0.00    +0.000 NA
ATOM     24  C   UNL     1      46.561   3.795   7.287  0.00  0.00    +0.000 A 
ATOM     25  H   UNL     1      44.892   6.128   9.503  0.00  0.00    +0.000 HD
BRANCH  18  27
ATOM     26  N   UNL     1      48.204   2.057   5.782  0.00  0.00    +0.000 N 
ATOM     27  C   UNL     1      47.242   1.521   6.594  0.00  0.00    +0.000 C 
ATOM     28  O   UNL     1      46.967   0.330   6.554  0.00  0.00    +0.000 OA
ATOM     29  H   UNL     1      48.721   1.401   5.208  0.00  0.00    +0.000 HD
ATOM     30  H   UNL     1      48.631   2.954   5.960  0.00  0.00    +0.000 HD
ENDBRANCH  18  27
ENDBRANCH  17  22
ENDBRANCH   1  17
TORSDOF 4
ENDMDL
MODEL 3
REMARK VINA RESULT:    -8.383      2.948      3.795
REMARK INTER + INTRA:         -11.159
REMARK INTER:                 -10.511
REMARK INTRA:                  -0.648
REMARK UNBOUND:                -0.816
REMARK  Name = 
REMARK  4 active torsions:
REMARK  status: ('A' for Active; 'I' for Inactive)
REMARK    1  A    between atoms: C_2  and  C_4
REMARK    2  A    between atoms: N_8  and  C_9
REMARK    3  A    between atoms: C_9  and  C_10
REMARK    4  A    between atoms: C_15  and  C_16
REMARK                            x       y       z     vdW  Elec       q    Type
REMARK                         _______ _______ _______ _____ _____    ______ ____
ROOT
ATOM      1  C   UNL     1      44.133   4.775  11.632  0.00  0.00    +0.000 A 
ATOM      2  C   UNL     1      43.761   6.045  11.187  0.00  0.00    +0.000 A 
ATOM      3  C   UNL     1      44.398   7.167  11.702  0.00  0.00    +0.000 A 
ATOM      4  F   UNL     1      44.041   8.382  11.264  0.00  0.00    +0.000 F 
ATOM      5  C   UNL     1      45.408   7.055  12.655  0.00  0.00    +0.000 A 
ATOM      6  C   UNL     1      45.806   5.797  13.135  0.00  0.00    +0.000 A 
ATOM      7  C   UNL     1      45.148   4.670  12.603  0.00  0.00    +0.000 A 
ENDROOT
BRANCH   6   8
ATOM      8  C   UNL     1      46.867   5.651  14.160  0.00  0.00    +0.000 A 
ATOM      9  C   UNL     1      47.864   6.622  14.331  0.00  0.00    +0.000 A 
ATOM     10  C   UNL     1      48.850   6.422  15.283  0.00  0.00    +0.000 A 
ATOM     11  N   UNL     1      48.912   5.342  16.087  0.00  0.00    +0.000 NA
ATOM     12  C   UNL     1      47.956   4.417  15.934  0.00  0.00    +0.000 A 
ATOM     13  N   UNL     1      48.001   3.329  16.803  0.00  0.00    +0.000 N 
ATOM     14  C   UNL     1      46.933   4.530  15.000  0.00  0.00    +0.000 A 
ATOM     15  H   UNL     1      48.853   3.425  17.349  0.00  0.00    +0.000 HD
ATOM     16  H   UNL     1      47.966   2.448  16.306  0.00  0.00    +0.000 HD
ENDBRANCH   6   8
BRANCH   1  17
ATOM     17  C   UNL     1      43.499   3.532  11.056  0.00  0.00    +0.000 C 
BRANCH  17  22
ATOM     18  C   UNL     1      46.712   2.485   7.202  0.00  0.00    +0.000 A 
ATOM     19  C   UNL     1      46.383   3.719   7.750  0.00  0.00    +0.000 A 
ATOM     20  C   UNL     1      45.609   3.766   8.908  0.00  0.00    +0.000 A 
ATOM     21  C   UNL     1      45.165   2.584   9.492  0.00  0.00    +0.000 A 
ATOM     22  N   UNL     1      44.481   2.533  10.686  0.00  0.00    +0.000 N 
ATOM     23  N   UNL     1      45.461   1.382   8.955  0.00  0.00    +0.000 NA
ATOM     24  C   UNL     1      46.215   1.352   7.823  0.00  0.00    +0.000 A 
ATOM     25  H   UNL     1      44.201   1.567  10.830  0.00  0.00    +0.000 HD
BRANCH  18  27
ATOM     26  N   UNL     1      47.394   3.266   5.005  0.00  0.00    +0.000 N 
ATOM     27  C   UNL     1      47.561   2.342   6.002  0.00  0.00    +0.000 C 
ATOM     28  O   UNL     1      48.404   1.460   5.914  0.00  0.00    +0.000 OA
ATOM     29  H   UNL     1      48.052   3.220   4.237  0.00  0.00    +0.000 HD
ATOM     30  H   UNL     1      46.906   4.138   5.147  0.00  0.00    +0.000 HD
ENDBRANCH  18  27
ENDBRANCH  17  22
ENDBRANCH   1  17
TORSDOF 4
ENDMDL
MODEL 4
REMARK VINA RESULT:    -8.044      3.571      7.214
REMARK INTER + INTRA:         -10.741
REMARK INTER:                 -10.534
REMARK INTRA:                  -0.207
REMARK UNBOUND:                -0.816
REMARK  Name = 
REMARK  4 active torsions:
REMARK  status: ('A' for Active; 'I' for Inactive)
REMARK    1  A    between atoms: C_2  and  C_4
REMARK    2  A    between atoms: N_8  and  C_9
REMARK    3  A    between atoms: C_9  and  C_10
REMARK    4  A    between atoms: C_15  and  C_16
REMARK                            x       y       z     vdW  Elec       q    Type
REMARK                         _______ _______ _______ _____ _____    ______ ____
ROOT
ATOM      1  C   UNL     1      45.329   6.432  11.130  0.00  0.00    +0.000 A 
ATOM      2  C   UNL     1      43.990   6.330  11.513  0.00  0.00    +0.000 A 
ATOM      3  C   UNL     1      43.202   5.312  10.992  0.00  0.00    +0.000 A 
ATOM      4  F   UNL     1      41.921   5.215  11.371  0.00  0.00    +0.000 F 
ATOM      5  C   UNL     1      43.720   4.381  10.094  0.00  0.00    +0.000 A 
ATOM      6  C   UNL     1      45.059   4.453   9.677  0.00  0.00    +0.000 A 
ATOM      7  C   UNL     1      45.843   5.494  10.214  0.00  0.00    +0.000 A 
ENDROOT
BRANCH   6   8
ATOM      8  C   UNL     1      45.630   3.485   8.710  0.00  0.00    +0.000 A 
ATOM      9  C   UNL     1      45.622   2.106   8.959  0.00  0.00    +0.000 A 
ATOM     10  C   UNL     1      46.197   1.246   8.036  0.00  0.00    +0.000 A 
ATOM     11  N   UNL     1      46.762   1.650   6.882  0.00  0.00    +0.000 NA
ATOM     12  C   UNL     1      46.763   2.967   6.636  0.00  0.00    +0.000 A 
ATOM     13  N   UNL     1      47.305   3.370   5.418  0.00  0.00    +0.000 N 
ATOM     14  C   UNL     1      46.216   3.902   7.506  0.00  0.00    +0.000 A 
ATOM     15  H   UNL     1      47.691   2.538   4.980  0.00  0.00    +0.000 HD
ATOM     16  H   UNL     1      48.002   4.095   5.537  0.00  0.00    +0.000 HD
ENDBRANCH   6   8
BRANCH   1  17
ATOM     17  C   UNL     1      46.226   7.494  11.717  0.00  0.00    +0.000 C 
BRANCH  17  22
ATOM     18  C   UNL     1      47.395   4.448  15.670  0.00  0.00    +0.000 A 
ATOM     19  C   UNL     1      46.335   4.347  14.776  0.00  0.00    +0.000 A 
ATOM     20  C   UNL     1      46.296   5.191  13.668  0.00  0.00    +0.000 A 
ATOM     21  C   UNL     1      47.304   6.129  13.476  0.00  0.00    +0.000 A 
ATOM     22  N   UNL     1      47.396   6.933  12.362  0.00  0.00    +0.000 N 
ATOM     23  N   UNL     1      48.325   6.250  14.350  0.00  0.00    +0.000 NA
ATOM     24  C   UNL     1      48.350   5.422  15.428  0.00  0.00    +0.000 A 
ATOM     25  H   UNL     1      48.163   7.580  12.522  0.00  0.00    +0.000 HD
BRANCH  18  27
ATOM     26  N   UNL     1      48.793   3.429  17.375  0.00  0.00    +0.000 N 
ATOM     27  C   UNL     1      47.538   3.567  16.847  0.00  0.00    +0.000 C 
ATOM     28  O   UNL     1      46.572   3.013  17.353  0.00  0.00    +0.000 OA
ATOM     29  H   UNL     1      48.860   2.910  18.241  0.00  0.00    +0.000 HD
ATOM     30  H   UNL     1      49.551   4.059  17.152  0.00  0.00    +0.000 HD
ENDBRANCH  18  27
ENDBRANCH  17  22
ENDBRANCH   1  17
TORSDOF 4
ENDMDL
MODEL 5
REMARK VINA RESULT:    -7.516      3.253      7.438
REMARK INTER + INTRA:         -10.089
REMARK INTER:                  -9.423
REMARK INTRA:                  -0.667
REMARK UNBOUND:                -0.816
REMARK  Name = 
REMARK  4 active torsions:
REMARK  status: ('A' for Active; 'I' for Inactive)
REMARK    1  A    between atoms: C_2  and  C_4
REMARK    2  A    between atoms: N_8  and  C_9
REMARK    3  A    between atoms: C_9  and  C_10
REMARK    4  A    between atoms: C_15  and  C_16
REMARK                            x       y       z     vdW  Elec       q    Type
REMARK                         _______ _______ _______ _____ _____    ______ ____
ROOT
ATOM      1  C   UNL     1      44.819   5.381  10.734  0.00  0.00    +0.000 A 
ATOM      2  C   UNL     1      43.874   4.702  11.504  0.00  0.00    +0.000 A 
ATOM      3  C   UNL     1      43.611   3.363  11.244  0.00  0.00    +0.000 A 
ATOM      4  F   UNL     1      42.708   2.715  11.992  0.00  0.00    +0.000 F 
ATOM      5  C   UNL     1      44.274   2.676  10.229  0.00  0.00    +0.000 A 
ATOM      6  C   UNL     1      45.226   3.325   9.426  0.00  0.00    +0.000 A 
ATOM      7  C   UNL     1      45.479   4.684   9.703  0.00  0.00    +0.000 A 
ENDROOT
BRANCH   6   8
ATOM      8  C   UNL     1      45.935   2.622   8.330  0.00  0.00    +0.000 A 
ATOM      9  C   UNL     1      46.177   1.242   8.377  0.00  0.00    +0.000 A 
ATOM     10  C   UNL     1      46.870   0.639   7.340  0.00  0.00    +0.000 A 
ATOM     11  N   UNL     1      47.327   1.298   6.257  0.00  0.00    +0.000 NA
ATOM     12  C   UNL     1      47.089   2.616   6.204  0.00  0.00    +0.000 A 
ATOM     13  N   UNL     1      47.521   3.278   5.057  0.00  0.00    +0.000 N 
ATOM     14  C   UNL     1      46.408   3.305   7.200  0.00  0.00    +0.000 A 
ATOM     15  H   UNL     1      48.036   2.599   4.503  0.00  0.00    +0.000 HD
ATOM     16  H   UNL     1      48.082   4.091   5.280  0.00  0.00    +0.000 HD
ENDBRANCH   6   8
BRANCH   1  17
ATOM     17  C   UNL     1      45.168   6.821  11.023  0.00  0.00    +0.000 C 
BRANCH  17  22
ATOM     18  C   UNL     1      49.652   7.811  13.299  0.00  0.00    +0.000 A 
ATOM     19  C   UNL     1      49.144   8.331  12.114  0.00  0.00    +0.000 A 
ATOM     20  C   UNL     1      47.826   8.051  11.758  0.00  0.00    +0.000 A 
ATOM     21  C   UNL     1      47.042   7.248  12.580  0.00  0.00    +0.000 A 
ATOM     22  N   UNL     1      45.706   7.001  12.356  0.00  0.00    +0.000 N 
ATOM     23  N   UNL     1      47.533   6.721  13.721  0.00  0.00    +0.000 NA
ATOM     24  C   UNL     1      48.822   7.000  14.055  0.00  0.00    +0.000 A 
ATOM     25  H   UNL     1      45.407   6.318  13.047  0.00  0.00    +0.000 HD
BRANCH  18  27
ATOM     26  N   UNL     1      51.411   7.497  14.945  0.00  0.00    +0.000 N 
ATOM     27  C   UNL     1      51.023   8.090  13.774  0.00  0.00    +0.000 C 
ATOM     28  O   UNL     1      51.793   8.791  13.131  0.00  0.00    +0.000 OA
ATOM     29  H   UNL     1      52.383   7.611  15.203  0.00  0.00    +0.000 HD
ATOM     30  H   UNL     1      50.908   6.725  15.358  0.00  0.00    +0.000 HD
ENDBRANCH  18  27
ENDBRANCH  17  22
ENDBRANCH   1  17
TORSDOF 4
ENDMDL
MODEL 6
REMARK VINA RESULT:    -7.381      5.375      8.114
REMARK INTER + INTRA:          -9.923
REMARK INTER:                  -9.224
REMARK INTRA:                  -0.699
REMARK UNBOUND:                -0.816
REMARK  Name = 
REMARK  4 active torsions:
REMARK  status: ('A' for Active; 'I' for Inactive)
REMARK    1  A    between atoms: C_2  and  C_4
REMARK    2  A    between atoms: N_8  and  C_9
REMARK    3  A    between atoms: C_9  and  C_10
REMARK    4  A    between atoms: C_15  and  C_16
REMARK                            x       y       z     vdW  Elec       q    Type
REMARK                         _______ _______ _______ _____ _____    ______ ____
ROOT
ATOM      1  C   UNL     1      48.332   6.715  14.477  0.00  0.00    +0.000 A 
ATOM      2  C   UNL     1      49.126   7.413  13.565  0.00  0.00    +0.000 A 
ATOM      3  C   UNL     1      48.742   7.480  12.232  0.00  0.00    +0.000 A 
ATOM      4  F   UNL     1      49.505   8.159  11.364  0.00  0.00    +0.000 F 
ATOM      5  C   UNL     1      47.576   6.867  11.780  0.00  0.00    +0.000 A 
ATOM      6  C   UNL     1      46.754   6.149  12.664  0.00  0.00    +0.000 A 
ATOM      7  C   UNL     1      47.159   6.089  14.012  0.00  0.00    +0.000 A 
ENDROOT
BRANCH   6   8
ATOM      8  C   UNL     1      45.515   5.474  12.206  0.00  0.00    +0.000 A 
ATOM      9  C   UNL     1      44.572   6.133  11.405  0.00  0.00    +0.000 A 
ATOM     10  C   UNL     1      43.417   5.466  11.030  0.00  0.00    +0.000 A 
ATOM     11  N   UNL     1      43.136   4.194  11.376  0.00  0.00    +0.000 NA
ATOM     12  C   UNL     1      44.040   3.558  12.133  0.00  0.00    +0.000 A 
ATOM     13  N   UNL     1      43.763   2.229  12.444  0.00  0.00    +0.000 N 
ATOM     14  C   UNL     1      45.222   4.149  12.561  0.00  0.00    +0.000 A 
ATOM     15  H   UNL     1      42.834   2.031  12.082  0.00  0.00    +0.000 HD
ATOM     16  H   UNL     1      43.829   2.052  13.438  0.00  0.00    +0.000 HD
ENDBRANCH   6   8
BRANCH   1  17
ATOM     17  C   UNL     1      48.691   6.667  15.943  0.00  0.00    +0.000 C 
BRANCH  17  22
ATOM     18  C   UNL     1      51.258   2.514  17.505  0.00  0.00    +0.000 A 
ATOM     19  C   UNL     1      51.612   3.853  17.624  0.00  0.00    +0.000 A 
ATOM     20  C   UNL     1      50.687   4.836  17.277  0.00  0.00    +0.000 A 
ATOM     21  C   UNL     1      49.432   4.469  16.804  0.00  0.00    +0.000 A 
ATOM     22  N   UNL     1      48.427   5.369  16.532  0.00  0.00    +0.000 N 
ATOM     23  N   UNL     1      49.086   3.172  16.664  0.00  0.00    +0.000 NA
ATOM     24  C   UNL     1      50.000   2.224  17.004  0.00  0.00    +0.000 A 
ATOM     25  H   UNL     1      47.660   4.847  16.118  0.00  0.00    +0.000 HD
BRANCH  18  27
ATOM     26  N   UNL     1      51.583   0.197  18.158  0.00  0.00    +0.000 N 
ATOM     27  C   UNL     1      52.160   1.409  17.888  0.00  0.00    +0.000 C 
ATOM     28  O   UNL     1      53.373   1.557  17.929  0.00  0.00    +0.000 OA
ATOM     29  H   UNL     1      52.217  -0.576  18.316  0.00  0.00    +0.000 HD
ATOM     30  H   UNL     1      50.635  -0.028  17.890  0.00  0.00    +0.000 HD
ENDBRANCH  18  27
ENDBRANCH  17  22
ENDBRANCH   1  17
TORSDOF 4
ENDMDL
MODEL 7
REMARK VINA RESULT:    -6.868      4.886      8.315
REMARK INTER + INTRA:          -9.290
REMARK INTER:                  -8.758
REMARK INTRA:                  -0.532
REMARK UNBOUND:                -0.816
REMARK  Name = 
REMARK  4 active torsions:
REMARK  status: ('A' for Active; 'I' for Inactive)
REMARK    1  A    between atoms: C_2  and  C_4
REMARK    2  A    between atoms: N_8  and  C_9
REMARK    3  A    between atoms: C_9  and  C_10
REMARK    4  A    between atoms: C_15  and  C_16
REMARK                            x       y       z     vdW  Elec       q    Type
REMARK                         _______ _______ _______ _____ _____    ______ ____
ROOT
ATOM      1  C   UNL     1      47.197   7.647  13.190  0.00  0.00    +0.000 A 
ATOM      2  C   UNL     1      46.514   8.852  13.016  0.00  0.00    +0.000 A 
ATOM      3  C   UNL     1      45.380   8.888  12.214  0.00  0.00    +0.000 A 
ATOM      4  F   UNL     1      44.724  10.045  12.058  0.00  0.00    +0.000 F 
ATOM      5  C   UNL     1      44.904   7.743  11.578  0.00  0.00    +0.000 A 
ATOM      6  C   UNL     1      45.567   6.514  11.720  0.00  0.00    +0.000 A 
ATOM      7  C   UNL     1      46.717   6.496  12.536  0.00  0.00    +0.000 A 
ENDROOT
BRANCH   6   8
ATOM      8  C   UNL     1      45.091   5.285  11.042  0.00  0.00    +0.000 A 
ATOM      9  C   UNL     1      45.274   5.086   9.667  0.00  0.00    +0.000 A 
ATOM     10  C   UNL     1      44.783   3.932   9.077  0.00  0.00    +0.000 A 
ATOM     11  N   UNL     1      44.140   2.957   9.750  0.00  0.00    +0.000 NA
ATOM     12  C   UNL     1      43.973   3.139  11.066  0.00  0.00    +0.000 A 
ATOM     13  N   UNL     1      43.352   2.104  11.761  0.00  0.00    +0.000 N 
ATOM     14  C   UNL     1      44.425   4.267  11.741  0.00  0.00    +0.000 A 
ATOM     15  H   UNL     1      43.059   1.421  11.068  0.00  0.00    +0.000 HD
ATOM     16  H   UNL     1      42.575   2.437  12.319  0.00  0.00    +0.000 HD
ENDBRANCH   6   8
BRANCH   1  17
ATOM     17  C   UNL     1      48.401   7.560  14.096  0.00  0.00    +0.000 C 
BRANCH  17  22
ATOM     18  C   UNL     1      50.907   4.742  17.568  0.00  0.00    +0.000 A 
ATOM     19  C   UNL     1      51.321   5.904  16.927  0.00  0.00    +0.000 A 
ATOM     20  C   UNL     1      50.413   6.606  16.136  0.00  0.00    +0.000 A 
ATOM     21  C   UNL     1      49.114   6.131  15.986  0.00  0.00    +0.000 A 
ATOM     22  N   UNL     1      48.129   6.810  15.306  0.00  0.00    +0.000 N 
ATOM     23  N   UNL     1      48.710   4.993  16.587  0.00  0.00    +0.000 NA
ATOM     24  C   UNL     1      49.607   4.317  17.353  0.00  0.00    +0.000 A 
ATOM     25  H   UNL     1      47.315   6.203  15.272  0.00  0.00    +0.000 HD
BRANCH  18  27
ATOM     26  N   UNL     1      51.631   4.133  19.805  0.00  0.00    +0.000 N 
ATOM     27  C   UNL     1      51.790   3.959  18.457  0.00  0.00    +0.000 C 
ATOM     28  O   UNL     1      52.604   3.162  18.011  0.00  0.00    +0.000 OA
ATOM     29  H   UNL     1      52.167   3.516  20.402  0.00  0.00    +0.000 HD
ATOM     30  H   UNL     1      50.816   4.575  20.206  0.00  0.00    +0.000 HD
ENDBRANCH  18  27
ENDBRANCH  17  22
ENDBRANCH   1  17
TORSDOF 4
ENDMDL
MODEL 8
REMARK VINA RESULT:    -6.585      4.748      8.554
REMARK INTER + INTRA:          -8.941
REMARK INTER:                  -8.138
REMARK INTRA:                  -0.803
REMARK UNBOUND:                -0.816
REMARK  Name = 
REMARK  4 active torsions:
REMARK  status: ('A' for Active; 'I' for Inactive)
REMARK    1  A    between atoms: C_2  and  C_4
REMARK    2  A    between atoms: N_8  and  C_9
REMARK    3  A    between atoms: C_9  and  C_10
REMARK    4  A    between atoms: C_15  and  C_16
REMARK                            x       y       z     vdW  Elec       q    Type
REMARK                         _______ _______ _______ _____ _____    ______ ____
ROOT
ATOM      1  C   UNL     1      47.711   7.442  12.695  0.00  0.00    +0.000 A 
ATOM      2  C   UNL     1      47.040   8.667  12.721  0.00  0.00    +0.000 A 
ATOM      3  C   UNL     1      45.694   8.720  12.381  0.00  0.00    +0.000 A 
ATOM      4  F   UNL     1      45.055   9.896  12.416  0.00  0.00    +0.000 F 
ATOM      5  C   UNL     1      44.992   7.573  12.016  0.00  0.00    +0.000 A 
ATOM      6  C   UNL     1      45.631   6.324  11.970  0.00  0.00    +0.000 A 
ATOM      7  C   UNL     1      46.998   6.289  12.316  0.00  0.00    +0.000 A 
ENDROOT
BRANCH   6   8
ATOM      8  C   UNL     1      44.912   5.091  11.570  0.00  0.00    +0.000 A 
ATOM      9  C   UNL     1      44.149   4.355  12.488  0.00  0.00    +0.000 A 
ATOM     10  C   UNL     1      43.520   3.193  12.070  0.00  0.00    +0.000 A 
ATOM     11  N   UNL     1      43.579   2.717  10.810  0.00  0.00    +0.000 NA
ATOM     12  C   UNL     1      44.298   3.423   9.928  0.00  0.00    +0.000 A 
ATOM     13  N   UNL     1      44.311   2.950   8.618  0.00  0.00    +0.000 N 
ATOM     14  C   UNL     1      44.967   4.595  10.260  0.00  0.00    +0.000 A 
ATOM     15  H   UNL     1      43.813   2.064   8.622  0.00  0.00    +0.000 HD
ATOM     16  H   UNL     1      45.254   2.854   8.261  0.00  0.00    +0.000 HD
ENDBRANCH   6   8
BRANCH   1  17
ATOM     17  C   UNL     1      49.159   7.340  13.109  0.00  0.00    +0.000 C 
BRANCH  17  22
ATOM     18  C   UNL     1      48.385   6.814  18.148  0.00  0.00    +0.000 A 
ATOM     19  C   UNL     1      48.709   5.840  17.211  0.00  0.00    +0.000 A 
ATOM     20  C   UNL     1      49.039   6.227  15.913  0.00  0.00    +0.000 A 
ATOM     21  C   UNL     1      49.026   7.574  15.569  0.00  0.00    +0.000 A 
ATOM     22  N   UNL     1      49.431   8.051  14.342  0.00  0.00    +0.000 N 
ATOM     23  N   UNL     1      48.692   8.525  16.465  0.00  0.00    +0.000 NA
ATOM     24  C   UNL     1      48.369   8.133  17.727  0.00  0.00    +0.000 A 
ATOM     25  H   UNL     1      49.233   9.048  14.328  0.00  0.00    +0.000 HD
BRANCH  18  27
ATOM     26  N   UNL     1      47.000   5.664  19.780  0.00  0.00    +0.000 N 
ATOM     27  C   UNL     1      48.063   6.497  19.555  0.00  0.00    +0.000 C 
ATOM     28  O   UNL     1      48.738   6.929  20.480  0.00  0.00    +0.000 OA
ATOM     29  H   UNL     1      46.856   5.371  20.738  0.00  0.00    +0.000 HD
ATOM     30  H   UNL     1      46.591   5.095  19.053  0.00  0.00    +0.000 HD
ENDBRANCH  18  27
ENDBRANCH  17  22
ENDBRANCH   1  17
TORSDOF 4
ENDMDL
