MODEL 1
REMARK VINA RESULT:    -8.236      0.000      0.000
REMARK INTER + INTRA:         -10.892
REMARK INTER:                 -10.162
REMARK INTRA:                  -0.730
REMARK UNBOUND:                -0.730
REMARK  Name = 
REMARK  5 active torsions:
REMARK  status: ('A' for Active; 'I' for Inactive)
REMARK    1  A    between atoms: C_1  and  C_2
REMARK    2  A    between atoms: C_2  and  O_3
REMARK    3  A    between atoms: C_2  and  C_13
REMARK    4  A    between atoms: O_3  and  C_4
REMARK    5  A    between atoms: C_7  and  C_8
REMARK                            x       y       z     vdW  Elec       q    Type
REMARK                         _______ _______ _______ _____ _____    ______ ____
ROOT
ATOM      1  C   UNL     1      44.561   3.490   9.414  0.00  0.00    +0.000 A 
ATOM      2  C   UNL     1      44.915   2.140   9.343  0.00  0.00    +0.000 A 
ATOM      3  C   UNL     1      45.888   1.709   8.437  0.00  0.00    +0.000 A 
ATOM      4  C   UNL     1      46.506   2.627   7.580  0.00  0.00    +0.000 A 
ATOM      5  C   UNL     1      46.154   3.977   7.651  0.00  0.00    +0.000 A 
ATOM      6  C   UNL     1      45.171   4.400   8.548  0.00  0.00    +0.000 A 
ENDROOT
BRANCH   4   7
ATOM      7  C   UNL     1      47.533   2.140   6.623  0.00  0.00    +0.000 C 
ATOM      8  N   UNL     1      47.852   2.960   5.574  0.00  0.00    +0.000 N 
ATOM      9  O   UNL     1      48.054   1.041   6.742  0.00  0.00    +0.000 OA
ATOM     10  H   UNL     1      47.289   3.755   5.307  0.00  0.00    +0.000 HD
ATOM     11  H   UNL     1      48.474   2.573   4.878  0.00  0.00    +0.000 HD
ENDBRANCH   4   7
BRANCH   1  12
ATOM     12  O   UNL     1      43.609   3.805  10.346  0.00  0.00    +0.000 OA
BRANCH  12  14
ATOM     13  C   UNL     1      42.336   5.404  11.647  0.00  0.00    +0.000 C 
ATOM     14  C   UNL     1      43.640   5.129  10.901  0.00  0.00    +0.000 C 
BRANCH  14  15
ATOM     15  C   UNL     1      44.837   5.274  11.828  0.00  0.00    +0.000 A 
ATOM     16  C   UNL     1      45.761   6.309  11.594  0.00  0.00    +0.000 A 
ATOM     17  C   UNL     1      46.869   6.473  12.421  0.00  0.00    +0.000 A 
ATOM     18  C   UNL     1      47.059   5.606  13.490  0.00  0.00    +0.000 A 
ATOM     19  F   UNL     1      48.125   5.764  14.284  0.00  0.00    +0.000 F 
ATOM     20  C   UNL     1      46.156   4.581  13.746  0.00  0.00    +0.000 A 
ATOM     21  C   UNL     1      45.043   4.414  12.919  0.00  0.00    +0.000 A 
ENDBRANCH  14  15
ENDBRANCH  12  14
ENDBRANCH   1  12
TORSDOF 4
ENDMDL
MODEL 2
REMARK VINA RESULT:    -7.313      1.325      2.184
REMARK INTER + INTRA:          -9.753
REMARK INTER:                  -9.465
REMARK INTRA:                  -0.288
REMARK UNBOUND:                -0.730
REMARK  Name = 
REMARK  5 active torsions:
REMARK  status: ('A' for Active; 'I' for Inactive)
REMARK    1  A    between atoms: C_1  and  C_2
REMARK    2  A    between atoms: C_2  and  O_3
REMARK    3  A    between atoms: C_2  and  C_13
REMARK    4  A    between atoms: O_3  and  C_4
REMARK    5  A    between atoms: C_7  and  C_8
REMARK                            x       y       z     vdW  Elec       q    Type
REMARK                         _______ _______ _______ _____ _____    ______ ____
ROOT
ATOM      1  C   UNL     1      44.542   3.437   9.474  0.00  0.00    +0.000 A 
ATOM      2  C   UNL     1      45.191   4.408   8.707  0.00  0.00    +0.000 A 
ATOM      3  C   UNL     1      46.151   4.038   7.760  0.00  0.00    +0.000 A 
ATOM      4  C   UNL     1      46.481   2.689   7.585  0.00  0.00    +0.000 A 
ATOM      5  C   UNL     1      45.832   1.718   8.350  0.00  0.00    +0.000 A 
ATOM      6  C   UNL     1      44.884   2.094   9.304  0.00  0.00    +0.000 A 
ENDROOT
BRANCH   4   7
ATOM      7  C   UNL     1      47.510   2.325   6.576  0.00  0.00    +0.000 C 
ATOM      8  N   UNL     1      47.492   3.008   5.389  0.00  0.00    +0.000 N 
ATOM      9  O   UNL     1      48.323   1.435   6.776  0.00  0.00    +0.000 OA
ATOM     10  H   UNL     1      46.710   3.573   5.091  0.00  0.00    +0.000 HD
ATOM     11  H   UNL     1      48.129   2.680   4.676  0.00  0.00    +0.000 HD
ENDBRANCH   4   7
BRANCH   1  12
ATOM     12  O   UNL     1      43.609   3.907  10.359  0.00  0.00    +0.000 OA
BRANCH  12  14
ATOM     13  C   UNL     1      44.950   2.991  12.157  0.00  0.00    +0.000 C 
ATOM     14  C   UNL     1      44.035   4.131  11.712  0.00  0.00    +0.000 C 
BRANCH  14  15
ATOM     15  C   UNL     1      44.748   5.470  11.816  0.00  0.00    +0.000 A 
ATOM     16  C   UNL     1      46.088   5.499  12.246  0.00  0.00    +0.000 A 
ATOM     17  C   UNL     1      46.773   6.707  12.354  0.00  0.00    +0.000 A 
ATOM     18  C   UNL     1      46.126   7.892  12.030  0.00  0.00    +0.000 A 
ATOM     19  F   UNL     1      46.785   9.052  12.136  0.00  0.00    +0.000 F 
ATOM     20  C   UNL     1      44.805   7.888  11.596  0.00  0.00    +0.000 A 
ATOM     21  C   UNL     1      44.114   6.679  11.486  0.00  0.00    +0.000 A 
ENDBRANCH  14  15
ENDBRANCH  12  14
ENDBRANCH   1  12
TORSDOF 4
ENDMDL
MODEL 3
REMARK VINA RESULT:    -6.528      4.058      6.509
REMARK INTER + INTRA:          -8.785
REMARK INTER:                  -8.108
REMARK INTRA:                  -0.677
REMARK UNBOUND:                -0.730
REMARK  Name = 
REMARK  5 active torsions:
REMARK  status: ('A' for Active; 'I' for Inactive)
REMARK    1  A    between atoms: C_1  and  C_2
REMARK    2  A    between atoms: C_2  and  O_3
REMARK    3  A    between atoms: C_2  and  C_13
REMARK    4  A    between atoms: O_3  and  C_4
REMARK    5  A    between atoms: C_7  and  C_8
REMARK                            x       y       z     vdW  Elec       q    Type
REMARK                         _______ _______ _______ _____ _____    ______ ____
ROOT
ATOM      1  C   UNL     1      46.221   5.701  12.442  0.00  0.00    +0.000 A 
ATOM      2  C   UNL     1      45.898   4.656  13.312  0.00  0.00    +0.000 A 
ATOM      3  C   UNL     1      46.571   4.513  14.529  0.00  0.00    +0.000 A 
ATOM      4  C   UNL     1      47.586   5.411  14.880  0.00  0.00    +0.000 A 
ATOM      5  C   UNL     1      47.908   6.457  14.013  0.00  0.00    +0.000 A 
ATOM      6  C   UNL     1      47.243   6.586  12.791  0.00  0.00    +0.000 A 
ENDROOT
BRANCH   4   7
ATOM      7  C   UNL     1      48.288   5.232  16.178  0.00  0.00    +0.000 C 
ATOM      8  N   UNL     1      48.268   6.286  17.052  0.00  0.00    +0.000 N 
ATOM      9  O   UNL     1      48.887   4.202  16.450  0.00  0.00    +0.000 OA
ATOM     10  H   UNL     1      47.997   7.219  16.780  0.00  0.00    +0.000 HD
ATOM     11  H   UNL     1      48.834   6.187  17.883  0.00  0.00    +0.000 HD
ENDBRANCH   4   7
BRANCH   1  12
ATOM     12  O   UNL     1      45.490   5.756  11.286  0.00  0.00    +0.000 OA
BRANCH  12  14
ATOM     13  C   UNL     1      43.212   5.135  10.745  0.00  0.00    +0.000 C 
ATOM     14  C   UNL     1      44.637   4.640  10.989  0.00  0.00    +0.000 C 
BRANCH  14  15
ATOM     15  C   UNL     1      45.166   3.890   9.777  0.00  0.00    +0.000 A 
ATOM     16  C   UNL     1      45.741   4.621   8.720  0.00  0.00    +0.000 A 
ATOM     17  C   UNL     1      46.237   3.969   7.593  0.00  0.00    +0.000 A 
ATOM     18  C   UNL     1      46.165   2.584   7.518  0.00  0.00    +0.000 A 
ATOM     19  F   UNL     1      46.640   1.959   6.434  0.00  0.00    +0.000 F 
ATOM     20  C   UNL     1      45.608   1.840   8.552  0.00  0.00    +0.000 A 
ATOM     21  C   UNL     1      45.111   2.491   9.684  0.00  0.00    +0.000 A 
ENDBRANCH  14  15
ENDBRANCH  12  14
ENDBRANCH   1  12
TORSDOF 4
ENDMDL
MODEL 4
REMARK VINA RESULT:    -6.448      3.814      6.353
REMARK INTER + INTRA:          -8.686
REMARK INTER:                  -8.073
REMARK INTRA:                  -0.613
REMARK UNBOUND:                -0.730
REMARK  Name = 
REMARK  5 active torsions:
REMARK  status: ('A' for Active; 'I' for Inactive)
REMARK    1  A    between atoms: C_1  and  C_2
REMARK    2  A    between atoms: C_2  and  O_3
REMARK    3  A    between atoms: C_2  and  C_13
REMARK    4  A    between atoms: O_3  and  C_4
REMARK    5  A    between atoms: C_7  and  C_8
REMARK                            x       y       z     vdW  Elec       q    Type
REMARK                         _______ _______ _______ _____ _____    ______ ____
ROOT
ATOM      1  C   UNL     1      45.572   5.005  11.171  0.00  0.00    +0.000 A 
ATOM      2  C   UNL     1      45.741   4.440  12.439  0.00  0.00    +0.000 A 
ATOM      3  C   UNL     1      46.520   5.083  13.404  0.00  0.00    +0.000 A 
ATOM      4  C   UNL     1      47.152   6.295  13.102  0.00  0.00    +0.000 A 
ATOM      5  C   UNL     1      46.984   6.862  11.837  0.00  0.00    +0.000 A 
ATOM      6  C   UNL     1      46.215   6.207  10.872  0.00  0.00    +0.000 A 
ENDROOT
BRANCH   4   7
ATOM      7  C   UNL     1      47.980   6.954  14.146  0.00  0.00    +0.000 C 
ATOM      8  N   UNL     1      47.526   8.146  14.646  0.00  0.00    +0.000 N 
ATOM      9  O   UNL     1      49.038   6.476  14.527  0.00  0.00    +0.000 OA
ATOM     10  H   UNL     1      46.798   8.686  14.202  0.00  0.00    +0.000 HD
ATOM     11  H   UNL     1      48.149   8.631  15.277  0.00  0.00    +0.000 HD
ENDBRANCH   4   7
BRANCH   1  12
ATOM     12  O   UNL     1      44.777   4.299  10.309  0.00  0.00    +0.000 OA
BRANCH  12  14
ATOM     13  C   UNL     1      43.830   2.073  10.177  0.00  0.00    +0.000 C 
ATOM     14  C   UNL     1      45.100   2.917  10.092  0.00  0.00    +0.000 C 
BRANCH  14  15
ATOM     15  C   UNL     1      45.774   2.749   8.739  0.00  0.00    +0.000 A 
ATOM     16  C   UNL     1      45.947   3.879   7.918  0.00  0.00    +0.000 A 
ATOM     17  C   UNL     1      46.559   3.765   6.671  0.00  0.00    +0.000 A 
ATOM     18  C   UNL     1      47.007   2.522   6.241  0.00  0.00    +0.000 A 
ATOM     19  F   UNL     1      47.594   2.413   5.044  0.00  0.00    +0.000 F 
ATOM     20  C   UNL     1      46.854   1.393   7.038  0.00  0.00    +0.000 A 
ATOM     21  C   UNL     1      46.241   1.504   8.288  0.00  0.00    +0.000 A 
ENDBRANCH  14  15
ENDBRANCH  12  14
ENDBRANCH   1  12
TORSDOF 4
ENDMDL
MODEL 5
REMARK VINA RESULT:    -6.059      3.926      6.569
REMARK INTER + INTRA:          -8.206
REMARK INTER:                  -7.625
REMARK INTRA:                  -0.581
REMARK UNBOUND:                -0.730
REMARK  Name = 
REMARK  5 active torsions:
REMARK  status: ('A' for Active; 'I' for Inactive)
REMARK    1  A    between atoms: C_1  and  C_2
REMARK    2  A    between atoms: C_2  and  O_3
REMARK    3  A    between atoms: C_2  and  C_13
REMARK    4  A    between atoms: O_3  and  C_4
REMARK    5  A    between atoms: C_7  and  C_8
REMARK                            x       y       z     vdW  Elec       q    Type
REMARK                         _______ _______ _______ _____ _____    ______ ____
ROOT
ATOM      1  C   UNL     1      45.128   6.251  11.531  0.00  0.00    +0.000 A 
ATOM      2  C   UNL     1      44.748   7.594  11.473  0.00  0.00    +0.000 A 
ATOM      3  C   UNL     1      45.543   8.583  12.058  0.00  0.00    +0.000 A 
ATOM      4  C   UNL     1      46.724   8.232  12.723  0.00  0.00    +0.000 A 
ATOM      5  C   UNL     1      47.107   6.890  12.781  0.00  0.00    +0.000 A 
ATOM      6  C   UNL     1      46.301   5.905  12.206  0.00  0.00    +0.000 A 
ENDROOT
BRANCH   4   7
ATOM      7  C   UNL     1      47.548   9.303  13.341  0.00  0.00    +0.000 C 
ATOM      8  N   UNL     1      47.327  10.587  12.918  0.00  0.00    +0.000 N 
ATOM      9  O   UNL     1      48.409   9.055  14.172  0.00  0.00    +0.000 OA
ATOM     10  H   UNL     1      46.805  10.807  12.082  0.00  0.00    +0.000 HD
ATOM     11  H   UNL     1      47.962  11.288  13.271  0.00  0.00    +0.000 HD
ENDBRANCH   4   7
BRANCH   1  12
ATOM     12  O   UNL     1      44.285   5.368  10.912  0.00  0.00    +0.000 OA
BRANCH  12  14
ATOM     13  C   UNL     1      43.387   3.156  11.326  0.00  0.00    +0.000 C 
ATOM     14  C   UNL     1      44.627   3.975  10.970  0.00  0.00    +0.000 C 
BRANCH  14  15
ATOM     15  C   UNL     1      45.209   3.528   9.639  0.00  0.00    +0.000 A 
ATOM     16  C   UNL     1      45.287   2.152   9.355  0.00  0.00    +0.000 A 
ATOM     17  C   UNL     1      45.815   1.704   8.146  0.00  0.00    +0.000 A 
ATOM     18  C   UNL     1      46.263   2.629   7.212  0.00  0.00    +0.000 A 
ATOM     19  F   UNL     1      46.771   2.197   6.051  0.00  0.00    +0.000 F 
ATOM     20  C   UNL     1      46.190   3.994   7.466  0.00  0.00    +0.000 A 
ATOM     21  C   UNL     1      45.662   4.446   8.677  0.00  0.00    +0.000 A 
ENDBRANCH  14  15
ENDBRANCH  12  14
ENDBRANCH   1  12
TORSDOF 4
ENDMDL
MODEL 6
REMARK VINA RESULT:    -5.995      2.392      2.976
REMARK INTER + INTRA:          -8.127
REMARK INTER:                  -7.510
REMARK INTRA:                  -0.617
REMARK UNBOUND:                -0.730
REMARK  Name = 
REMARK  5 active torsions:
REMARK  status: ('A' for Active; 'I' for Inactive)
REMARK    1  A    between atoms: C_1  and  C_2
REMARK    2  A    between atoms: C_2  and  O_3
REMARK    3  A    between atoms: C_2  and  C_13
REMARK    4  A    between atoms: O_3  and  C_4
REMARK    5  A    between atoms: C_7  and  C_8
REMARK                            x       y       z     vdW  Elec       q    Type
REMARK                         _______ _______ _______ _____ _____    ______ ____
ROOT
ATOM      1  C   UNL     1      45.063   4.228  10.162  0.00  0.00    +0.000 A 
ATOM      2  C   UNL     1      45.745   5.025   9.239  0.00  0.00    +0.000 A 
ATOM      3  C   UNL     1      46.313   4.457   8.095  0.00  0.00    +0.000 A 
ATOM      4  C   UNL     1      46.214   3.079   7.872  0.00  0.00    +0.000 A 
ATOM      5  C   UNL     1      45.531   2.281   8.793  0.00  0.00    +0.000 A 
ATOM      6  C   UNL     1      44.978   2.852   9.942  0.00  0.00    +0.000 A 
ENDROOT
BRANCH   4   7
ATOM      7  C   UNL     1      46.832   2.501   6.650  0.00  0.00    +0.000 C 
ATOM      8  N   UNL     1      47.862   1.616   6.827  0.00  0.00    +0.000 N 
ATOM      9  O   UNL     1      46.463   2.820   5.529  0.00  0.00    +0.000 OA
ATOM     10  H   UNL     1      48.348   1.507   7.705  0.00  0.00    +0.000 HD
ATOM     11  H   UNL     1      48.338   1.313   5.989  0.00  0.00    +0.000 HD
ENDBRANCH   4   7
BRANCH   1  12
ATOM     12  O   UNL     1      44.533   4.888  11.239  0.00  0.00    +0.000 OA
BRANCH  12  14
ATOM     13  C   UNL     1      42.270   5.579  11.758  0.00  0.00    +0.000 C 
ATOM     14  C   UNL     1      43.544   5.894  10.975  0.00  0.00    +0.000 C 
BRANCH  14  15
ATOM     15  C   UNL     1      44.086   7.264  11.349  0.00  0.00    +0.000 A 
ATOM     16  C   UNL     1      43.546   8.405  10.726  0.00  0.00    +0.000 A 
ATOM     17  C   UNL     1      44.018   9.678  11.043  0.00  0.00    +0.000 A 
ATOM     18  C   UNL     1      45.028   9.817  11.986  0.00  0.00    +0.000 A 
ATOM     19  F   UNL     1      45.480  11.040  12.288  0.00  0.00    +0.000 F 
ATOM     20  C   UNL     1      45.571   8.706  12.620  0.00  0.00    +0.000 A 
ATOM     21  C   UNL     1      45.101   7.429  12.305  0.00  0.00    +0.000 A 
ENDBRANCH  14  15
ENDBRANCH  12  14
ENDBRANCH   1  12
TORSDOF 4
ENDMDL
MODEL 7
REMARK VINA RESULT:    -5.810      4.961      7.535
REMARK INTER + INTRA:          -7.899
REMARK INTER:                  -7.242
REMARK INTRA:                  -0.656
REMARK UNBOUND:                -0.730
REMARK  Name = 
REMARK  5 active torsions:
REMARK  status: ('A' for Active; 'I' for Inactive)
REMARK    1  A    between atoms: C_1  and  C_2
REMARK    2  A    between atoms: C_2  and  O_3
REMARK    3  A    between atoms: C_2  and  C_13
REMARK    4  A    between atoms: O_3  and  C_4
REMARK    5  A    between atoms: C_7  and  C_8
REMARK                            x       y       z     vdW  Elec       q    Type
REMARK                         _______ _______ _______ _____ _____    ______ ____
ROOT
ATOM      1  C   UNL     1      47.530   5.375  14.555  0.00  0.00    +0.000 A 
ATOM      2  C   UNL     1      48.372   6.218  15.284  0.00  0.00    +0.000 A 
ATOM      3  C   UNL     1      48.815   5.849  16.557  0.00  0.00    +0.000 A 
ATOM      4  C   UNL     1      48.404   4.635  17.119  0.00  0.00    +0.000 A 
ATOM      5  C   UNL     1      47.564   3.790  16.391  0.00  0.00    +0.000 A 
ATOM      6  C   UNL     1      47.113   4.171  15.124  0.00  0.00    +0.000 A 
ENDROOT
BRANCH   4   7
ATOM      7  C   UNL     1      48.886   4.270  18.477  0.00  0.00    +0.000 C 
ATOM      8  N   UNL     1      48.307   3.184  19.077  0.00  0.00    +0.000 N 
ATOM      9  O   UNL     1      49.741   4.925  19.054  0.00  0.00    +0.000 OA
ATOM     10  H   UNL     1      47.450   2.766  18.746  0.00  0.00    +0.000 HD
ATOM     11  H   UNL     1      48.571   3.012  20.037  0.00  0.00    +0.000 HD
ENDBRANCH   4   7
BRANCH   1  12
ATOM     12  O   UNL     1      47.169   5.827  13.313  0.00  0.00    +0.000 OA
BRANCH  12  14
ATOM     13  C   UNL     1      45.470   7.453  12.735  0.00  0.00    +0.000 C 
ATOM     14  C   UNL     1      45.767   5.988  13.051  0.00  0.00    +0.000 C 
BRANCH  14  15
ATOM     15  C   UNL     1      45.349   5.089  11.898  0.00  0.00    +0.000 A 
ATOM     16  C   UNL     1      45.568   5.526  10.578  0.00  0.00    +0.000 A 
ATOM     17  C   UNL     1      45.198   4.730   9.496  0.00  0.00    +0.000 A 
ATOM     18  C   UNL     1      44.611   3.492   9.727  0.00  0.00    +0.000 A 
ATOM     19  F   UNL     1      44.255   2.729   8.686  0.00  0.00    +0.000 F 
ATOM     20  C   UNL     1      44.391   3.036  11.022  0.00  0.00    +0.000 A 
ATOM     21  C   UNL     1      44.761   3.832  12.109  0.00  0.00    +0.000 A 
ENDBRANCH  14  15
ENDBRANCH  12  14
ENDBRANCH   1  12
TORSDOF 4
ENDMDL
MODEL 8
REMARK VINA RESULT:    -5.713      4.122      6.584
REMARK INTER + INTRA:          -7.778
REMARK INTER:                  -7.214
REMARK INTRA:                  -0.565
REMARK UNBOUND:                -0.730
REMARK  Name = 
REMARK  5 active torsions:
REMARK  status: ('A' for Active; 'I' for Inactive)
REMARK    1  A    between atoms: C_1  and  C_2
REMARK    2  A    between atoms: C_2  and  O_3
REMARK    3  A    between atoms: C_2  and  C_13
REMARK    4  A    between atoms: O_3  and  C_4
REMARK    5  A    between atoms: C_7  and  C_8
REMARK                            x       y       z     vdW  Elec       q    Type
REMARK                         _______ _______ _______ _____ _____    ______ ____
ROOT
ATOM      1  C   UNL     1      45.735   6.887  12.568  0.00  0.00    +0.000 A 
ATOM      2  C   UNL     1      46.572   5.913  13.118  0.00  0.00    +0.000 A 
ATOM      3  C   UNL     1      47.678   6.282  13.889  0.00  0.00    +0.000 A 
ATOM      4  C   UNL     1      47.964   7.635  14.104  0.00  0.00    +0.000 A 
ATOM      5  C   UNL     1      47.127   8.610  13.557  0.00  0.00    +0.000 A 
ATOM      6  C   UNL     1      46.031   8.235  12.775  0.00  0.00    +0.000 A 
ENDROOT
BRANCH   4   7
ATOM      7  C   UNL     1      49.150   7.998  14.924  0.00  0.00    +0.000 C 
ATOM      8  N   UNL     1      49.917   6.972  15.405  0.00  0.00    +0.000 N 
ATOM      9  O   UNL     1      49.418   9.161  15.188  0.00  0.00    +0.000 OA
ATOM     10  H   UNL     1      49.608   6.011  15.413  0.00  0.00    +0.000 HD
ATOM     11  H   UNL     1      50.657   7.229  16.043  0.00  0.00    +0.000 HD
ENDBRANCH   4   7
BRANCH   1  12
ATOM     12  O   UNL     1      44.673   6.415  11.843  0.00  0.00    +0.000 OA
BRANCH  12  14
ATOM     13  C   UNL     1      43.021   4.686  12.225  0.00  0.00    +0.000 C 
ATOM     14  C   UNL     1      44.463   4.995  11.827  0.00  0.00    +0.000 C 
BRANCH  14  15
ATOM     15  C   UNL     1      44.775   4.441  10.446  0.00  0.00    +0.000 A 
ATOM     16  C   UNL     1      45.605   5.183   9.585  0.00  0.00    +0.000 A 
ATOM     17  C   UNL     1      45.914   4.708   8.312  0.00  0.00    +0.000 A 
ATOM     18  C   UNL     1      45.398   3.487   7.894  0.00  0.00    +0.000 A 
ATOM     19  F   UNL     1      45.694   3.033   6.670  0.00  0.00    +0.000 F 
ATOM     20  C   UNL     1      44.582   2.733   8.729  0.00  0.00    +0.000 A 
ATOM     21  C   UNL     1      44.271   3.206  10.006  0.00  0.00    +0.000 A 
ENDBRANCH  14  15
ENDBRANCH  12  14
ENDBRANCH   1  12
TORSDOF 4
ENDMDL
MODEL 9
REMARK VINA RESULT:    -5.599      3.062      4.637
REMARK INTER + INTRA:          -7.639
REMARK INTER:                  -6.989
REMARK INTRA:                  -0.650
REMARK UNBOUND:                -0.730
REMARK  Name = 
REMARK  5 active torsions:
REMARK  status: ('A' for Active; 'I' for Inactive)
REMARK    1  A    between atoms: C_1  and  C_2
REMARK    2  A    between atoms: C_2  and  O_3
REMARK    3  A    between atoms: C_2  and  C_13
REMARK    4  A    between atoms: O_3  and  C_4
REMARK    5  A    between atoms: C_7  and  C_8
REMARK                            x       y       z     vdW  Elec       q    Type
REMARK                         _______ _______ _______ _____ _____    ______ ____
ROOT
ATOM      1  C   UNL     1      45.925   5.281  12.532  0.00  0.00    +0.000 A 
ATOM      2  C   UNL     1      45.492   3.957  12.642  0.00  0.00    +0.000 A 
ATOM      3  C   UNL     1      45.086   3.247  11.508  0.00  0.00    +0.000 A 
ATOM      4  C   UNL     1      45.097   3.865  10.252  0.00  0.00    +0.000 A 
ATOM      5  C   UNL     1      45.531   5.188  10.140  0.00  0.00    +0.000 A 
ATOM      6  C   UNL     1      45.922   5.897  11.279  0.00  0.00    +0.000 A 
ENDROOT
BRANCH   4   7
ATOM      7  C   UNL     1      44.655   3.088   9.064  0.00  0.00    +0.000 C 
ATOM      8  N   UNL     1      44.542   1.731   9.210  0.00  0.00    +0.000 N 
ATOM      9  O   UNL     1      44.429   3.625   7.990  0.00  0.00    +0.000 OA
ATOM     10  H   UNL     1      44.937   1.227   9.990  0.00  0.00    +0.000 HD
ATOM     11  H   UNL     1      44.341   1.208   8.369  0.00  0.00    +0.000 HD
ENDBRANCH   4   7
BRANCH   1  12
ATOM     12  O   UNL     1      46.314   5.877  13.702  0.00  0.00    +0.000 OA
BRANCH  12  14
ATOM     13  C   UNL     1      48.321   7.222  13.879  0.00  0.00    +0.000 C 
ATOM     14  C   UNL     1      47.709   5.830  14.035  0.00  0.00    +0.000 C 
BRANCH  14  15
ATOM     15  C   UNL     1      47.886   5.315  15.454  0.00  0.00    +0.000 A 
ATOM     16  C   UNL     1      47.257   4.113  15.827  0.00  0.00    +0.000 A 
ATOM     17  C   UNL     1      47.395   3.609  17.119  0.00  0.00    +0.000 A 
ATOM     18  C   UNL     1      48.165   4.302  18.044  0.00  0.00    +0.000 A 
ATOM     19  F   UNL     1      48.296   3.818  19.285  0.00  0.00    +0.000 F 
ATOM     20  C   UNL     1      48.803   5.488  17.697  0.00  0.00    +0.000 A 
ATOM     21  C   UNL     1      48.666   5.996  16.403  0.00  0.00    +0.000 A 
ENDBRANCH  14  15
ENDBRANCH  12  14
ENDBRANCH   1  12
TORSDOF 4
ENDMDL
