MODEL 1
REMARK VINA RESULT:    -7.339      0.000      0.000
REMARK INTER + INTRA:         -11.778
REMARK INTER:                 -10.771
REMARK INTRA:                  -1.007
REMARK UNBOUND:                -1.007
REMARK  Name = 
REMARK  9 active torsions:
REMARK  status: ('A' for Active; 'I' for Inactive)
REMARK    1  A    between atoms: C_2  and  C_17
REMARK    2  A    between atoms: N_3  and  C_4
REMARK    3  A    between atoms: C_4  and  C_5
REMARK    4  A    between atoms: N_8  and  C_9
REMARK    5  A    between atoms: C_9  and  C_10
REMARK    6  A    between atoms: C_10  and  C_11
REMARK    7  A    between atoms: C_11  and  O_12
REMARK    8  A    between atoms: C_14  and  C_15
REMARK    9  A    between atoms: C_15  and  O_16
REMARK                            x       y       z     vdW  Elec       q    Type
REMARK                         _______ _______ _______ _____ _____    ______ ____
ROOT
ATOM      1  O   UNL     1      48.918   6.264  13.251  0.00  0.00    +0.000 OA
ATOM      2  C   UNL     1      48.104   6.221  14.170  0.00  0.00    +0.000 C 
ATOM      3  N   UNL     1      46.756   6.115  13.963  0.00  0.00    +0.000 N 
ATOM      4  H   UNL     1      46.137   6.291  14.747  0.00  0.00    +0.000 HD
ENDROOT
BRANCH   2   5
ATOM      5  C   UNL     1      48.523   6.205  15.577  0.00  0.00    +0.000 A 
ATOM      6  C   UNL     1      49.097   7.328  16.154  0.00  0.00    +0.000 A 
ATOM      7  S   UNL     1      49.554   7.095  17.783  0.00  0.00    +0.000 S 
ATOM      8  C   UNL     1      48.966   5.498  17.781  0.00  0.00    +0.000 A 
ATOM      9  N   UNL     1      49.038   4.718  18.895  0.00  0.00    +0.000 NA
ATOM     10  C   UNL     1      48.527   3.544  18.757  0.00  0.00    +0.000 A 
ATOM     11  N   UNL     1      47.956   3.067  17.611  0.00  0.00    +0.000 N 
ATOM     12  C   UNL     1      47.909   3.794  16.447  0.00  0.00    +0.000 A 
ATOM     13  O   UNL     1      47.477   3.307  15.409  0.00  0.00    +0.000 OA
ATOM     14  C   UNL     1      48.447   5.140  16.551  0.00  0.00    +0.000 A 
ATOM     15  H   UNL     1      47.594   2.126  17.556  0.00  0.00    +0.000 HD
ENDBRANCH   2   5
BRANCH   3  16
ATOM     16  C   UNL     1      46.127   6.109  12.663  0.00  0.00    +0.000 C 
BRANCH  16  17
ATOM     17  C   UNL     1      44.719   5.489  12.763  0.00  0.00    +0.000 C 
ATOM     18  C   UNL     1      44.788   3.972  12.989  0.00  0.00    +0.000 C 
ATOM     19  C   UNL     1      45.226   3.220  11.736  0.00  0.00    +0.000 C 
ATOM     20  N   UNL     1      44.355   3.530  10.592  0.00  0.00    +0.000 NA
ATOM     21  C   UNL     1      44.367   4.973  10.296  0.00  0.00    +0.000 C 
ATOM     22  C   UNL     1      43.869   5.796  11.506  0.00  0.00    +0.000 C 
BRANCH  20  23
ATOM     23  C   UNL     1      44.711   2.730   9.409  0.00  0.00    +0.000 C 
BRANCH  23  24
ATOM     24  C   UNL     1      44.995   3.579   8.160  0.00  0.00    +0.000 C 
BRANCH  24  25
ATOM     25  C   UNL     1      46.267   3.160   7.430  0.00  0.00    +0.000 C 
BRANCH  25  26
ATOM     26  O   UNL     1      46.795   4.267   6.707  0.00  0.00    +0.000 OA
ATOM     27  H   UNL     1      47.690   4.439   7.043  0.00  0.00    +0.000 HD
ENDBRANCH  25  26
ENDBRANCH  24  25
ENDBRANCH  23  24
ENDBRANCH  20  23
BRANCH  22  28
ATOM     28  C   UNL     1      42.366   5.535  11.742  0.00  0.00    +0.000 C 
BRANCH  28  29
ATOM     29  O   UNL     1      41.589   6.730  11.746  0.00  0.00    +0.000 OA
ATOM     30  H   UNL     1      42.031   7.404  11.206  0.00  0.00    +0.000 HD
ENDBRANCH  28  29
ENDBRANCH  22  28
ENDBRANCH  16  17
ENDBRANCH   3  16
TORSDOF 9
ENDMDL
MODEL 2
REMARK VINA RESULT:    -7.169      1.521      2.557
REMARK INTER + INTRA:         -11.528
REMARK INTER:                 -10.336
REMARK INTRA:                  -1.193
REMARK UNBOUND:                -1.007
REMARK  Name = 
REMARK  9 active torsions:
REMARK  status: ('A' for Active; 'I' for Inactive)
REMARK    1  A    between atoms: C_2  and  C_17
REMARK    2  A    between atoms: N_3  and  C_4
REMARK    3  A    between atoms: C_4  and  C_5
REMARK    4  A    between atoms: N_8  and  C_9
REMARK    5  A    between atoms: C_9  and  C_10
REMARK    6  A    between atoms: C_10  and  C_11
REMARK    7  A    between atoms: C_11  and  O_12
REMARK    8  A    between atoms: C_14  and  C_15
REMARK    9  A    between atoms: C_15  and  O_16
REMARK                            x       y       z     vdW  Elec       q    Type
REMARK                         _______ _______ _______ _____ _____    ______ ____
ROOT
ATOM      1  O   UNL     1      47.885   2.699  15.141  0.00  0.00    +0.000 OA
ATOM      2  C   UNL     1      47.430   3.837  15.227  0.00  0.00    +0.000 C 
ATOM      3  N   UNL     1      46.526   4.344  14.335  0.00  0.00    +0.000 N 
ATOM      4  H   UNL     1      46.354   5.344  14.345  0.00  0.00    +0.000 HD
ENDROOT
BRANCH   2   5
ATOM      5  C   UNL     1      47.769   4.726  16.346  0.00  0.00    +0.000 A 
ATOM      6  C   UNL     1      47.396   4.400  17.642  0.00  0.00    +0.000 A 
ATOM      7  S   UNL     1      47.844   5.580  18.792  0.00  0.00    +0.000 S 
ATOM      8  C   UNL     1      48.584   6.546  17.602  0.00  0.00    +0.000 A 
ATOM      9  N   UNL     1      49.188   7.723  17.922  0.00  0.00    +0.000 NA
ATOM     10  C   UNL     1      49.732   8.331  16.926  0.00  0.00    +0.000 A 
ATOM     11  N   UNL     1      49.725   7.884  15.635  0.00  0.00    +0.000 N 
ATOM     12  C   UNL     1      49.083   6.732  15.253  0.00  0.00    +0.000 A 
ATOM     13  O   UNL     1      49.011   6.404  14.074  0.00  0.00    +0.000 OA
ATOM     14  C   UNL     1      48.473   5.987  16.342  0.00  0.00    +0.000 A 
ATOM     15  H   UNL     1      50.147   8.419  14.891  0.00  0.00    +0.000 HD
ENDBRANCH   2   5
BRANCH   3  16
ATOM     16  C   UNL     1      46.053   3.643  13.164  0.00  0.00    +0.000 C 
BRANCH  16  17
ATOM     17  C   UNL     1      44.617   4.094  12.827  0.00  0.00    +0.000 C 
ATOM     18  C   UNL     1      43.863   3.018  12.032  0.00  0.00    +0.000 C 
ATOM     19  C   UNL     1      44.358   2.907  10.594  0.00  0.00    +0.000 C 
ATOM     20  N   UNL     1      44.286   4.204   9.900  0.00  0.00    +0.000 NA
ATOM     21  C   UNL     1      45.098   5.218  10.595  0.00  0.00    +0.000 C 
ATOM     22  C   UNL     1      44.607   5.430  12.045  0.00  0.00    +0.000 C 
BRANCH  20  23
ATOM     23  C   UNL     1      44.667   4.081   8.484  0.00  0.00    +0.000 C 
BRANCH  23  24
ATOM     24  C   UNL     1      45.516   2.836   8.186  0.00  0.00    +0.000 C 
BRANCH  24  25
ATOM     25  C   UNL     1      46.642   3.105   7.192  0.00  0.00    +0.000 C 
BRANCH  25  26
ATOM     26  O   UNL     1      46.984   4.487   7.214  0.00  0.00    +0.000 OA
ATOM     27  H   UNL     1      46.990   4.803   6.295  0.00  0.00    +0.000 HD
ENDBRANCH  25  26
ENDBRANCH  24  25
ENDBRANCH  23  24
ENDBRANCH  20  23
BRANCH  22  28
ATOM     28  C   UNL     1      43.211   6.090  12.041  0.00  0.00    +0.000 C 
BRANCH  28  29
ATOM     29  O   UNL     1      43.027   6.992  10.952  0.00  0.00    +0.000 OA
ATOM     30  H   UNL     1      43.837   7.509  10.820  0.00  0.00    +0.000 HD
ENDBRANCH  28  29
ENDBRANCH  22  28
ENDBRANCH  16  17
ENDBRANCH   3  16
TORSDOF 9
ENDMDL
MODEL 3
REMARK VINA RESULT:    -7.076      3.093      4.510
REMARK INTER + INTRA:         -11.393
REMARK INTER:                 -10.304
REMARK INTRA:                  -1.089
REMARK UNBOUND:                -1.007
REMARK  Name = 
REMARK  9 active torsions:
REMARK  status: ('A' for Active; 'I' for Inactive)
REMARK    1  A    between atoms: C_2  and  C_17
REMARK    2  A    between atoms: N_3  and  C_4
REMARK    3  A    between atoms: C_4  and  C_5
REMARK    4  A    between atoms: N_8  and  C_9
REMARK    5  A    between atoms: C_9  and  C_10
REMARK    6  A    between atoms: C_10  and  C_11
REMARK    7  A    between atoms: C_11  and  O_12
REMARK    8  A    between atoms: C_14  and  C_15
REMARK    9  A    between atoms: C_15  and  O_16
REMARK                            x       y       z     vdW  Elec       q    Type
REMARK                         _______ _______ _______ _____ _____    ______ ____
ROOT
ATOM      1  O   UNL     1      48.089   5.566  14.339  0.00  0.00    +0.000 OA
ATOM      2  C   UNL     1      47.701   6.030  13.270  0.00  0.00    +0.000 C 
ATOM      3  N   UNL     1      46.655   5.499  12.567  0.00  0.00    +0.000 N 
ATOM      4  H   UNL     1      46.523   5.799  11.607  0.00  0.00    +0.000 HD
ENDROOT
BRANCH   2   5
ATOM      5  C   UNL     1      48.288   7.246  12.693  0.00  0.00    +0.000 A 
ATOM      6  C   UNL     1      49.620   7.269  12.305  0.00  0.00    +0.000 A 
ATOM      7  S   UNL     1      50.123   8.785  11.700  0.00  0.00    +0.000 S 
ATOM      8  C   UNL     1      48.568   9.448  11.902  0.00  0.00    +0.000 A 
ATOM      9  N   UNL     1      48.300  10.737  11.558  0.00  0.00    +0.000 NA
ATOM     10  C   UNL     1      47.076  11.093  11.737  0.00  0.00    +0.000 A 
ATOM     11  N   UNL     1      46.090  10.289  12.235  0.00  0.00    +0.000 N 
ATOM     12  C   UNL     1      46.322   9.000  12.646  0.00  0.00    +0.000 A 
ATOM     13  O   UNL     1      45.441   8.332  13.177  0.00  0.00    +0.000 OA
ATOM     14  C   UNL     1      47.683   8.533  12.442  0.00  0.00    +0.000 A 
ATOM     15  H   UNL     1      45.152  10.633  12.376  0.00  0.00    +0.000 HD
ENDBRANCH   2   5
BRANCH   3  16
ATOM     16  C   UNL     1      45.932   4.309  12.952  0.00  0.00    +0.000 C 
BRANCH  16  17
ATOM     17  C   UNL     1      44.450   4.440  12.545  0.00  0.00    +0.000 C 
ATOM     18  C   UNL     1      43.900   3.116  11.997  0.00  0.00    +0.000 C 
ATOM     19  C   UNL     1      44.440   2.796  10.606  0.00  0.00    +0.000 C 
ATOM     20  N   UNL     1      44.174   3.894   9.662  0.00  0.00    +0.000 NA
ATOM     21  C   UNL     1      44.793   5.148  10.125  0.00  0.00    +0.000 C 
ATOM     22  C   UNL     1      44.241   5.568  11.506  0.00  0.00    +0.000 C 
BRANCH  20  23
ATOM     23  C   UNL     1      44.602   3.549   8.298  0.00  0.00    +0.000 C 
BRANCH  23  24
ATOM     24  C   UNL     1      45.778   2.561   8.258  0.00  0.00    +0.000 C 
BRANCH  24  25
ATOM     25  C   UNL     1      46.868   2.970   7.272  0.00  0.00    +0.000 C 
BRANCH  25  26
ATOM     26  O   UNL     1      46.857   4.384   7.100  0.00  0.00    +0.000 OA
ATOM     27  H   UNL     1      46.011   4.716   7.443  0.00  0.00    +0.000 HD
ENDBRANCH  25  26
ENDBRANCH  24  25
ENDBRANCH  23  24
ENDBRANCH  20  23
BRANCH  22  28
ATOM     28  C   UNL     1      42.757   5.976  11.382  0.00  0.00    +0.000 C 
BRANCH  28  29
ATOM     29  O   UNL     1      42.583   7.365  11.116  0.00  0.00    +0.000 OA
ATOM     30  H   UNL     1      43.046   7.597  10.295  0.00  0.00    +0.000 HD
ENDBRANCH  28  29
ENDBRANCH  22  28
ENDBRANCH  16  17
ENDBRANCH   3  16
TORSDOF 9
ENDMDL
MODEL 4
REMARK VINA RESULT:    -7.017      3.046      7.470
REMARK INTER + INTRA:         -11.305
REMARK INTER:                 -10.314
REMARK INTRA:                  -0.992
REMARK UNBOUND:                -1.007
REMARK  Name = 
REMARK  9 active torsions:
REMARK  status: ('A' for Active; 'I' for Inactive)
REMARK    1  A    between atoms: C_2  and  C_17
REMARK    2  A    between atoms: N_3  and  C_4
REMARK    3  A    between atoms: C_4  and  C_5
REMARK    4  A    between atoms: N_8  and  C_9
REMARK    5  A    between atoms: C_9  and  C_10
REMARK    6  A    between atoms: C_10  and  C_11
REMARK    7  A    between atoms: C_11  and  O_12
REMARK    8  A    between atoms: C_14  and  C_15
REMARK    9  A    between atoms: C_15  and  O_16
REMARK                            x       y       z     vdW  Elec       q    Type
REMARK                         _______ _______ _______ _____ _____    ______ ____
ROOT
ATOM      1  O   UNL     1      49.015   6.373  12.875  0.00  0.00    +0.000 OA
ATOM      2  C   UNL     1      47.960   6.308  13.500  0.00  0.00    +0.000 C 
ATOM      3  N   UNL     1      47.896   6.411  14.862  0.00  0.00    +0.000 N 
ATOM      4  H   UNL     1      47.033   6.144  15.322  0.00  0.00    +0.000 HD
ENDROOT
BRANCH   2   5
ATOM      5  C   UNL     1      46.662   6.188  12.822  0.00  0.00    +0.000 A 
ATOM      6  C   UNL     1      46.052   7.303  12.267  0.00  0.00    +0.000 A 
ATOM      7  S   UNL     1      44.533   6.964  11.564  0.00  0.00    +0.000 S 
ATOM      8  C   UNL     1      44.659   5.310  11.946  0.00  0.00    +0.000 A 
ATOM      9  N   UNL     1      43.677   4.430  11.606  0.00  0.00    +0.000 NA
ATOM     10  C   UNL     1      43.921   3.208  11.931  0.00  0.00    +0.000 A 
ATOM     11  N   UNL     1      45.049   2.777  12.571  0.00  0.00    +0.000 N 
ATOM     12  C   UNL     1      46.041   3.632  12.982  0.00  0.00    +0.000 A 
ATOM     13  O   UNL     1      46.996   3.231  13.638  0.00  0.00    +0.000 OA
ATOM     14  C   UNL     1      45.833   5.023  12.618  0.00  0.00    +0.000 A 
ATOM     15  H   UNL     1      45.173   1.807  12.822  0.00  0.00    +0.000 HD
ENDBRANCH   2   5
BRANCH   3  16
ATOM     16  C   UNL     1      49.047   6.537  15.726  0.00  0.00    +0.000 C 
BRANCH  16  17
ATOM     17  C   UNL     1      48.693   6.056  17.147  0.00  0.00    +0.000 C 
ATOM     18  C   UNL     1      49.955   5.797  17.983  0.00  0.00    +0.000 C 
ATOM     19  C   UNL     1      50.690   4.534  17.545  0.00  0.00    +0.000 C 
ATOM     20  N   UNL     1      49.803   3.360  17.575  0.00  0.00    +0.000 NA
ATOM     21  C   UNL     1      48.642   3.554  16.688  0.00  0.00    +0.000 C 
ATOM     22  C   UNL     1      47.811   4.785  17.117  0.00  0.00    +0.000 C 
BRANCH  20  23
ATOM     23  C   UNL     1      50.532   2.123  17.250  0.00  0.00    +0.000 C 
BRANCH  23  24
ATOM     24  C   UNL     1      52.033   2.199  17.568  0.00  0.00    +0.000 C 
BRANCH  24  25
ATOM     25  C   UNL     1      52.649   0.835  17.865  0.00  0.00    +0.000 C 
BRANCH  25  26
ATOM     26  O   UNL     1      51.633  -0.076  18.271  0.00  0.00    +0.000 OA
ATOM     27  H   UNL     1      50.817   0.165  17.802  0.00  0.00    +0.000 HD
ENDBRANCH  25  26
ENDBRANCH  24  25
ENDBRANCH  23  24
ENDBRANCH  20  23
BRANCH  22  28
ATOM     28  C   UNL     1      47.129   4.517  18.476  0.00  0.00    +0.000 C 
BRANCH  28  29
ATOM     29  O   UNL     1      46.240   5.560  18.866  0.00  0.00    +0.000 OA
ATOM     30  H   UNL     1      45.408   5.174  19.184  0.00  0.00    +0.000 HD
ENDBRANCH  28  29
ENDBRANCH  22  28
ENDBRANCH  16  17
ENDBRANCH   3  16
TORSDOF 9
ENDMDL
MODEL 5
REMARK VINA RESULT:    -6.690      2.090      2.526
REMARK INTER + INTRA:         -10.826
REMARK INTER:                  -9.776
REMARK INTRA:                  -1.049
REMARK UNBOUND:                -1.007
REMARK  Name = 
REMARK  9 active torsions:
REMARK  status: ('A' for Active; 'I' for Inactive)
REMARK    1  A    between atoms: C_2  and  C_17
REMARK    2  A    between atoms: N_3  and  C_4
REMARK    3  A    between atoms: C_4  and  C_5
REMARK    4  A    between atoms: N_8  and  C_9
REMARK    5  A    between atoms: C_9  and  C_10
REMARK    6  A    between atoms: C_10  and  C_11
REMARK    7  A    between atoms: C_11  and  O_12
REMARK    8  A    between atoms: C_14  and  C_15
REMARK    9  A    between atoms: C_15  and  O_16
REMARK                            x       y       z     vdW  Elec       q    Type
REMARK                         _______ _______ _______ _____ _____    ______ ____
ROOT
ATOM      1  O   UNL     1      46.564   3.358  16.481  0.00  0.00    +0.000 OA
ATOM      2  C   UNL     1      47.465   4.081  16.064  0.00  0.00    +0.000 C 
ATOM      3  N   UNL     1      47.534   4.507  14.766  0.00  0.00    +0.000 N 
ATOM      4  H   UNL     1      48.401   4.924  14.445  0.00  0.00    +0.000 HD
ENDROOT
BRANCH   2   5
ATOM      5  C   UNL     1      48.509   4.611  16.951  0.00  0.00    +0.000 A 
ATOM      6  C   UNL     1      48.393   5.881  17.496  0.00  0.00    +0.000 A 
ATOM      7  S   UNL     1      49.727   6.328  18.463  0.00  0.00    +0.000 S 
ATOM      8  C   UNL     1      50.486   4.825  18.215  0.00  0.00    +0.000 A 
ATOM      9  N   UNL     1      51.688   4.538  18.786  0.00  0.00    +0.000 NA
ATOM     10  C   UNL     1      52.127   3.353  18.537  0.00  0.00    +0.000 A 
ATOM     11  N   UNL     1      51.487   2.426  17.764  0.00  0.00    +0.000 N 
ATOM     12  C   UNL     1      50.302   2.686  17.122  0.00  0.00    +0.000 A 
ATOM     13  O   UNL     1      49.798   1.870  16.359  0.00  0.00    +0.000 OA
ATOM     14  C   UNL     1      49.743   4.001  17.390  0.00  0.00    +0.000 A 
ATOM     15  H   UNL     1      51.895   1.521  17.583  0.00  0.00    +0.000 HD
ENDBRANCH   2   5
BRANCH   3  16
ATOM     16  C   UNL     1      46.612   4.113  13.727  0.00  0.00    +0.000 C 
BRANCH  16  17
ATOM     17  C   UNL     1      45.596   5.244  13.469  0.00  0.00    +0.000 C 
ATOM     18  C   UNL     1      44.179   4.690  13.263  0.00  0.00    +0.000 C 
ATOM     19  C   UNL     1      44.019   3.995  11.914  0.00  0.00    +0.000 C 
ATOM     20  N   UNL     1      44.389   4.888  10.804  0.00  0.00    +0.000 NA
ATOM     21  C   UNL     1      45.786   5.339  10.933  0.00  0.00    +0.000 C 
ATOM     22  C   UNL     1      46.004   6.112  12.253  0.00  0.00    +0.000 C 
BRANCH  20  23
ATOM     23  C   UNL     1      44.141   4.257   9.498  0.00  0.00    +0.000 C 
BRANCH  23  24
ATOM     24  C   UNL     1      44.507   2.765   9.461  0.00  0.00    +0.000 C 
BRANCH  24  25
ATOM     25  C   UNL     1      45.633   2.452   8.480  0.00  0.00    +0.000 C 
BRANCH  25  26
ATOM     26  O   UNL     1      45.926   1.058   8.511  0.00  0.00    +0.000 OA
ATOM     27  H   UNL     1      45.847   0.761   9.432  0.00  0.00    +0.000 HD
ENDBRANCH  25  26
ENDBRANCH  24  25
ENDBRANCH  23  24
ENDBRANCH  20  23
BRANCH  22  28
ATOM     28  C   UNL     1      45.241   7.453  12.215  0.00  0.00    +0.000 C 
BRANCH  28  29
ATOM     29  O   UNL     1      44.600   7.692  10.964  0.00  0.00    +0.000 OA
ATOM     30  H   UNL     1      44.869   8.560  10.624  0.00  0.00    +0.000 HD
ENDBRANCH  28  29
ENDBRANCH  22  28
ENDBRANCH  16  17
ENDBRANCH   3  16
TORSDOF 9
ENDMDL
MODEL 6
REMARK VINA RESULT:    -6.684      1.687      2.050
REMARK INTER + INTRA:         -10.818
REMARK INTER:                  -9.431
REMARK INTRA:                  -1.387
REMARK UNBOUND:                -1.007
REMARK  Name = 
REMARK  9 active torsions:
REMARK  status: ('A' for Active; 'I' for Inactive)
REMARK    1  A    between atoms: C_2  and  C_17
REMARK    2  A    between atoms: N_3  and  C_4
REMARK    3  A    between atoms: C_4  and  C_5
REMARK    4  A    between atoms: N_8  and  C_9
REMARK    5  A    between atoms: C_9  and  C_10
REMARK    6  A    between atoms: C_10  and  C_11
REMARK    7  A    between atoms: C_11  and  O_12
REMARK    8  A    between atoms: C_14  and  C_15
REMARK    9  A    between atoms: C_15  and  O_16
REMARK                            x       y       z     vdW  Elec       q    Type
REMARK                         _______ _______ _______ _____ _____    ______ ____
ROOT
ATOM      1  O   UNL     1      47.245   3.281  13.921  0.00  0.00    +0.000 OA
ATOM      2  C   UNL     1      46.851   4.299  14.485  0.00  0.00    +0.000 C 
ATOM      3  N   UNL     1      45.570   4.763  14.370  0.00  0.00    +0.000 N 
ATOM      4  H   UNL     1      45.372   5.705  14.687  0.00  0.00    +0.000 HD
ENDROOT
BRANCH   2   5
ATOM      5  C   UNL     1      47.713   5.065  15.394  0.00  0.00    +0.000 A 
ATOM      6  C   UNL     1      48.432   6.157  14.930  0.00  0.00    +0.000 A 
ATOM      7  S   UNL     1      49.406   6.886  16.128  0.00  0.00    +0.000 S 
ATOM      8  C   UNL     1      48.871   5.789  17.315  0.00  0.00    +0.000 A 
ATOM      9  N   UNL     1      49.317   5.864  18.599  0.00  0.00    +0.000 NA
ATOM     10  C   UNL     1      48.804   4.990  19.393  0.00  0.00    +0.000 A 
ATOM     11  N   UNL     1      47.892   4.040  19.030  0.00  0.00    +0.000 N 
ATOM     12  C   UNL     1      47.452   3.889  17.738  0.00  0.00    +0.000 A 
ATOM     13  O   UNL     1      46.707   2.969  17.422  0.00  0.00    +0.000 OA
ATOM     14  C   UNL     1      47.978   4.868  16.800  0.00  0.00    +0.000 A 
ATOM     15  H   UNL     1      47.544   3.364  19.694  0.00  0.00    +0.000 HD
ENDBRANCH   2   5
BRANCH   3  16
ATOM     16  C   UNL     1      44.557   4.163  13.533  0.00  0.00    +0.000 C 
BRANCH  16  17
ATOM     17  C   UNL     1      44.313   5.043  12.291  0.00  0.00    +0.000 C 
ATOM     18  C   UNL     1      43.094   4.561  11.491  0.00  0.00    +0.000 C 
ATOM     19  C   UNL     1      43.373   3.263  10.738  0.00  0.00    +0.000 C 
ATOM     20  N   UNL     1      44.546   3.394   9.859  0.00  0.00    +0.000 NA
ATOM     21  C   UNL     1      45.748   3.751  10.634  0.00  0.00    +0.000 C 
ATOM     22  C   UNL     1      45.559   5.095  11.373  0.00  0.00    +0.000 C 
BRANCH  20  23
ATOM     23  C   UNL     1      44.759   2.179   9.057  0.00  0.00    +0.000 C 
BRANCH  23  24
ATOM     24  C   UNL     1      46.047   2.216   8.221  0.00  0.00    +0.000 C 
BRANCH  24  25
ATOM     25  C   UNL     1      45.932   3.108   6.988  0.00  0.00    +0.000 C 
BRANCH  25  26
ATOM     26  O   UNL     1      46.853   4.190   7.088  0.00  0.00    +0.000 OA
ATOM     27  H   UNL     1      47.069   4.476   6.185  0.00  0.00    +0.000 HD
ENDBRANCH  25  26
ENDBRANCH  24  25
ENDBRANCH  23  24
ENDBRANCH  20  23
BRANCH  22  28
ATOM     28  C   UNL     1      45.484   6.253  10.356  0.00  0.00    +0.000 C 
BRANCH  28  29
ATOM     29  O   UNL     1      45.674   5.823   9.010  0.00  0.00    +0.000 OA
ATOM     30  H   UNL     1      46.556   5.430   8.918  0.00  0.00    +0.000 HD
ENDBRANCH  28  29
ENDBRANCH  22  28
ENDBRANCH  16  17
ENDBRANCH   3  16
TORSDOF 9
ENDMDL
MODEL 7
REMARK VINA RESULT:    -6.598      3.239      8.379
REMARK INTER + INTRA:         -10.691
REMARK INTER:                  -9.114
REMARK INTRA:                  -1.577
REMARK UNBOUND:                -1.007
REMARK  Name = 
REMARK  9 active torsions:
REMARK  status: ('A' for Active; 'I' for Inactive)
REMARK    1  A    between atoms: C_2  and  C_17
REMARK    2  A    between atoms: N_3  and  C_4
REMARK    3  A    between atoms: C_4  and  C_5
REMARK    4  A    between atoms: N_8  and  C_9
REMARK    5  A    between atoms: C_9  and  C_10
REMARK    6  A    between atoms: C_10  and  C_11
REMARK    7  A    between atoms: C_11  and  O_12
REMARK    8  A    between atoms: C_14  and  C_15
REMARK    9  A    between atoms: C_15  and  O_16
REMARK                            x       y       z     vdW  Elec       q    Type
REMARK                         _______ _______ _______ _____ _____    ______ ____
ROOT
ATOM      1  O   UNL     1      49.562   6.626  14.752  0.00  0.00    +0.000 OA
ATOM      2  C   UNL     1      48.403   6.258  14.927  0.00  0.00    +0.000 C 
ATOM      3  N   UNL     1      47.907   5.929  16.158  0.00  0.00    +0.000 N 
ATOM      4  H   UNL     1      47.018   5.442  16.200  0.00  0.00    +0.000 HD
ENDROOT
BRANCH   2   5
ATOM      5  C   UNL     1      47.429   6.213  13.829  0.00  0.00    +0.000 A 
ATOM      6  C   UNL     1      47.087   7.369  13.143  0.00  0.00    +0.000 A 
ATOM      7  S   UNL     1      45.909   7.115  11.933  0.00  0.00    +0.000 S 
ATOM      8  C   UNL     1      45.845   5.447  12.261  0.00  0.00    +0.000 A 
ATOM      9  N   UNL     1      45.025   4.619  11.557  0.00  0.00    +0.000 NA
ATOM     10  C   UNL     1      45.105   3.378  11.892  0.00  0.00    +0.000 A 
ATOM     11  N   UNL     1      45.918   2.881  12.871  0.00  0.00    +0.000 N 
ATOM     12  C   UNL     1      46.722   3.681  13.645  0.00  0.00    +0.000 A 
ATOM     13  O   UNL     1      47.370   3.221  14.578  0.00  0.00    +0.000 OA
ATOM     14  C   UNL     1      46.695   5.091  13.292  0.00  0.00    +0.000 A 
ATOM     15  H   UNL     1      45.918   1.900  13.106  0.00  0.00    +0.000 HD
ENDBRANCH   2   5
BRANCH   3  16
ATOM     16  C   UNL     1      48.686   5.907  17.374  0.00  0.00    +0.000 C 
BRANCH  16  17
ATOM     17  C   UNL     1      48.964   4.449  17.794  0.00  0.00    +0.000 C 
ATOM     18  C   UNL     1      49.121   4.324  19.316  0.00  0.00    +0.000 C 
ATOM     19  C   UNL     1      50.441   4.907  19.811  0.00  0.00    +0.000 C 
ATOM     20  N   UNL     1      51.590   4.296  19.123  0.00  0.00    +0.000 NA
ATOM     21  C   UNL     1      51.505   4.506  17.667  0.00  0.00    +0.000 C 
ATOM     22  C   UNL     1      50.217   3.880  17.086  0.00  0.00    +0.000 C 
BRANCH  20  23
ATOM     23  C   UNL     1      52.867   4.782  19.668  0.00  0.00    +0.000 C 
BRANCH  23  24
ATOM     24  C   UNL     1      54.078   4.436  18.788  0.00  0.00    +0.000 C 
BRANCH  24  25
ATOM     25  C   UNL     1      54.553   2.997  18.966  0.00  0.00    +0.000 C 
BRANCH  25  26
ATOM     26  O   UNL     1      53.505   2.208  19.520  0.00  0.00    +0.000 OA
ATOM     27  H   UNL     1      53.540   2.308  20.486  0.00  0.00    +0.000 HD
ENDBRANCH  25  26
ENDBRANCH  24  25
ENDBRANCH  23  24
ENDBRANCH  20  23
BRANCH  22  28
ATOM     28  C   UNL     1      50.288   2.340  17.179  0.00  0.00    +0.000 C 
BRANCH  28  29
ATOM     29  O   UNL     1      49.511   1.687  16.178  0.00  0.00    +0.000 OA
ATOM     30  H   UNL     1      50.047   1.572  15.377  0.00  0.00    +0.000 HD
ENDBRANCH  28  29
ENDBRANCH  22  28
ENDBRANCH  16  17
ENDBRANCH   3  16
TORSDOF 9
ENDMDL
MODEL 8
REMARK VINA RESULT:    -6.568      2.681      4.237
REMARK INTER + INTRA:         -10.647
REMARK INTER:                  -9.423
REMARK INTRA:                  -1.223
REMARK UNBOUND:                -1.007
REMARK  Name = 
REMARK  9 active torsions:
REMARK  status: ('A' for Active; 'I' for Inactive)
REMARK    1  A    between atoms: C_2  and  C_17
REMARK    2  A    between atoms: N_3  and  C_4
REMARK    3  A    between atoms: C_4  and  C_5
REMARK    4  A    between atoms: N_8  and  C_9
REMARK    5  A    between atoms: C_9  and  C_10
REMARK    6  A    between atoms: C_10  and  C_11
REMARK    7  A    between atoms: C_11  and  O_12
REMARK    8  A    between atoms: C_14  and  C_15
REMARK    9  A    between atoms: C_15  and  O_16
REMARK                            x       y       z     vdW  Elec       q    Type
REMARK                         _______ _______ _______ _____ _____    ______ ____
ROOT
ATOM      1  O   UNL     1      46.706   3.415  17.195  0.00  0.00    +0.000 OA
ATOM      2  C   UNL     1      47.606   4.087  16.698  0.00  0.00    +0.000 C 
ATOM      3  N   UNL     1      47.453   4.786  15.533  0.00  0.00    +0.000 N 
ATOM      4  H   UNL     1      48.286   5.144  15.077  0.00  0.00    +0.000 HD
ENDROOT
BRANCH   2   5
ATOM      5  C   UNL     1      48.907   4.252  17.359  0.00  0.00    +0.000 A 
ATOM      6  C   UNL     1      49.193   5.407  18.072  0.00  0.00    +0.000 A 
ATOM      7  S   UNL     1      50.769   5.426  18.728  0.00  0.00    +0.000 S 
ATOM      8  C   UNL     1      51.108   3.876  18.111  0.00  0.00    +0.000 A 
ATOM      9  N   UNL     1      52.313   3.278  18.327  0.00  0.00    +0.000 NA
ATOM     10  C   UNL     1      52.417   2.096  17.828  0.00  0.00    +0.000 A 
ATOM     11  N   UNL     1      51.438   1.451  17.126  0.00  0.00    +0.000 N 
ATOM     12  C   UNL     1      50.228   2.033  16.836  0.00  0.00    +0.000 A 
ATOM     13  O   UNL     1      49.405   1.469  16.124  0.00  0.00    +0.000 OA
ATOM     14  C   UNL     1      50.043   3.360  17.399  0.00  0.00    +0.000 A 
ATOM     15  H   UNL     1      51.588   0.532  16.737  0.00  0.00    +0.000 HD
ENDBRANCH   2   5
BRANCH   3  16
ATOM     16  C   UNL     1      46.259   4.769  14.721  0.00  0.00    +0.000 C 
BRANCH  16  17
ATOM     17  C   UNL     1      46.623   5.024  13.244  0.00  0.00    +0.000 C 
ATOM     18  C   UNL     1      47.639   6.167  13.106  0.00  0.00    +0.000 C 
ATOM     19  C   UNL     1      47.014   7.532  13.375  0.00  0.00    +0.000 C 
ATOM     20  N   UNL     1      45.851   7.771  12.505  0.00  0.00    +0.000 NA
ATOM     21  C   UNL     1      44.820   6.738  12.710  0.00  0.00    +0.000 C 
ATOM     22  C   UNL     1      45.368   5.329  12.391  0.00  0.00    +0.000 C 
BRANCH  20  23
ATOM     23  C   UNL     1      45.306   9.126  12.690  0.00  0.00    +0.000 C 
BRANCH  23  24
ATOM     24  C   UNL     1      45.079   9.877  11.370  0.00  0.00    +0.000 C 
BRANCH  24  25
ATOM     25  C   UNL     1      43.612   9.920  10.953  0.00  0.00    +0.000 C 
BRANCH  25  26
ATOM     26  O   UNL     1      43.123   8.595  10.773  0.00  0.00    +0.000 OA
ATOM     27  H   UNL     1      43.126   8.159  11.641  0.00  0.00    +0.000 HD
ENDBRANCH  25  26
ENDBRANCH  24  25
ENDBRANCH  23  24
ENDBRANCH  20  23
BRANCH  22  28
ATOM     28  C   UNL     1      45.648   5.200  10.878  0.00  0.00    +0.000 C 
BRANCH  28  29
ATOM     29  O   UNL     1      45.085   6.265  10.116  0.00  0.00    +0.000 OA
ATOM     30  H   UNL     1      44.125   6.285  10.250  0.00  0.00    +0.000 HD
ENDBRANCH  28  29
ENDBRANCH  22  28
ENDBRANCH  16  17
ENDBRANCH   3  16
TORSDOF 9
ENDMDL
MODEL 9
REMARK VINA RESULT:    -6.561      3.112      8.431
REMARK INTER + INTRA:         -10.637
REMARK INTER:                  -9.172
REMARK INTRA:                  -1.465
REMARK UNBOUND:                -1.007
REMARK  Name = 
REMARK  9 active torsions:
REMARK  status: ('A' for Active; 'I' for Inactive)
REMARK    1  A    between atoms: C_2  and  C_17
REMARK    2  A    between atoms: N_3  and  C_4
REMARK    3  A    between atoms: C_4  and  C_5
REMARK    4  A    between atoms: N_8  and  C_9
REMARK    5  A    between atoms: C_9  and  C_10
REMARK    6  A    between atoms: C_10  and  C_11
REMARK    7  A    between atoms: C_11  and  O_12
REMARK    8  A    between atoms: C_14  and  C_15
REMARK    9  A    between atoms: C_15  and  O_16
REMARK                            x       y       z     vdW  Elec       q    Type
REMARK                         _______ _______ _______ _____ _____    ______ ____
ROOT
ATOM      1  O   UNL     1      47.348   3.270  13.913  0.00  0.00    +0.000 OA
ATOM      2  C   UNL     1      46.766   4.259  14.351  0.00  0.00    +0.000 C 
ATOM      3  N   UNL     1      46.670   4.533  15.687  0.00  0.00    +0.000 N 
ATOM      4  H   UNL     1      46.008   5.242  15.983  0.00  0.00    +0.000 HD
ENDROOT
BRANCH   2   5
ATOM      5  C   UNL     1      46.185   5.273  13.462  0.00  0.00    +0.000 A 
ATOM      6  C   UNL     1      46.903   6.412  13.128  0.00  0.00    +0.000 A 
ATOM      7  S   UNL     1      46.039   7.487  12.121  0.00  0.00    +0.000 S 
ATOM      8  C   UNL     1      44.692   6.449  12.069  0.00  0.00    +0.000 A 
ATOM      9  N   UNL     1      43.579   6.771  11.353  0.00  0.00    +0.000 NA
ATOM     10  C   UNL     1      42.652   5.879  11.379  0.00  0.00    +0.000 A 
ATOM     11  N   UNL     1      42.721   4.695  12.059  0.00  0.00    +0.000 N 
ATOM     12  C   UNL     1      43.797   4.349  12.838  0.00  0.00    +0.000 A 
ATOM     13  O   UNL     1      43.793   3.325  13.512  0.00  0.00    +0.000 OA
ATOM     14  C   UNL     1      44.889   5.308  12.824  0.00  0.00    +0.000 A 
ATOM     15  H   UNL     1      41.949   4.045  12.062  0.00  0.00    +0.000 HD
ENDBRANCH   2   5
BRANCH   3  16
ATOM     16  C   UNL     1      47.172   3.675  16.735  0.00  0.00    +0.000 C 
BRANCH  16  17
ATOM     17  C   UNL     1      47.640   4.527  17.932  0.00  0.00    +0.000 C 
ATOM     18  C   UNL     1      48.432   5.758  17.470  0.00  0.00    +0.000 C 
ATOM     19  C   UNL     1      49.821   5.394  16.956  0.00  0.00    +0.000 C 
ATOM     20  N   UNL     1      50.585   4.639  17.964  0.00  0.00    +0.000 NA
ATOM     21  C   UNL     1      49.885   3.397  18.334  0.00  0.00    +0.000 C 
ATOM     22  C   UNL     1      48.489   3.697  18.926  0.00  0.00    +0.000 C 
BRANCH  20  23
ATOM     23  C   UNL     1      51.960   4.373  17.511  0.00  0.00    +0.000 C 
BRANCH  23  24
ATOM     24  C   UNL     1      52.550   3.075  18.081  0.00  0.00    +0.000 C 
BRANCH  24  25
ATOM     25  C   UNL     1      53.458   3.310  19.284  0.00  0.00    +0.000 C 
BRANCH  25  26
ATOM     26  O   UNL     1      52.696   3.823  20.372  0.00  0.00    +0.000 OA
ATOM     27  H   UNL     1      52.854   3.250  21.139  0.00  0.00    +0.000 HD
ENDBRANCH  25  26
ENDBRANCH  24  25
ENDBRANCH  23  24
ENDBRANCH  20  23
BRANCH  22  28
ATOM     28  C   UNL     1      48.633   4.398  20.294  0.00  0.00    +0.000 C 
BRANCH  28  29
ATOM     29  O   UNL     1      49.986   4.486  20.733  0.00  0.00    +0.000 OA
ATOM     30  H   UNL     1      50.396   3.607  20.696  0.00  0.00    +0.000 HD
ENDBRANCH  28  29
ENDBRANCH  22  28
ENDBRANCH  16  17
ENDBRANCH   3  16
TORSDOF 9
ENDMDL
