MODEL 1
REMARK VINA RESULT:    -8.665      0.000      0.000
REMARK INTER + INTRA:         -11.828
REMARK INTER:                 -11.705
REMARK INTRA:                  -0.123
REMARK UNBOUND:                -0.123
REMARK  Name = 
REMARK  6 active torsions:
REMARK  status: ('A' for Active; 'I' for Inactive)
REMARK    1  A    between atoms: C_2  and  C_4
REMARK    2  A    between atoms: N_8  and  C_9
REMARK    3  A    between atoms: C_9  and  C_10
REMARK    4  A    between atoms: C_14  and  C_15
REMARK    5  A    between atoms: C_19  and  O_20
REMARK    6  A    between atoms: O_20  and  C_21
REMARK                            x       y       z     vdW  Elec       q    Type
REMARK                         _______ _______ _______ _____ _____    ______ ____
ROOT
ATOM      1  C   UNL     1      48.529   7.828  12.939  0.00  0.00    +0.000 C 
ATOM      2  C   UNL     1      49.454   7.396  11.804  0.00  0.00    +0.000 C 
ATOM      3  C   UNL     1      49.324   8.840  12.127  0.00  0.00    +0.000 C 
ENDROOT
BRANCH   1   8
ATOM      4  C   UNL     1      47.998   4.561  16.819  0.00  0.00    +0.000 A 
ATOM      5  C   UNL     1      48.734   5.619  17.328  0.00  0.00    +0.000 A 
ATOM      6  C   UNL     1      49.072   6.657  16.473  0.00  0.00    +0.000 A 
ATOM      7  C   UNL     1      48.642   6.625  15.145  0.00  0.00    +0.000 A 
ATOM      8  N   UNL     1      48.879   7.783  14.366  0.00  0.00    +0.000 N 
ATOM      9  N   UNL     1      48.026   5.542  14.629  0.00  0.00    +0.000 NA
ATOM     10  C   UNL     1      47.729   4.520  15.467  0.00  0.00    +0.000 A 
ATOM     11  H   UNL     1      48.534   8.585  14.886  0.00  0.00    +0.000 HD
BRANCH   4  13
ATOM     12  N   UNL     1      48.054   3.342  18.899  0.00  0.00    +0.000 N 
ATOM     13  C   UNL     1      47.426   3.526  17.689  0.00  0.00    +0.000 C 
ATOM     14  O   UNL     1      46.406   2.919  17.412  0.00  0.00    +0.000 OA
ATOM     15  H   UNL     1      47.570   2.770  19.575  0.00  0.00    +0.000 HD
ATOM     16  H   UNL     1      48.717   4.017  19.259  0.00  0.00    +0.000 HD
ENDBRANCH   4  13
ENDBRANCH   1   8
BRANCH   1  17
ATOM     17  C   UNL     1      47.052   7.573  12.614  0.00  0.00    +0.000 A 
ATOM     18  C   UNL     1      46.070   8.558  12.776  0.00  0.00    +0.000 A 
ATOM     19  C   UNL     1      44.828   8.435  12.160  0.00  0.00    +0.000 A 
ATOM     20  C   UNL     1      44.542   7.309  11.387  0.00  0.00    +0.000 A 
ATOM     21  C   UNL     1      45.469   6.261  11.264  0.00  0.00    +0.000 A 
ATOM     22  C   UNL     1      46.695   6.392  11.932  0.00  0.00    +0.000 A 
BRANCH  21  23
ATOM     23  C   UNL     1      45.234   5.129  10.350  0.00  0.00    +0.000 A 
ATOM     24  C   UNL     1      44.543   3.978  10.731  0.00  0.00    +0.000 A 
ATOM     25  N   UNL     1      44.361   2.891   9.944  0.00  0.00    +0.000 NA
ATOM     26  C   UNL     1      44.899   2.947   8.704  0.00  0.00    +0.000 A 
ATOM     27  C   UNL     1      45.584   4.042   8.200  0.00  0.00    +0.000 A 
ATOM     28  C   UNL     1      45.772   5.131   9.051  0.00  0.00    +0.000 A 
BRANCH  27  29
ATOM     29  O   UNL     1      46.049   3.942   6.922  0.00  0.00    +0.000 OA
BRANCH  29  30
ATOM     30  C   UNL     1      46.699   2.721   6.611  0.00  0.00    +0.000 C 
ATOM     31  F   UNL     1      46.977   2.701   5.282  0.00  0.00    +0.000 F 
ATOM     32  F   UNL     1      47.889   2.718   7.260  0.00  0.00    +0.000 F 
ENDBRANCH  29  30
ENDBRANCH  27  29
ENDBRANCH  21  23
ENDBRANCH   1  17
TORSDOF 6
ENDMDL
MODEL 2
REMARK VINA RESULT:    -8.530      3.671      7.600
REMARK INTER + INTRA:         -11.645
REMARK INTER:                 -11.311
REMARK INTRA:                  -0.335
REMARK UNBOUND:                -0.123
REMARK  Name = 
REMARK  6 active torsions:
REMARK  status: ('A' for Active; 'I' for Inactive)
REMARK    1  A    between atoms: C_2  and  C_4
REMARK    2  A    between atoms: N_8  and  C_9
REMARK    3  A    between atoms: C_9  and  C_10
REMARK    4  A    between atoms: C_14  and  C_15
REMARK    5  A    between atoms: C_19  and  O_20
REMARK    6  A    between atoms: O_20  and  C_21
REMARK                            x       y       z     vdW  Elec       q    Type
REMARK                         _______ _______ _______ _____ _____    ______ ____
ROOT
ATOM      1  C   UNL     1      44.156   5.228  11.226  0.00  0.00    +0.000 C 
ATOM      2  C   UNL     1      42.959   4.356  11.598  0.00  0.00    +0.000 C 
ATOM      3  C   UNL     1      42.753   5.806  11.351  0.00  0.00    +0.000 C 
ENDROOT
BRANCH   1   8
ATOM      4  C   UNL     1      46.271   2.061   7.834  0.00  0.00    +0.000 A 
ATOM      5  C   UNL     1      46.212   3.291   7.200  0.00  0.00    +0.000 A 
ATOM      6  C   UNL     1      45.636   4.354   7.879  0.00  0.00    +0.000 A 
ATOM      7  C   UNL     1      45.163   4.168   9.180  0.00  0.00    +0.000 A 
ATOM      8  N   UNL     1      44.735   5.322   9.878  0.00  0.00    +0.000 N 
ATOM      9  N   UNL     1      45.121   2.944   9.746  0.00  0.00    +0.000 NA
ATOM     10  C   UNL     1      45.658   1.907   9.060  0.00  0.00    +0.000 A 
ATOM     11  H   UNL     1      45.470   6.020   9.809  0.00  0.00    +0.000 HD
BRANCH   4  13
ATOM     12  N   UNL     1      46.635  -0.318   7.668  0.00  0.00    +0.000 N 
ATOM     13  C   UNL     1      47.038   0.939   7.278  0.00  0.00    +0.000 C 
ATOM     14  O   UNL     1      47.920   1.087   6.451  0.00  0.00    +0.000 OA
ATOM     15  H   UNL     1      47.029  -1.095   7.158  0.00  0.00    +0.000 HD
ATOM     16  H   UNL     1      45.743  -0.471   8.122  0.00  0.00    +0.000 HD
ENDBRANCH   4  13
ENDBRANCH   1   8
BRANCH   1  17
ATOM     17  C   UNL     1      45.152   5.371  12.384  0.00  0.00    +0.000 A 
ATOM     18  C   UNL     1      45.482   4.300  13.223  0.00  0.00    +0.000 A 
ATOM     19  C   UNL     1      46.620   4.345  14.022  0.00  0.00    +0.000 A 
ATOM     20  C   UNL     1      47.436   5.477  14.010  0.00  0.00    +0.000 A 
ATOM     21  C   UNL     1      47.099   6.605  13.244  0.00  0.00    +0.000 A 
ATOM     22  C   UNL     1      45.922   6.548  12.483  0.00  0.00    +0.000 A 
BRANCH  21  23
ATOM     23  C   UNL     1      48.012   7.753  13.120  0.00  0.00    +0.000 A 
ATOM     24  C   UNL     1      47.924   8.884  13.934  0.00  0.00    +0.000 A 
ATOM     25  N   UNL     1      48.702   9.986  13.811  0.00  0.00    +0.000 NA
ATOM     26  C   UNL     1      49.622   9.967  12.821  0.00  0.00    +0.000 A 
ATOM     27  C   UNL     1      49.826   8.895  11.965  0.00  0.00    +0.000 A 
ATOM     28  C   UNL     1      48.987   7.790  12.107  0.00  0.00    +0.000 A 
BRANCH  27  29
ATOM     29  O   UNL     1      50.808   9.032  11.030  0.00  0.00    +0.000 OA
BRANCH  29  30
ATOM     30  C   UNL     1      51.772   7.993  11.011  0.00  0.00    +0.000 C 
ATOM     31  F   UNL     1      51.610   7.268   9.876  0.00  0.00    +0.000 F 
ATOM     32  F   UNL     1      52.995   8.574  10.933  0.00  0.00    +0.000 F 
ENDBRANCH  29  30
ENDBRANCH  27  29
ENDBRANCH  21  23
ENDBRANCH   1  17
TORSDOF 6
ENDMDL
MODEL 3
REMARK VINA RESULT:    -8.071      3.630      8.389
REMARK INTER + INTRA:         -11.025
REMARK INTER:                 -10.602
REMARK INTRA:                  -0.423
REMARK UNBOUND:                -0.123
REMARK  Name = 
REMARK  6 active torsions:
REMARK  status: ('A' for Active; 'I' for Inactive)
REMARK    1  A    between atoms: C_2  and  C_4
REMARK    2  A    between atoms: N_8  and  C_9
REMARK    3  A    between atoms: C_9  and  C_10
REMARK    4  A    between atoms: C_14  and  C_15
REMARK    5  A    between atoms: C_19  and  O_20
REMARK    6  A    between atoms: O_20  and  C_21
REMARK                            x       y       z     vdW  Elec       q    Type
REMARK                         _______ _______ _______ _____ _____    ______ ____
ROOT
ATOM      1  C   UNL     1      44.122   4.690  11.451  0.00  0.00    +0.000 C 
ATOM      2  C   UNL     1      42.890   5.138  12.234  0.00  0.00    +0.000 C 
ATOM      3  C   UNL     1      43.066   5.595  10.832  0.00  0.00    +0.000 C 
ENDROOT
BRANCH   1   8
ATOM      4  C   UNL     1      46.539   2.795   7.379  0.00  0.00    +0.000 A 
ATOM      5  C   UNL     1      45.948   1.704   7.995  0.00  0.00    +0.000 A 
ATOM      6  C   UNL     1      45.244   1.915   9.172  0.00  0.00    +0.000 A 
ATOM      7  C   UNL     1      45.125   3.208   9.683  0.00  0.00    +0.000 A 
ATOM      8  N   UNL     1      44.265   3.383  10.794  0.00  0.00    +0.000 N 
ATOM      9  N   UNL     1      45.798   4.245   9.142  0.00  0.00    +0.000 NA
ATOM     10  C   UNL     1      46.507   4.021   8.010  0.00  0.00    +0.000 A 
ATOM     11  H   UNL     1      43.373   2.951  10.568  0.00  0.00    +0.000 HD
BRANCH   4  13
ATOM     12  N   UNL     1      48.472   2.417   5.987  0.00  0.00    +0.000 N 
ATOM     13  C   UNL     1      47.126   2.702   6.037  0.00  0.00    +0.000 C 
ATOM     14  O   UNL     1      46.463   2.781   5.018  0.00  0.00    +0.000 OA
ATOM     15  H   UNL     1      48.846   2.172   5.082  0.00  0.00    +0.000 HD
ATOM     16  H   UNL     1      48.971   2.076   6.799  0.00  0.00    +0.000 HD
ENDBRANCH   4  13
ENDBRANCH   1   8
BRANCH   1  17
ATOM     17  C   UNL     1      45.417   5.291  12.011  0.00  0.00    +0.000 A 
ATOM     18  C   UNL     1      45.912   6.529  11.583  0.00  0.00    +0.000 A 
ATOM     19  C   UNL     1      46.867   7.212  12.331  0.00  0.00    +0.000 A 
ATOM     20  C   UNL     1      47.357   6.653  13.512  0.00  0.00    +0.000 A 
ATOM     21  C   UNL     1      46.948   5.379  13.935  0.00  0.00    +0.000 A 
ATOM     22  C   UNL     1      46.018   4.695  13.138  0.00  0.00    +0.000 A 
BRANCH  21  23
ATOM     23  C   UNL     1      47.356   4.832  15.240  0.00  0.00    +0.000 A 
ATOM     24  C   UNL     1      46.660   3.810  15.886  0.00  0.00    +0.000 A 
ATOM     25  N   UNL     1      46.964   3.324  17.113  0.00  0.00    +0.000 NA
ATOM     26  C   UNL     1      48.022   3.886  17.740  0.00  0.00    +0.000 A 
ATOM     27  C   UNL     1      48.809   4.889  17.193  0.00  0.00    +0.000 A 
ATOM     28  C   UNL     1      48.447   5.380  15.939  0.00  0.00    +0.000 A 
BRANCH  27  29
ATOM     29  O   UNL     1      49.851   5.334  17.951  0.00  0.00    +0.000 OA
BRANCH  29  30
ATOM     30  C   UNL     1      51.105   4.738  17.662  0.00  0.00    +0.000 C 
ATOM     31  F   UNL     1      50.892   3.503  17.144  0.00  0.00    +0.000 F 
ATOM     32  F   UNL     1      51.689   5.477  16.686  0.00  0.00    +0.000 F 
ENDBRANCH  29  30
ENDBRANCH  27  29
ENDBRANCH  21  23
ENDBRANCH   1  17
TORSDOF 6
ENDMDL
MODEL 4
REMARK VINA RESULT:    -7.887      4.626      8.579
REMARK INTER + INTRA:         -10.776
REMARK INTER:                 -10.497
REMARK INTRA:                  -0.278
REMARK UNBOUND:                -0.123
REMARK  Name = 
REMARK  6 active torsions:
REMARK  status: ('A' for Active; 'I' for Inactive)
REMARK    1  A    between atoms: C_2  and  C_4
REMARK    2  A    between atoms: N_8  and  C_9
REMARK    3  A    between atoms: C_9  and  C_10
REMARK    4  A    between atoms: C_14  and  C_15
REMARK    5  A    between atoms: C_19  and  O_20
REMARK    6  A    between atoms: O_20  and  C_21
REMARK                            x       y       z     vdW  Elec       q    Type
REMARK                         _______ _______ _______ _____ _____    ______ ____
ROOT
ATOM      1  C   UNL     1      44.159   5.068  11.214  0.00  0.00    +0.000 C 
ATOM      2  C   UNL     1      42.985   4.137  11.509  0.00  0.00    +0.000 C 
ATOM      3  C   UNL     1      42.740   5.595  11.373  0.00  0.00    +0.000 C 
ENDROOT
BRANCH   1   8
ATOM      4  C   UNL     1      46.428   2.244   7.625  0.00  0.00    +0.000 A 
ATOM      5  C   UNL     1      46.322   3.513   7.080  0.00  0.00    +0.000 A 
ATOM      6  C   UNL     1      45.697   4.500   7.828  0.00  0.00    +0.000 A 
ATOM      7  C   UNL     1      45.224   4.201   9.107  0.00  0.00    +0.000 A 
ATOM      8  N   UNL     1      44.742   5.283   9.883  0.00  0.00    +0.000 N 
ATOM      9  N   UNL     1      45.229   2.939   9.584  0.00  0.00    +0.000 NA
ATOM     10  C   UNL     1      45.813   1.977   8.831  0.00  0.00    +0.000 A 
ATOM     11  H   UNL     1      45.449   6.014   9.870  0.00  0.00    +0.000 HD
BRANCH   4  13
ATOM     12  N   UNL     1      48.345   1.632   6.296  0.00  0.00    +0.000 N 
ATOM     13  C   UNL     1      47.244   1.197   6.997  0.00  0.00    +0.000 C 
ATOM     14  O   UNL     1      47.028   0.008   7.152  0.00  0.00    +0.000 OA
ATOM     15  H   UNL     1      49.009   0.925   6.017  0.00  0.00    +0.000 HD
ATOM     16  H   UNL     1      48.693   2.578   6.391  0.00  0.00    +0.000 HD
ENDBRANCH   4  13
ENDBRANCH   1   8
BRANCH   1  17
ATOM     17  C   UNL     1      45.144   5.150  12.387  0.00  0.00    +0.000 A 
ATOM     18  C   UNL     1      45.720   4.009  12.959  0.00  0.00    +0.000 A 
ATOM     19  C   UNL     1      46.852   4.109  13.764  0.00  0.00    +0.000 A 
ATOM     20  C   UNL     1      47.413   5.359  14.025  0.00  0.00    +0.000 A 
ATOM     21  C   UNL     1      46.820   6.535  13.537  0.00  0.00    +0.000 A 
ATOM     22  C   UNL     1      45.655   6.407  12.767  0.00  0.00    +0.000 A 
BRANCH  21  23
ATOM     23  C   UNL     1      47.469   7.848  13.696  0.00  0.00    +0.000 A 
ATOM     24  C   UNL     1      47.334   8.878  12.764  0.00  0.00    +0.000 A 
ATOM     25  N   UNL     1      47.963  10.075  12.839  0.00  0.00    +0.000 NA
ATOM     26  C   UNL     1      48.779  10.262  13.901  0.00  0.00    +0.000 A 
ATOM     27  C   UNL     1      48.976   9.327  14.907  0.00  0.00    +0.000 A 
ATOM     28  C   UNL     1      48.330   8.098  14.779  0.00  0.00    +0.000 A 
BRANCH  27  29
ATOM     29  O   UNL     1      49.819   9.681  15.918  0.00  0.00    +0.000 OA
BRANCH  29  30
ATOM     30  C   UNL     1      49.221  10.416  16.973  0.00  0.00    +0.000 C 
ATOM     31  F   UNL     1      47.884  10.180  16.966  0.00  0.00    +0.000 F 
ATOM     32  F   UNL     1      49.701   9.917  18.138  0.00  0.00    +0.000 F 
ENDBRANCH  29  30
ENDBRANCH  27  29
ENDBRANCH  21  23
ENDBRANCH   1  17
TORSDOF 6
ENDMDL
MODEL 5
REMARK VINA RESULT:    -7.843      3.078      8.113
REMARK INTER + INTRA:         -10.716
REMARK INTER:                 -10.594
REMARK INTRA:                  -0.123
REMARK UNBOUND:                -0.123
REMARK  Name = 
REMARK  6 active torsions:
REMARK  status: ('A' for Active; 'I' for Inactive)
REMARK    1  A    between atoms: C_2  and  C_4
REMARK    2  A    between atoms: N_8  and  C_9
REMARK    3  A    between atoms: C_9  and  C_10
REMARK    4  A    between atoms: C_14  and  C_15
REMARK    5  A    between atoms: C_19  and  O_20
REMARK    6  A    between atoms: O_20  and  C_21
REMARK                            x       y       z     vdW  Elec       q    Type
REMARK                         _______ _______ _______ _____ _____    ______ ____
ROOT
ATOM      1  C   UNL     1      43.938   4.835  11.607  0.00  0.00    +0.000 C 
ATOM      2  C   UNL     1      42.826   5.144  12.606  0.00  0.00    +0.000 C 
ATOM      3  C   UNL     1      42.634   5.489  11.175  0.00  0.00    +0.000 C 
ENDROOT
BRANCH   1   8
ATOM      4  C   UNL     1      46.452   2.951   7.589  0.00  0.00    +0.000 A 
ATOM      5  C   UNL     1      45.965   1.845   8.268  0.00  0.00    +0.000 A 
ATOM      6  C   UNL     1      45.262   2.054   9.446  0.00  0.00    +0.000 A 
ATOM      7  C   UNL     1      45.040   3.357   9.896  0.00  0.00    +0.000 A 
ATOM      8  N   UNL     1      44.183   3.514  11.011  0.00  0.00    +0.000 N 
ATOM      9  N   UNL     1      45.613   4.419   9.292  0.00  0.00    +0.000 NA
ATOM     10  C   UNL     1      46.324   4.199   8.160  0.00  0.00    +0.000 A 
ATOM     11  H   UNL     1      43.328   2.996  10.823  0.00  0.00    +0.000 HD
BRANCH   4  13
ATOM     12  N   UNL     1      48.386   2.637   6.182  0.00  0.00    +0.000 N 
ATOM     13  C   UNL     1      47.026   2.841   6.242  0.00  0.00    +0.000 C 
ATOM     14  O   UNL     1      46.346   2.838   5.232  0.00  0.00    +0.000 OA
ATOM     15  H   UNL     1      48.762   2.380   5.282  0.00  0.00    +0.000 HD
ATOM     16  H   UNL     1      48.915   2.360   6.999  0.00  0.00    +0.000 HD
ENDBRANCH   4  13
ENDBRANCH   1   8
BRANCH   1  17
ATOM     17  C   UNL     1      45.187   5.694  11.844  0.00  0.00    +0.000 A 
ATOM     18  C   UNL     1      45.368   6.936  11.224  0.00  0.00    +0.000 A 
ATOM     19  C   UNL     1      46.308   7.843  11.705  0.00  0.00    +0.000 A 
ATOM     20  C   UNL     1      47.099   7.509  12.805  0.00  0.00    +0.000 A 
ATOM     21  C   UNL     1      47.006   6.243  13.406  0.00  0.00    +0.000 A 
ATOM     22  C   UNL     1      46.082   5.333  12.872  0.00  0.00    +0.000 A 
BRANCH  21  23
ATOM     23  C   UNL     1      47.739   5.922  14.643  0.00  0.00    +0.000 A 
ATOM     24  C   UNL     1      48.897   6.595  15.034  0.00  0.00    +0.000 A 
ATOM     25  N   UNL     1      49.635   6.289  16.128  0.00  0.00    +0.000 NA
ATOM     26  C   UNL     1      49.200   5.253  16.879  0.00  0.00    +0.000 A 
ATOM     27  C   UNL     1      48.052   4.523  16.611  0.00  0.00    +0.000 A 
ATOM     28  C   UNL     1      47.334   4.852  15.461  0.00  0.00    +0.000 A 
BRANCH  27  29
ATOM     29  O   UNL     1      47.744   3.519  17.480  0.00  0.00    +0.000 OA
BRANCH  29  30
ATOM     30  C   UNL     1      48.444   2.303  17.268  0.00  0.00    +0.000 C 
ATOM     31  F   UNL     1      48.636   2.136  15.935  0.00  0.00    +0.000 F 
ATOM     32  F   UNL     1      49.672   2.440  17.826  0.00  0.00    +0.000 F 
ENDBRANCH  29  30
ENDBRANCH  27  29
ENDBRANCH  21  23
ENDBRANCH   1  17
TORSDOF 6
ENDMDL
MODEL 6
REMARK VINA RESULT:    -7.491      2.079      2.445
REMARK INTER + INTRA:         -10.241
REMARK INTER:                  -9.637
REMARK INTRA:                  -0.604
REMARK UNBOUND:                -0.123
REMARK  Name = 
REMARK  6 active torsions:
REMARK  status: ('A' for Active; 'I' for Inactive)
REMARK    1  A    between atoms: C_2  and  C_4
REMARK    2  A    between atoms: N_8  and  C_9
REMARK    3  A    between atoms: C_9  and  C_10
REMARK    4  A    between atoms: C_14  and  C_15
REMARK    5  A    between atoms: C_19  and  O_20
REMARK    6  A    between atoms: O_20  and  C_21
REMARK                            x       y       z     vdW  Elec       q    Type
REMARK                         _______ _______ _______ _____ _____    ______ ____
ROOT
ATOM      1  C   UNL     1      48.876   7.762  12.717  0.00  0.00    +0.000 C 
ATOM      2  C   UNL     1      49.611   8.070  11.415  0.00  0.00    +0.000 C 
ATOM      3  C   UNL     1      49.544   9.108  12.475  0.00  0.00    +0.000 C 
ENDROOT
BRANCH   1   8
ATOM      4  C   UNL     1      48.935   8.059  17.808  0.00  0.00    +0.000 A 
ATOM      5  C   UNL     1      49.592   6.878  17.502  0.00  0.00    +0.000 A 
ATOM      6  C   UNL     1      49.695   6.510  16.169  0.00  0.00    +0.000 A 
ATOM      7  C   UNL     1      49.166   7.341  15.180  0.00  0.00    +0.000 A 
ATOM      8  N   UNL     1      49.441   6.994  13.835  0.00  0.00    +0.000 N 
ATOM      9  N   UNL     1      48.430   8.428  15.492  0.00  0.00    +0.000 NA
ATOM     10  C   UNL     1      48.310   8.761  16.799  0.00  0.00    +0.000 A 
ATOM     11  H   UNL     1      50.444   6.846  13.750  0.00  0.00    +0.000 HD
BRANCH   4  13
ATOM     12  N   UNL     1      50.127   9.236  19.544  0.00  0.00    +0.000 N 
ATOM     13  C   UNL     1      48.953   8.627  19.162  0.00  0.00    +0.000 C 
ATOM     14  O   UNL     1      47.972   8.648  19.884  0.00  0.00    +0.000 OA
ATOM     15  H   UNL     1      50.094   9.784  20.391  0.00  0.00    +0.000 HD
ATOM     16  H   UNL     1      50.843   9.473  18.869  0.00  0.00    +0.000 HD
ENDBRANCH   4  13
ENDBRANCH   1   8
BRANCH   1  17
ATOM     17  C   UNL     1      47.364   7.607  12.508  0.00  0.00    +0.000 A 
ATOM     18  C   UNL     1      46.478   8.685  12.625  0.00  0.00    +0.000 A 
ATOM     19  C   UNL     1      45.192   8.611  12.100  0.00  0.00    +0.000 A 
ATOM     20  C   UNL     1      44.764   7.444  11.466  0.00  0.00    +0.000 A 
ATOM     21  C   UNL     1      45.592   6.311  11.398  0.00  0.00    +0.000 A 
ATOM     22  C   UNL     1      46.867   6.400  11.975  0.00  0.00    +0.000 A 
BRANCH  21  23
ATOM     23  C   UNL     1      45.205   5.120  10.623  0.00  0.00    +0.000 A 
ATOM     24  C   UNL     1      44.589   4.008  11.198  0.00  0.00    +0.000 A 
ATOM     25  N   UNL     1      44.276   2.869  10.535  0.00  0.00    +0.000 NA
ATOM     26  C   UNL     1      44.594   2.830   9.221  0.00  0.00    +0.000 A 
ATOM     27  C   UNL     1      45.183   3.877   8.529  0.00  0.00    +0.000 A 
ATOM     28  C   UNL     1      45.513   5.022   9.253  0.00  0.00    +0.000 A 
BRANCH  27  29
ATOM     29  O   UNL     1      45.422   3.680   7.202  0.00  0.00    +0.000 OA
BRANCH  29  30
ATOM     30  C   UNL     1      46.789   3.551   6.848  0.00  0.00    +0.000 C 
ATOM     31  F   UNL     1      47.284   2.425   7.422  0.00  0.00    +0.000 F 
ATOM     32  F   UNL     1      46.844   3.362   5.506  0.00  0.00    +0.000 F 
ENDBRANCH  29  30
ENDBRANCH  27  29
ENDBRANCH  21  23
ENDBRANCH   1  17
TORSDOF 6
ENDMDL
MODEL 7
REMARK VINA RESULT:    -7.471      3.250      4.522
REMARK INTER + INTRA:         -10.214
REMARK INTER:                  -9.562
REMARK INTRA:                  -0.652
REMARK UNBOUND:                -0.123
REMARK  Name = 
REMARK  6 active torsions:
REMARK  status: ('A' for Active; 'I' for Inactive)
REMARK    1  A    between atoms: C_2  and  C_4
REMARK    2  A    between atoms: N_8  and  C_9
REMARK    3  A    between atoms: C_9  and  C_10
REMARK    4  A    between atoms: C_14  and  C_15
REMARK    5  A    between atoms: C_19  and  O_20
REMARK    6  A    between atoms: O_20  and  C_21
REMARK                            x       y       z     vdW  Elec       q    Type
REMARK                         _______ _______ _______ _____ _____    ______ ____
ROOT
ATOM      1  C   UNL     1      49.610   6.891  17.245  0.00  0.00    +0.000 C 
ATOM      2  C   UNL     1      48.737   7.717  18.187  0.00  0.00    +0.000 C 
ATOM      3  C   UNL     1      48.583   6.240  18.159  0.00  0.00    +0.000 C 
ENDROOT
BRANCH   1   8
ATOM      4  C   UNL     1      52.268   2.561  17.692  0.00  0.00    +0.000 A 
ATOM      5  C   UNL     1      53.202   3.578  17.809  0.00  0.00    +0.000 A 
ATOM      6  C   UNL     1      52.765   4.889  17.685  0.00  0.00    +0.000 A 
ATOM      7  C   UNL     1      51.409   5.149  17.478  0.00  0.00    +0.000 A 
ATOM      8  N   UNL     1      51.001   6.503  17.519  0.00  0.00    +0.000 N 
ATOM      9  N   UNL     1      50.527   4.153  17.251  0.00  0.00    +0.000 NA
ATOM     10  C   UNL     1      50.972   2.877  17.344  0.00  0.00    +0.000 A 
ATOM     11  H   UNL     1      51.368   6.914  18.374  0.00  0.00    +0.000 HD
BRANCH   4  13
ATOM     12  N   UNL     1      51.533   0.301  18.104  0.00  0.00    +0.000 N 
ATOM     13  C   UNL     1      52.599   1.166  18.008  0.00  0.00    +0.000 C 
ATOM     14  O   UNL     1      53.745   0.762  18.095  0.00  0.00    +0.000 OA
ATOM     15  H   UNL     1      51.755  -0.683  18.139  0.00  0.00    +0.000 HD
ATOM     16  H   UNL     1      50.614   0.554  17.764  0.00  0.00    +0.000 HD
ENDBRANCH   4  13
ENDBRANCH   1   8
BRANCH   1  17
ATOM     17  C   UNL     1      49.275   7.145  15.770  0.00  0.00    +0.000 A 
ATOM     18  C   UNL     1      50.129   7.861  14.922  0.00  0.00    +0.000 A 
ATOM     19  C   UNL     1      49.990   7.783  13.539  0.00  0.00    +0.000 A 
ATOM     20  C   UNL     1      48.977   7.001  12.984  0.00  0.00    +0.000 A 
ATOM     21  C   UNL     1      48.050   6.332  13.798  0.00  0.00    +0.000 A 
ATOM     22  C   UNL     1      48.186   6.465  15.188  0.00  0.00    +0.000 A 
BRANCH  21  23
ATOM     23  C   UNL     1      47.057   5.402  13.232  0.00  0.00    +0.000 A 
ATOM     24  C   UNL     1      46.820   4.132  13.759  0.00  0.00    +0.000 A 
ATOM     25  N   UNL     1      45.965   3.224  13.232  0.00  0.00    +0.000 NA
ATOM     26  C   UNL     1      45.305   3.597  12.112  0.00  0.00    +0.000 A 
ATOM     27  C   UNL     1      45.434   4.838  11.508  0.00  0.00    +0.000 A 
ATOM     28  C   UNL     1      46.343   5.735  12.066  0.00  0.00    +0.000 A 
BRANCH  27  29
ATOM     29  O   UNL     1      44.682   5.059  10.392  0.00  0.00    +0.000 OA
BRANCH  29  30
ATOM     30  C   UNL     1      45.120   4.383   9.226  0.00  0.00    +0.000 C 
ATOM     31  F   UNL     1      44.120   4.402   8.308  0.00  0.00    +0.000 F 
ATOM     32  F   UNL     1      46.145   5.099   8.702  0.00  0.00    +0.000 F 
ENDBRANCH  29  30
ENDBRANCH  27  29
ENDBRANCH  21  23
ENDBRANCH   1  17
TORSDOF 6
ENDMDL
MODEL 8
REMARK VINA RESULT:    -7.245      3.781      7.089
REMARK INTER + INTRA:          -9.909
REMARK INTER:                  -8.898
REMARK INTRA:                  -1.011
REMARK UNBOUND:                -0.123
REMARK  Name = 
REMARK  6 active torsions:
REMARK  status: ('A' for Active; 'I' for Inactive)
REMARK    1  A    between atoms: C_2  and  C_4
REMARK    2  A    between atoms: N_8  and  C_9
REMARK    3  A    between atoms: C_9  and  C_10
REMARK    4  A    between atoms: C_14  and  C_15
REMARK    5  A    between atoms: C_19  and  O_20
REMARK    6  A    between atoms: O_20  and  C_21
REMARK                            x       y       z     vdW  Elec       q    Type
REMARK                         _______ _______ _______ _____ _____    ______ ____
ROOT
ATOM      1  C   UNL     1      48.956   8.637  12.502  0.00  0.00    +0.000 C 
ATOM      2  C   UNL     1      49.956   9.262  11.532  0.00  0.00    +0.000 C 
ATOM      3  C   UNL     1      49.782   7.787  11.547  0.00  0.00    +0.000 C 
ENDROOT
BRANCH   1   8
ATOM      4  C   UNL     1      45.261   5.151  12.954  0.00  0.00    +0.000 A 
ATOM      5  C   UNL     1      44.618   6.320  12.583  0.00  0.00    +0.000 A 
ATOM      6  C   UNL     1      45.381   7.468  12.423  0.00  0.00    +0.000 A 
ATOM      7  C   UNL     1      46.763   7.410  12.610  0.00  0.00    +0.000 A 
ATOM      8  N   UNL     1      47.505   8.569  12.278  0.00  0.00    +0.000 N 
ATOM      9  N   UNL     1      47.365   6.298  13.082  0.00  0.00    +0.000 NA
ATOM     10  C   UNL     1      46.605   5.192  13.264  0.00  0.00    +0.000 A 
ATOM     11  H   UNL     1      47.232   8.856  11.342  0.00  0.00    +0.000 HD
BRANCH   4  13
ATOM     12  N   UNL     1      45.319   2.778  12.525  0.00  0.00    +0.000 N 
ATOM     13  C   UNL     1      44.573   3.854  12.950  0.00  0.00    +0.000 C 
ATOM     14  O   UNL     1      43.442   3.704  13.377  0.00  0.00    +0.000 OA
ATOM     15  H   UNL     1      44.922   1.864  12.687  0.00  0.00    +0.000 HD
ATOM     16  H   UNL     1      46.325   2.834  12.436  0.00  0.00    +0.000 HD
ENDBRANCH   4  13
ENDBRANCH   1   8
BRANCH   1  17
ATOM     17  C   UNL     1      49.391   8.792  13.965  0.00  0.00    +0.000 A 
ATOM     18  C   UNL     1      49.058   9.917  14.728  0.00  0.00    +0.000 A 
ATOM     19  C   UNL     1      49.148   9.890  16.117  0.00  0.00    +0.000 A 
ATOM     20  C   UNL     1      49.597   8.736  16.763  0.00  0.00    +0.000 A 
ATOM     21  C   UNL     1      50.018   7.614  16.032  0.00  0.00    +0.000 A 
ATOM     22  C   UNL     1      49.957   7.687  14.632  0.00  0.00    +0.000 A 
BRANCH  21  23
ATOM     23  C   UNL     1      50.370   6.349  16.698  0.00  0.00    +0.000 A 
ATOM     24  C   UNL     1      51.657   6.066  17.156  0.00  0.00    +0.000 A 
ATOM     25  N   UNL     1      52.037   4.892  17.716  0.00  0.00    +0.000 NA
ATOM     26  C   UNL     1      51.084   3.940  17.826  0.00  0.00    +0.000 A 
ATOM     27  C   UNL     1      49.764   4.108  17.433  0.00  0.00    +0.000 A 
ATOM     28  C   UNL     1      49.419   5.321  16.839  0.00  0.00    +0.000 A 
BRANCH  27  29
ATOM     29  O   UNL     1      48.925   3.052  17.631  0.00  0.00    +0.000 OA
BRANCH  29  30
ATOM     30  C   UNL     1      47.619   3.214  17.103  0.00  0.00    +0.000 C 
ATOM     31  F   UNL     1      47.627   2.846  15.797  0.00  0.00    +0.000 F 
ATOM     32  F   UNL     1      46.809   2.339  17.750  0.00  0.00    +0.000 F 
ENDBRANCH  29  30
ENDBRANCH  27  29
ENDBRANCH  21  23
ENDBRANCH   1  17
TORSDOF 6
ENDMDL
MODEL 9
REMARK VINA RESULT:    -7.168      3.295      4.511
REMARK INTER + INTRA:          -9.805
REMARK INTER:                 -10.215
REMARK INTRA:                   0.409
REMARK UNBOUND:                -0.123
REMARK  Name = 
REMARK  6 active torsions:
REMARK  status: ('A' for Active; 'I' for Inactive)
REMARK    1  A    between atoms: C_2  and  C_4
REMARK    2  A    between atoms: N_8  and  C_9
REMARK    3  A    between atoms: C_9  and  C_10
REMARK    4  A    between atoms: C_14  and  C_15
REMARK    5  A    between atoms: C_19  and  O_20
REMARK    6  A    between atoms: O_20  and  C_21
REMARK                            x       y       z     vdW  Elec       q    Type
REMARK                         _______ _______ _______ _____ _____    ______ ____
ROOT
ATOM      1  C   UNL     1      48.264   4.471  16.852  0.00  0.00    +0.000 C 
ATOM      2  C   UNL     1      47.074   4.104  17.735  0.00  0.00    +0.000 C 
ATOM      3  C   UNL     1      47.800   3.030  17.009  0.00  0.00    +0.000 C 
ENDROOT
BRANCH   1   8
ATOM      4  C   UNL     1      52.500   1.772  17.736  0.00  0.00    +0.000 A 
ATOM      5  C   UNL     1      52.844   3.088  17.998  0.00  0.00    +0.000 A 
ATOM      6  C   UNL     1      51.883   4.069  17.801  0.00  0.00    +0.000 A 
ATOM      7  C   UNL     1      50.603   3.707  17.377  0.00  0.00    +0.000 A 
ATOM      8  N   UNL     1      49.624   4.729  17.347  0.00  0.00    +0.000 N 
ATOM      9  N   UNL     1      50.312   2.441  17.015  0.00  0.00    +0.000 NA
ATOM     10  C   UNL     1      51.268   1.496  17.183  0.00  0.00    +0.000 A 
ATOM     11  H   UNL     1      49.637   5.200  18.249  0.00  0.00    +0.000 HD
BRANCH   4  13
ATOM     12  N   UNL     1      52.748  -0.514  18.467  0.00  0.00    +0.000 N 
ATOM     13  C   UNL     1      53.379   0.654  18.106  0.00  0.00    +0.000 C 
ATOM     14  O   UNL     1      54.593   0.711  18.018  0.00  0.00    +0.000 OA
ATOM     15  H   UNL     1      53.331  -1.334  18.546  0.00  0.00    +0.000 HD
ATOM     16  H   UNL     1      51.765  -0.664  18.278  0.00  0.00    +0.000 HD
ENDBRANCH   4  13
ENDBRANCH   1   8
BRANCH   1  17
ATOM     17  C   UNL     1      47.846   5.283  15.620  0.00  0.00    +0.000 A 
ATOM     18  C   UNL     1      48.646   6.303  15.091  0.00  0.00    +0.000 A 
ATOM     19  C   UNL     1      48.431   6.781  13.801  0.00  0.00    +0.000 A 
ATOM     20  C   UNL     1      47.395   6.256  13.027  0.00  0.00    +0.000 A 
ATOM     21  C   UNL     1      46.519   5.290  13.549  0.00  0.00    +0.000 A 
ATOM     22  C   UNL     1      46.732   4.860  14.867  0.00  0.00    +0.000 A 
BRANCH  21  23
ATOM     23  C   UNL     1      45.504   4.636  12.705  0.00  0.00    +0.000 A 
ATOM     24  C   UNL     1      44.538   3.769  13.217  0.00  0.00    +0.000 A 
ATOM     25  N   UNL     1      43.629   3.098  12.470  0.00  0.00    +0.000 NA
ATOM     26  C   UNL     1      43.682   3.297  11.134  0.00  0.00    +0.000 A 
ATOM     27  C   UNL     1      44.576   4.152  10.507  0.00  0.00    +0.000 A 
ATOM     28  C   UNL     1      45.512   4.804  11.309  0.00  0.00    +0.000 A 
BRANCH  27  29
ATOM     29  O   UNL     1      44.485   4.251   9.151  0.00  0.00    +0.000 OA
BRANCH  29  30
ATOM     30  C   UNL     1      44.754   3.055   8.439  0.00  0.00    +0.000 C 
ATOM     31  F   UNL     1      45.127   3.375   7.174  0.00  0.00    +0.000 F 
ATOM     32  F   UNL     1      45.825   2.466   9.025  0.00  0.00    +0.000 F 
ENDBRANCH  29  30
ENDBRANCH  27  29
ENDBRANCH  21  23
ENDBRANCH   1  17
TORSDOF 6
ENDMDL
