MODEL 1
REMARK VINA RESULT:    -8.979      0.000      0.000
REMARK INTER + INTRA:         -12.590
REMARK INTER:                 -11.604
REMARK INTRA:                  -0.987
REMARK UNBOUND:                -0.987
REMARK  Name = 
REMARK  6 active torsions:
REMARK  status: ('A' for Active; 'I' for Inactive)
REMARK    1  A    between atoms: C_1  and  C_2
REMARK    2  A    between atoms: C_2  and  N_3
REMARK    3  A    between atoms: C_2  and  C_16
REMARK    4  A    between atoms: C_4  and  C_6
REMARK    5  A    between atoms: C_19  and  C_20
REMARK    6  A    between atoms: C_20  and  N_21
REMARK                            x       y       z     vdW  Elec       q    Type
REMARK                         _______ _______ _______ _____ _____    ______ ____
ROOT
ATOM      1  C   UNL     1      45.672   8.877  13.166  0.00  0.00    +0.000 C 
ATOM      2  C   UNL     1      46.690   7.749  12.968  0.00  0.00    +0.000 C 
ENDROOT
BRANCH   2   3
ATOM      3  C   UNL     1      46.051   6.634  12.144  0.00  0.00    +0.000 A 
ATOM      4  C   UNL     1      45.195   5.707  12.754  0.00  0.00    +0.000 A 
ATOM      5  C   UNL     1      44.598   4.686  12.005  0.00  0.00    +0.000 A 
ATOM      6  C   UNL     1      44.850   4.561  10.632  0.00  0.00    +0.000 A 
ATOM      7  C   UNL     1      45.712   5.477  10.020  0.00  0.00    +0.000 A 
ATOM      8  C   UNL     1      46.319   6.487  10.771  0.00  0.00    +0.000 A 
BRANCH   6   9
ATOM      9  C   UNL     1      44.211   3.451   9.830  0.00  0.00    +0.000 C 
BRANCH   9  10
ATOM     10  N   UNL     1      44.367   3.699   8.411  0.00  0.00    +0.000 N 
ATOM     11  C   UNL     1      45.427   2.995   7.853  0.00  0.00    +0.000 A 
ATOM     12  N   UNL     1      45.750   1.784   8.333  0.00  0.00    +0.000 NA
ATOM     13  C   UNL     1      46.787   1.148   7.761  0.00  0.00    +0.000 A 
ATOM     14  C   UNL     1      47.517   1.676   6.727  0.00  0.00    +0.000 A 
ATOM     15  C   UNL     1      47.115   2.920   6.308  0.00  0.00    +0.000 A 
ATOM     16  N   UNL     1      46.085   3.598   6.854  0.00  0.00    +0.000 NA
ATOM     17  H   UNL     1      44.483   4.670   8.148  0.00  0.00    +0.000 HD
ENDBRANCH   9  10
ENDBRANCH   6   9
ENDBRANCH   2   3
BRANCH   2  18
ATOM     18  N   UNL     1      47.202   7.222  14.227  0.00  0.00    +0.000 N 
ATOM     19  C   UNL     1      48.463   6.707  14.383  0.00  0.00    +0.000 C 
ATOM     20  O   UNL     1      49.288   6.679  13.475  0.00  0.00    +0.000 OA
ATOM     21  H   UNL     1      46.494   6.897  14.879  0.00  0.00    +0.000 HD
BRANCH  19  22
ATOM     22  C   UNL     1      48.811   6.247  15.734  0.00  0.00    +0.000 A 
ATOM     23  C   UNL     1      49.747   6.952  16.477  0.00  0.00    +0.000 A 
ATOM     24  S   UNL     1      50.029   6.296  18.025  0.00  0.00    +0.000 S 
ATOM     25  C   UNL     1      48.937   5.022  17.745  0.00  0.00    +0.000 A 
ATOM     26  N   UNL     1      48.731   4.057  18.679  0.00  0.00    +0.000 NA
ATOM     27  C   UNL     1      47.900   3.135  18.321  0.00  0.00    +0.000 A 
ATOM     28  N   UNL     1      47.243   3.102  17.119  0.00  0.00    +0.000 N 
ATOM     29  C   UNL     1      47.387   4.079  16.162  0.00  0.00    +0.000 A 
ATOM     30  O   UNL     1      46.731   4.059  15.125  0.00  0.00    +0.000 OA
ATOM     31  C   UNL     1      48.339   5.116  16.500  0.00  0.00    +0.000 A 
ATOM     32  H   UNL     1      46.588   2.363  16.908  0.00  0.00    +0.000 HD
ENDBRANCH  19  22
ENDBRANCH   2  18
TORSDOF 5
ENDMDL
MODEL 2
REMARK VINA RESULT:    -8.517      1.951      2.540
REMARK INTER + INTRA:         -11.993
REMARK INTER:                 -11.141
REMARK INTRA:                  -0.851
REMARK UNBOUND:                -0.987
REMARK  Name = 
REMARK  6 active torsions:
REMARK  status: ('A' for Active; 'I' for Inactive)
REMARK    1  A    between atoms: C_1  and  C_2
REMARK    2  A    between atoms: C_2  and  N_3
REMARK    3  A    between atoms: C_2  and  C_16
REMARK    4  A    between atoms: C_4  and  C_6
REMARK    5  A    between atoms: C_19  and  C_20
REMARK    6  A    between atoms: C_20  and  N_21
REMARK                            x       y       z     vdW  Elec       q    Type
REMARK                         _______ _______ _______ _____ _____    ______ ____
ROOT
ATOM      1  C   UNL     1      47.681   8.345  13.583  0.00  0.00    +0.000 C 
ATOM      2  C   UNL     1      47.917   6.831  13.640  0.00  0.00    +0.000 C 
ENDROOT
BRANCH   2   3
ATOM      3  C   UNL     1      46.877   6.127  12.771  0.00  0.00    +0.000 A 
ATOM      4  C   UNL     1      46.590   6.606  11.485  0.00  0.00    +0.000 A 
ATOM      5  C   UNL     1      45.645   5.963  10.678  0.00  0.00    +0.000 A 
ATOM      6  C   UNL     1      44.957   4.832  11.138  0.00  0.00    +0.000 A 
ATOM      7  C   UNL     1      45.233   4.356  12.425  0.00  0.00    +0.000 A 
ATOM      8  C   UNL     1      46.165   5.007  13.236  0.00  0.00    +0.000 A 
BRANCH   6   9
ATOM      9  C   UNL     1      43.931   4.147  10.267  0.00  0.00    +0.000 C 
BRANCH   9  10
ATOM     10  N   UNL     1      44.208   4.398   8.867  0.00  0.00    +0.000 N 
ATOM     11  C   UNL     1      45.142   3.517   8.335  0.00  0.00    +0.000 A 
ATOM     12  N   UNL     1      45.201   2.254   8.786  0.00  0.00    +0.000 NA
ATOM     13  C   UNL     1      46.126   1.445   8.242  0.00  0.00    +0.000 A 
ATOM     14  C   UNL     1      46.998   1.848   7.264  0.00  0.00    +0.000 A 
ATOM     15  C   UNL     1      46.865   3.157   6.871  0.00  0.00    +0.000 A 
ATOM     16  N   UNL     1      45.957   4.008   7.391  0.00  0.00    +0.000 NA
ATOM     17  H   UNL     1      44.522   5.335   8.646  0.00  0.00    +0.000 HD
ENDBRANCH   9  10
ENDBRANCH   6   9
ENDBRANCH   2   3
BRANCH   2  18
ATOM     18  N   UNL     1      47.884   6.305  14.998  0.00  0.00    +0.000 N 
ATOM     19  C   UNL     1      48.984   6.228  15.814  0.00  0.00    +0.000 C 
ATOM     20  O   UNL     1      50.092   6.634  15.478  0.00  0.00    +0.000 OA
ATOM     21  H   UNL     1      47.128   5.654  15.192  0.00  0.00    +0.000 HD
BRANCH  19  22
ATOM     22  C   UNL     1      48.752   5.692  17.162  0.00  0.00    +0.000 A 
ATOM     23  C   UNL     1      48.932   4.336  17.400  0.00  0.00    +0.000 A 
ATOM     24  S   UNL     1      48.634   3.877  19.014  0.00  0.00    +0.000 S 
ATOM     25  C   UNL     1      48.217   5.469  19.447  0.00  0.00    +0.000 A 
ATOM     26  N   UNL     1      47.815   5.769  20.711  0.00  0.00    +0.000 NA
ATOM     27  C   UNL     1      47.500   7.009  20.891  0.00  0.00    +0.000 A 
ATOM     28  N   UNL     1      47.566   7.979  19.926  0.00  0.00    +0.000 N 
ATOM     29  C   UNL     1      48.007   7.729  18.647  0.00  0.00    +0.000 A 
ATOM     30  O   UNL     1      48.124   8.633  17.824  0.00  0.00    +0.000 OA
ATOM     31  C   UNL     1      48.337   6.345  18.382  0.00  0.00    +0.000 A 
ATOM     32  H   UNL     1      47.325   8.936  20.137  0.00  0.00    +0.000 HD
ENDBRANCH  19  22
ENDBRANCH   2  18
TORSDOF 5
ENDMDL
MODEL 3
REMARK VINA RESULT:    -8.500      1.616      1.833
REMARK INTER + INTRA:         -11.972
REMARK INTER:                 -11.125
REMARK INTRA:                  -0.846
REMARK UNBOUND:                -0.987
REMARK  Name = 
REMARK  6 active torsions:
REMARK  status: ('A' for Active; 'I' for Inactive)
REMARK    1  A    between atoms: C_1  and  C_2
REMARK    2  A    between atoms: C_2  and  N_3
REMARK    3  A    between atoms: C_2  and  C_16
REMARK    4  A    between atoms: C_4  and  C_6
REMARK    5  A    between atoms: C_19  and  C_20
REMARK    6  A    between atoms: C_20  and  N_21
REMARK                            x       y       z     vdW  Elec       q    Type
REMARK                         _______ _______ _______ _____ _____    ______ ____
ROOT
ATOM      1  C   UNL     1      48.413   8.384  12.912  0.00  0.00    +0.000 C 
ATOM      2  C   UNL     1      48.312   6.946  13.432  0.00  0.00    +0.000 C 
ENDROOT
BRANCH   2   3
ATOM      3  C   UNL     1      47.182   6.225  12.701  0.00  0.00    +0.000 A 
ATOM      4  C   UNL     1      46.617   5.063  13.244  0.00  0.00    +0.000 A 
ATOM      5  C   UNL     1      45.575   4.399  12.585  0.00  0.00    +0.000 A 
ATOM      6  C   UNL     1      45.079   4.875  11.364  0.00  0.00    +0.000 A 
ATOM      7  C   UNL     1      45.646   6.029  10.812  0.00  0.00    +0.000 A 
ATOM      8  C   UNL     1      46.696   6.682  11.462  0.00  0.00    +0.000 A 
BRANCH   6   9
ATOM      9  C   UNL     1      43.961   4.150  10.652  0.00  0.00    +0.000 C 
BRANCH   9  10
ATOM     10  N   UNL     1      44.034   4.387   9.225  0.00  0.00    +0.000 N 
ATOM     11  C   UNL     1      44.945   3.554   8.585  0.00  0.00    +0.000 A 
ATOM     12  N   UNL     1      45.143   2.307   9.041  0.00  0.00    +0.000 NA
ATOM     13  C   UNL     1      46.038   1.545   8.390  0.00  0.00    +0.000 A 
ATOM     14  C   UNL     1      46.746   1.980   7.299  0.00  0.00    +0.000 A 
ATOM     15  C   UNL     1      46.479   3.269   6.910  0.00  0.00    +0.000 A 
ATOM     16  N   UNL     1      45.595   4.073   7.535  0.00  0.00    +0.000 NA
ATOM     17  H   UNL     1      44.256   5.336   8.951  0.00  0.00    +0.000 HD
ENDBRANCH   9  10
ENDBRANCH   6   9
ENDBRANCH   2   3
BRANCH   2  18
ATOM     18  N   UNL     1      48.110   6.878  14.873  0.00  0.00    +0.000 N 
ATOM     19  C   UNL     1      49.128   6.740  15.782  0.00  0.00    +0.000 C 
ATOM     20  O   UNL     1      50.309   6.696  15.456  0.00  0.00    +0.000 OA
ATOM     21  H   UNL     1      47.192   6.557  15.166  0.00  0.00    +0.000 HD
BRANCH  19  22
ATOM     22  C   UNL     1      48.732   6.717  17.197  0.00  0.00    +0.000 A 
ATOM     23  C   UNL     1      48.254   7.878  17.792  0.00  0.00    +0.000 A 
ATOM     24  S   UNL     1      47.829   7.681  19.431  0.00  0.00    +0.000 S 
ATOM     25  C   UNL     1      48.303   6.048  19.416  0.00  0.00    +0.000 A 
ATOM     26  N   UNL     1      48.231   5.287  20.540  0.00  0.00    +0.000 NA
ATOM     27  C   UNL     1      48.652   4.074  20.393  0.00  0.00    +0.000 A 
ATOM     28  N   UNL     1      49.122   3.550  19.217  0.00  0.00    +0.000 N 
ATOM     29  C   UNL     1      49.173   4.270  18.046  0.00  0.00    +0.000 A 
ATOM     30  O   UNL     1      49.532   3.751  16.993  0.00  0.00    +0.000 OA
ATOM     31  C   UNL     1      48.747   5.648  18.167  0.00  0.00    +0.000 A 
ATOM     32  H   UNL     1      49.418   2.586  19.163  0.00  0.00    +0.000 HD
ENDBRANCH  19  22
ENDBRANCH   2  18
TORSDOF 5
ENDMDL
MODEL 4
REMARK VINA RESULT:    -8.015      2.570      3.242
REMARK INTER + INTRA:         -11.344
REMARK INTER:                 -10.208
REMARK INTRA:                  -1.137
REMARK UNBOUND:                -0.987
REMARK  Name = 
REMARK  6 active torsions:
REMARK  status: ('A' for Active; 'I' for Inactive)
REMARK    1  A    between atoms: C_1  and  C_2
REMARK    2  A    between atoms: C_2  and  N_3
REMARK    3  A    between atoms: C_2  and  C_16
REMARK    4  A    between atoms: C_4  and  C_6
REMARK    5  A    between atoms: C_19  and  C_20
REMARK    6  A    between atoms: C_20  and  N_21
REMARK                            x       y       z     vdW  Elec       q    Type
REMARK                         _______ _______ _______ _____ _____    ______ ____
ROOT
ATOM      1  C   UNL     1      48.893   8.349  13.443  0.00  0.00    +0.000 C 
ATOM      2  C   UNL     1      48.552   6.977  14.034  0.00  0.00    +0.000 C 
ENDROOT
BRANCH   2   3
ATOM      3  C   UNL     1      47.393   6.366  13.249  0.00  0.00    +0.000 A 
ATOM      4  C   UNL     1      46.976   5.054  13.514  0.00  0.00    +0.000 A 
ATOM      5  C   UNL     1      45.909   4.488  12.805  0.00  0.00    +0.000 A 
ATOM      6  C   UNL     1      45.241   5.214  11.811  0.00  0.00    +0.000 A 
ATOM      7  C   UNL     1      45.660   6.521  11.536  0.00  0.00    +0.000 A 
ATOM      8  C   UNL     1      46.734   7.080  12.232  0.00  0.00    +0.000 A 
BRANCH   6   9
ATOM      9  C   UNL     1      44.096   4.596  11.043  0.00  0.00    +0.000 C 
BRANCH   9  10
ATOM     10  N   UNL     1      44.217   4.893   9.630  0.00  0.00    +0.000 N 
ATOM     11  C   UNL     1      44.975   3.953   8.943  0.00  0.00    +0.000 A 
ATOM     12  N   UNL     1      44.955   2.668   9.330  0.00  0.00    +0.000 NA
ATOM     13  C   UNL     1      45.711   1.800   8.636  0.00  0.00    +0.000 A 
ATOM     14  C   UNL     1      46.489   2.166   7.568  0.00  0.00    +0.000 A 
ATOM     15  C   UNL     1      46.448   3.501   7.249  0.00  0.00    +0.000 A 
ATOM     16  N   UNL     1      45.710   4.410   7.920  0.00  0.00    +0.000 NA
ATOM     17  H   UNL     1      44.599   5.804   9.407  0.00  0.00    +0.000 HD
ENDBRANCH   9  10
ENDBRANCH   6   9
ENDBRANCH   2   3
BRANCH   2  18
ATOM     18  N   UNL     1      48.230   7.037  15.453  0.00  0.00    +0.000 N 
ATOM     19  C   UNL     1      48.974   6.428  16.432  0.00  0.00    +0.000 C 
ATOM     20  O   UNL     1      50.003   5.805  16.195  0.00  0.00    +0.000 OA
ATOM     21  H   UNL     1      47.253   7.212  15.668  0.00  0.00    +0.000 HD
BRANCH  19  22
ATOM     22  C   UNL     1      48.508   6.622  17.812  0.00  0.00    +0.000 A 
ATOM     23  C   UNL     1      48.433   5.531  18.668  0.00  0.00    +0.000 A 
ATOM     24  S   UNL     1      47.886   5.925  20.234  0.00  0.00    +0.000 S 
ATOM     25  C   UNL     1      47.694   7.563  19.814  0.00  0.00    +0.000 A 
ATOM     26  N   UNL     1      47.209   8.463  20.710  0.00  0.00    +0.000 NA
ATOM     27  C   UNL     1      47.086   9.663  20.247  0.00  0.00    +0.000 A 
ATOM     28  N   UNL     1      47.419  10.047  18.974  0.00  0.00    +0.000 N 
ATOM     29  C   UNL     1      47.952   9.179  18.049  0.00  0.00    +0.000 A 
ATOM     30  O   UNL     1      48.307   9.568  16.941  0.00  0.00    +0.000 OA
ATOM     31  C   UNL     1      48.075   7.812  18.507  0.00  0.00    +0.000 A 
ATOM     32  H   UNL     1      47.318  11.007  18.681  0.00  0.00    +0.000 HD
ENDBRANCH  19  22
ENDBRANCH   2  18
TORSDOF 5
ENDMDL
MODEL 5
REMARK VINA RESULT:    -7.428      2.545      4.338
REMARK INTER + INTRA:         -10.586
REMARK INTER:                  -9.362
REMARK INTRA:                  -1.224
REMARK UNBOUND:                -0.987
REMARK  Name = 
REMARK  6 active torsions:
REMARK  status: ('A' for Active; 'I' for Inactive)
REMARK    1  A    between atoms: C_1  and  C_2
REMARK    2  A    between atoms: C_2  and  N_3
REMARK    3  A    between atoms: C_2  and  C_16
REMARK    4  A    between atoms: C_4  and  C_6
REMARK    5  A    between atoms: C_19  and  C_20
REMARK    6  A    between atoms: C_20  and  N_21
REMARK                            x       y       z     vdW  Elec       q    Type
REMARK                         _______ _______ _______ _____ _____    ______ ____
ROOT
ATOM      1  C   UNL     1      47.552   4.146  15.583  0.00  0.00    +0.000 C 
ATOM      2  C   UNL     1      47.120   5.400  14.815  0.00  0.00    +0.000 C 
ENDROOT
BRANCH   2   3
ATOM      3  C   UNL     1      46.212   4.993  13.657  0.00  0.00    +0.000 A 
ATOM      4  C   UNL     1      46.161   3.657  13.236  0.00  0.00    +0.000 A 
ATOM      5  C   UNL     1      45.327   3.272  12.180  0.00  0.00    +0.000 A 
ATOM      6  C   UNL     1      44.531   4.213  11.513  0.00  0.00    +0.000 A 
ATOM      7  C   UNL     1      44.586   5.550  11.923  0.00  0.00    +0.000 A 
ATOM      8  C   UNL     1      45.430   5.937  12.966  0.00  0.00    +0.000 A 
BRANCH   6   9
ATOM      9  C   UNL     1      43.639   3.795  10.368  0.00  0.00    +0.000 C 
BRANCH   9  10
ATOM     10  N   UNL     1      44.083   4.408   9.133  0.00  0.00    +0.000 N 
ATOM     11  C   UNL     1      45.094   3.690   8.506  0.00  0.00    +0.000 A 
ATOM     12  N   UNL     1      45.122   2.351   8.605  0.00  0.00    +0.000 NA
ATOM     13  C   UNL     1      46.124   1.705   7.985  0.00  0.00    +0.000 A 
ATOM     14  C   UNL     1      47.103   2.344   7.268  0.00  0.00    +0.000 A 
ATOM     15  C   UNL     1      46.993   3.712   7.226  0.00  0.00    +0.000 A 
ATOM     16  N   UNL     1      46.009   4.404   7.837  0.00  0.00    +0.000 NA
ATOM     17  H   UNL     1      44.403   5.366   9.211  0.00  0.00    +0.000 HD
ENDBRANCH   9  10
ENDBRANCH   6   9
ENDBRANCH   2   3
BRANCH   2  18
ATOM     18  N   UNL     1      48.249   6.181  14.327  0.00  0.00    +0.000 N 
ATOM     19  C   UNL     1      48.918   7.110  15.081  0.00  0.00    +0.000 C 
ATOM     20  O   UNL     1      48.643   7.339  16.254  0.00  0.00    +0.000 OA
ATOM     21  H   UNL     1      48.288   6.300  13.319  0.00  0.00    +0.000 HD
BRANCH  19  22
ATOM     22  C   UNL     1      50.050   7.781  14.426  0.00  0.00    +0.000 A 
ATOM     23  C   UNL     1      51.308   7.730  15.011  0.00  0.00    +0.000 A 
ATOM     24  S   UNL     1      52.511   8.546  14.121  0.00  0.00    +0.000 S 
ATOM     25  C   UNL     1      51.387   9.029  12.939  0.00  0.00    +0.000 A 
ATOM     26  N   UNL     1      51.765   9.807  11.890  0.00  0.00    +0.000 NA
ATOM     27  C   UNL     1      50.803  10.123  11.087  0.00  0.00    +0.000 A 
ATOM     28  N   UNL     1      49.502   9.719  11.230  0.00  0.00    +0.000 N 
ATOM     29  C   UNL     1      49.084   8.898  12.252  0.00  0.00    +0.000 A 
ATOM     30  O   UNL     1      47.927   8.494  12.313  0.00  0.00    +0.000 OA
ATOM     31  C   UNL     1      50.117   8.545  13.202  0.00  0.00    +0.000 A 
ATOM     32  H   UNL     1      48.800   9.985  10.554  0.00  0.00    +0.000 HD
ENDBRANCH  19  22
ENDBRANCH   2  18
TORSDOF 5
ENDMDL
MODEL 6
REMARK VINA RESULT:    -7.336      3.197      7.982
REMARK INTER + INTRA:         -10.468
REMARK INTER:                  -9.403
REMARK INTRA:                  -1.065
REMARK UNBOUND:                -0.987
REMARK  Name = 
REMARK  6 active torsions:
REMARK  status: ('A' for Active; 'I' for Inactive)
REMARK    1  A    between atoms: C_1  and  C_2
REMARK    2  A    between atoms: C_2  and  N_3
REMARK    3  A    between atoms: C_2  and  C_16
REMARK    4  A    between atoms: C_4  and  C_6
REMARK    5  A    between atoms: C_19  and  C_20
REMARK    6  A    between atoms: C_20  and  N_21
REMARK                            x       y       z     vdW  Elec       q    Type
REMARK                         _______ _______ _______ _____ _____    ______ ____
ROOT
ATOM      1  C   UNL     1      49.762   8.068  11.474  0.00  0.00    +0.000 C 
ATOM      2  C   UNL     1      48.532   7.707  12.315  0.00  0.00    +0.000 C 
ENDROOT
BRANCH   2   3
ATOM      3  C   UNL     1      48.985   7.266  13.706  0.00  0.00    +0.000 A 
ATOM      4  C   UNL     1      48.158   6.455  14.494  0.00  0.00    +0.000 A 
ATOM      5  C   UNL     1      48.568   6.040  15.767  0.00  0.00    +0.000 A 
ATOM      6  C   UNL     1      49.809   6.433  16.285  0.00  0.00    +0.000 A 
ATOM      7  C   UNL     1      50.635   7.251  15.506  0.00  0.00    +0.000 A 
ATOM      8  C   UNL     1      50.219   7.678  14.243  0.00  0.00    +0.000 A 
BRANCH   6   9
ATOM      9  C   UNL     1      50.243   5.990  17.663  0.00  0.00    +0.000 C 
BRANCH   9  10
ATOM     10  N   UNL     1      49.670   4.698  17.982  0.00  0.00    +0.000 N 
ATOM     11  C   UNL     1      50.583   3.657  17.858  0.00  0.00    +0.000 A 
ATOM     12  N   UNL     1      51.880   3.872  18.131  0.00  0.00    +0.000 NA
ATOM     13  C   UNL     1      52.722   2.833  17.990  0.00  0.00    +0.000 A 
ATOM     14  C   UNL     1      52.320   1.587  17.584  0.00  0.00    +0.000 A 
ATOM     15  C   UNL     1      50.977   1.466  17.325  0.00  0.00    +0.000 A 
ATOM     16  N   UNL     1      50.095   2.480  17.446  0.00  0.00    +0.000 NA
ATOM     17  H   UNL     1      48.850   4.440  17.447  0.00  0.00    +0.000 HD
ENDBRANCH   9  10
ENDBRANCH   6   9
ENDBRANCH   2   3
BRANCH   2  18
ATOM     18  N   UNL     1      47.709   6.675  11.698  0.00  0.00    +0.000 N 
ATOM     19  C   UNL     1      46.361   6.803  11.480  0.00  0.00    +0.000 C 
ATOM     20  O   UNL     1      45.735   7.821  11.756  0.00  0.00    +0.000 OA
ATOM     21  H   UNL     1      48.068   5.728  11.780  0.00  0.00    +0.000 HD
BRANCH  19  22
ATOM     22  C   UNL     1      45.702   5.666  10.821  0.00  0.00    +0.000 A 
ATOM     23  C   UNL     1      45.782   5.536   9.441  0.00  0.00    +0.000 A 
ATOM     24  S   UNL     1      44.976   4.161   8.835  0.00  0.00    +0.000 S 
ATOM     25  C   UNL     1      44.460   3.710  10.392  0.00  0.00    +0.000 A 
ATOM     26  N   UNL     1      43.677   2.614  10.580  0.00  0.00    +0.000 NA
ATOM     27  C   UNL     1      43.334   2.408  11.808  0.00  0.00    +0.000 A 
ATOM     28  N   UNL     1      43.717   3.189  12.867  0.00  0.00    +0.000 N 
ATOM     29  C   UNL     1      44.543   4.280  12.729  0.00  0.00    +0.000 A 
ATOM     30  O   UNL     1      44.927   4.917  13.705  0.00  0.00    +0.000 OA
ATOM     31  C   UNL     1      44.925   4.577  11.365  0.00  0.00    +0.000 A 
ATOM     32  H   UNL     1      43.431   2.960  13.808  0.00  0.00    +0.000 HD
ENDBRANCH  19  22
ENDBRANCH   2  18
TORSDOF 5
ENDMDL
MODEL 7
REMARK VINA RESULT:    -7.300      3.784      5.134
REMARK INTER + INTRA:         -10.421
REMARK INTER:                  -9.424
REMARK INTRA:                  -0.997
REMARK UNBOUND:                -0.987
REMARK  Name = 
REMARK  6 active torsions:
REMARK  status: ('A' for Active; 'I' for Inactive)
REMARK    1  A    between atoms: C_1  and  C_2
REMARK    2  A    between atoms: C_2  and  N_3
REMARK    3  A    between atoms: C_2  and  C_16
REMARK    4  A    between atoms: C_4  and  C_6
REMARK    5  A    between atoms: C_19  and  C_20
REMARK    6  A    between atoms: C_20  and  N_21
REMARK                            x       y       z     vdW  Elec       q    Type
REMARK                         _______ _______ _______ _____ _____    ______ ____
ROOT
ATOM      1  C   UNL     1      48.192   6.107  15.124  0.00  0.00    +0.000 C 
ATOM      2  C   UNL     1      48.045   6.872  13.804  0.00  0.00    +0.000 C 
ENDROOT
BRANCH   2   3
ATOM      3  C   UNL     1      46.987   6.187  12.941  0.00  0.00    +0.000 A 
ATOM      4  C   UNL     1      46.512   4.914  13.285  0.00  0.00    +0.000 A 
ATOM      5  C   UNL     1      45.536   4.282  12.504  0.00  0.00    +0.000 A 
ATOM      6  C   UNL     1      45.019   4.902  11.359  0.00  0.00    +0.000 A 
ATOM      7  C   UNL     1      45.498   6.169  11.006  0.00  0.00    +0.000 A 
ATOM      8  C   UNL     1      46.483   6.793  11.776  0.00  0.00    +0.000 A 
BRANCH   6   9
ATOM      9  C   UNL     1      43.973   4.212  10.515  0.00  0.00    +0.000 C 
BRANCH   9  10
ATOM     10  N   UNL     1      44.188   4.498   9.111  0.00  0.00    +0.000 N 
ATOM     11  C   UNL     1      45.098   3.631   8.516  0.00  0.00    +0.000 A 
ATOM     12  N   UNL     1      45.175   2.357   8.932  0.00  0.00    +0.000 NA
ATOM     13  C   UNL     1      46.075   1.563   8.328  0.00  0.00    +0.000 A 
ATOM     14  C   UNL     1      46.903   1.991   7.322  0.00  0.00    +0.000 A 
ATOM     15  C   UNL     1      46.754   3.309   6.968  0.00  0.00    +0.000 A 
ATOM     16  N   UNL     1      45.870   4.146   7.550  0.00  0.00    +0.000 NA
ATOM     17  H   UNL     1      44.493   5.440   8.899  0.00  0.00    +0.000 HD
ENDBRANCH   9  10
ENDBRANCH   6   9
ENDBRANCH   2   3
BRANCH   2  18
ATOM     18  N   UNL     1      49.301   6.985  13.074  0.00  0.00    +0.000 N 
ATOM     19  C   UNL     1      49.768   8.157  12.536  0.00  0.00    +0.000 C 
ATOM     20  O   UNL     1      49.179   9.226  12.656  0.00  0.00    +0.000 OA
ATOM     21  H   UNL     1      49.632   6.125  12.647  0.00  0.00    +0.000 HD
BRANCH  19  22
ATOM     22  C   UNL     1      51.069   8.082  11.856  0.00  0.00    +0.000 A 
ATOM     23  C   UNL     1      51.162   7.446  10.626  0.00  0.00    +0.000 A 
ATOM     24  S   UNL     1      52.735   7.456   9.967  0.00  0.00    +0.000 S 
ATOM     25  C   UNL     1      53.356   8.278  11.320  0.00  0.00    +0.000 A 
ATOM     26  N   UNL     1      54.680   8.573  11.414  0.00  0.00    +0.000 NA
ATOM     27  C   UNL     1      55.018   9.170  12.508  0.00  0.00    +0.000 A 
ATOM     28  N   UNL     1      54.148   9.515  13.509  0.00  0.00    +0.000 N 
ATOM     29  C   UNL     1      52.796   9.275  13.438  0.00  0.00    +0.000 A 
ATOM     30  O   UNL     1      52.032   9.660  14.318  0.00  0.00    +0.000 OA
ATOM     31  C   UNL     1      52.371   8.572  12.247  0.00  0.00    +0.000 A 
ATOM     32  H   UNL     1      54.474  10.001  14.332  0.00  0.00    +0.000 HD
ENDBRANCH  19  22
ENDBRANCH   2  18
TORSDOF 5
ENDMDL
MODEL 8
REMARK VINA RESULT:    -7.232      4.272      9.089
REMARK INTER + INTRA:         -10.333
REMARK INTER:                  -9.782
REMARK INTRA:                  -0.550
REMARK UNBOUND:                -0.987
REMARK  Name = 
REMARK  6 active torsions:
REMARK  status: ('A' for Active; 'I' for Inactive)
REMARK    1  A    between atoms: C_1  and  C_2
REMARK    2  A    between atoms: C_2  and  N_3
REMARK    3  A    between atoms: C_2  and  C_16
REMARK    4  A    between atoms: C_4  and  C_6
REMARK    5  A    between atoms: C_19  and  C_20
REMARK    6  A    between atoms: C_20  and  N_21
REMARK                            x       y       z     vdW  Elec       q    Type
REMARK                         _______ _______ _______ _____ _____    ______ ____
ROOT
ATOM      1  C   UNL     1      47.092   5.166  18.459  0.00  0.00    +0.000 C 
ATOM      2  C   UNL     1      47.527   4.306  17.268  0.00  0.00    +0.000 C 
ENDROOT
BRANCH   2   3
ATOM      3  C   UNL     1      49.000   3.935  17.427  0.00  0.00    +0.000 A 
ATOM      4  C   UNL     1      49.405   2.596  17.332  0.00  0.00    +0.000 A 
ATOM      5  C   UNL     1      50.754   2.247  17.469  0.00  0.00    +0.000 A 
ATOM      6  C   UNL     1      51.728   3.225  17.713  0.00  0.00    +0.000 A 
ATOM      7  C   UNL     1      51.327   4.562  17.819  0.00  0.00    +0.000 A 
ATOM      8  C   UNL     1      49.979   4.908  17.698  0.00  0.00    +0.000 A 
BRANCH   6   9
ATOM      9  C   UNL     1      53.182   2.842  17.869  0.00  0.00    +0.000 C 
BRANCH   9  10
ATOM     10  N   UNL     1      53.325   1.802  18.866  0.00  0.00    +0.000 N 
ATOM     11  C   UNL     1      54.016   0.692  18.393  0.00  0.00    +0.000 A 
ATOM     12  N   UNL     1      54.991   0.851  17.484  0.00  0.00    +0.000 NA
ATOM     13  C   UNL     1      55.624  -0.255  17.056  0.00  0.00    +0.000 A 
ATOM     14  C   UNL     1      55.321  -1.516  17.499  0.00  0.00    +0.000 A 
ATOM     15  C   UNL     1      54.307  -1.579  18.424  0.00  0.00    +0.000 A 
ATOM     16  N   UNL     1      53.640  -0.499  18.879  0.00  0.00    +0.000 NA
ATOM     17  H   UNL     1      52.461   1.463  19.272  0.00  0.00    +0.000 HD
ENDBRANCH   9  10
ENDBRANCH   6   9
ENDBRANCH   2   3
BRANCH   2  18
ATOM     18  N   UNL     1      47.303   4.960  15.986  0.00  0.00    +0.000 N 
ATOM     19  C   UNL     1      47.247   4.294  14.788  0.00  0.00    +0.000 C 
ATOM     20  O   UNL     1      47.346   3.075  14.699  0.00  0.00    +0.000 OA
ATOM     21  H   UNL     1      47.566   5.941  15.949  0.00  0.00    +0.000 HD
BRANCH  19  22
ATOM     22  C   UNL     1      46.986   5.121  13.601  0.00  0.00    +0.000 A 
ATOM     23  C   UNL     1      47.657   6.326  13.446  0.00  0.00    +0.000 A 
ATOM     24  S   UNL     1      47.251   7.157  12.014  0.00  0.00    +0.000 S 
ATOM     25  C   UNL     1      46.135   5.953  11.567  0.00  0.00    +0.000 A 
ATOM     26  N   UNL     1      45.396   6.070  10.431  0.00  0.00    +0.000 NA
ATOM     27  C   UNL     1      44.568   5.099  10.231  0.00  0.00    +0.000 A 
ATOM     28  N   UNL     1      44.424   4.014  11.056  0.00  0.00    +0.000 N 
ATOM     29  C   UNL     1      45.181   3.834  12.190  0.00  0.00    +0.000 A 
ATOM     30  O   UNL     1      45.079   2.817  12.870  0.00  0.00    +0.000 OA
ATOM     31  C   UNL     1      46.098   4.914  12.480  0.00  0.00    +0.000 A 
ATOM     32  H   UNL     1      43.772   3.277  10.831  0.00  0.00    +0.000 HD
ENDBRANCH  19  22
ENDBRANCH   2  18
TORSDOF 5
ENDMDL
MODEL 9
REMARK VINA RESULT:    -7.221      3.061      4.602
REMARK INTER + INTRA:         -10.318
REMARK INTER:                  -9.237
REMARK INTRA:                  -1.081
REMARK UNBOUND:                -0.987
REMARK  Name = 
REMARK  6 active torsions:
REMARK  status: ('A' for Active; 'I' for Inactive)
REMARK    1  A    between atoms: C_1  and  C_2
REMARK    2  A    between atoms: C_2  and  N_3
REMARK    3  A    between atoms: C_2  and  C_16
REMARK    4  A    between atoms: C_4  and  C_6
REMARK    5  A    between atoms: C_19  and  C_20
REMARK    6  A    between atoms: C_20  and  N_21
REMARK                            x       y       z     vdW  Elec       q    Type
REMARK                         _______ _______ _______ _____ _____    ______ ____
ROOT
ATOM      1  C   UNL     1      47.592   5.233  14.775  0.00  0.00    +0.000 C 
ATOM      2  C   UNL     1      46.929   6.197  13.786  0.00  0.00    +0.000 C 
ENDROOT
BRANCH   2   3
ATOM      3  C   UNL     1      46.194   5.393  12.716  0.00  0.00    +0.000 A 
ATOM      4  C   UNL     1      45.814   4.067  12.966  0.00  0.00    +0.000 A 
ATOM      5  C   UNL     1      45.133   3.324  11.994  0.00  0.00    +0.000 A 
ATOM      6  C   UNL     1      44.824   3.884  10.747  0.00  0.00    +0.000 A 
ATOM      7  C   UNL     1      45.210   5.204  10.489  0.00  0.00    +0.000 A 
ATOM      8  C   UNL     1      45.903   5.940  11.453  0.00  0.00    +0.000 A 
BRANCH   6   9
ATOM      9  C   UNL     1      44.097   3.075   9.698  0.00  0.00    +0.000 C 
BRANCH   9  10
ATOM     10  N   UNL     1      44.434   3.550   8.372  0.00  0.00    +0.000 N 
ATOM     11  C   UNL     1      45.568   2.936   7.851  0.00  0.00    +0.000 A 
ATOM     12  N   UNL     1      45.841   1.660   8.167  0.00  0.00    +0.000 NA
ATOM     13  C   UNL     1      46.952   1.117   7.641  0.00  0.00    +0.000 A 
ATOM     14  C   UNL     1      47.804   1.799   6.811  0.00  0.00    +0.000 A 
ATOM     15  C   UNL     1      47.445   3.098   6.549  0.00  0.00    +0.000 A 
ATOM     16  N   UNL     1      46.344   3.688   7.058  0.00  0.00    +0.000 NA
ATOM     17  H   UNL     1      44.572   4.549   8.287  0.00  0.00    +0.000 HD
ENDBRANCH   9  10
ENDBRANCH   6   9
ENDBRANCH   2   3
BRANCH   2  18
ATOM     18  N   UNL     1      47.878   7.116  13.169  0.00  0.00    +0.000 N 
ATOM     19  C   UNL     1      47.711   8.476  13.134  0.00  0.00    +0.000 C 
ATOM     20  O   UNL     1      46.757   9.044  13.656  0.00  0.00    +0.000 OA
ATOM     21  H   UNL     1      48.463   6.710  12.444  0.00  0.00    +0.000 HD
BRANCH  19  22
ATOM     22  C   UNL     1      48.788   9.243  12.492  0.00  0.00    +0.000 A 
ATOM     23  C   UNL     1      48.472  10.181  11.518  0.00  0.00    +0.000 A 
ATOM     24  S   UNL     1      49.831  10.990  10.881  0.00  0.00    +0.000 S 
ATOM     25  C   UNL     1      50.894  10.090  11.857  0.00  0.00    +0.000 A 
ATOM     26  N   UNL     1      52.240  10.267  11.775  0.00  0.00    +0.000 NA
ATOM     27  C   UNL     1      52.928   9.496  12.551  0.00  0.00    +0.000 A 
ATOM     28  N   UNL     1      52.390   8.576  13.413  0.00  0.00    +0.000 N 
ATOM     29  C   UNL     1      51.034   8.394  13.559  0.00  0.00    +0.000 A 
ATOM     30  O   UNL     1      50.582   7.613  14.391  0.00  0.00    +0.000 OA
ATOM     31  C   UNL     1      50.219   9.208  12.683  0.00  0.00    +0.000 A 
ATOM     32  H   UNL     1      52.983   8.017  14.009  0.00  0.00    +0.000 HD
ENDBRANCH  19  22
ENDBRANCH   2  18
TORSDOF 5
ENDMDL
