MODEL 1
REMARK VINA RESULT:    -7.555      0.000      0.000
REMARK INTER + INTRA:         -10.791
REMARK INTER:                 -10.426
REMARK INTRA:                  -0.365
REMARK UNBOUND:                -0.365
REMARK  Name = 
REMARK  7 active torsions:
REMARK  status: ('A' for Active; 'I' for Inactive)
REMARK    1  A    between atoms: N_1  and  C_2
REMARK    2  A    between atoms: C_2  and  C_3
REMARK    3  A    between atoms: C_3  and  N_4
REMARK    4  A    between atoms: C_3  and  C_17
REMARK    5  A    between atoms: C_5  and  C_7
REMARK    6  A    between atoms: C_20  and  O_21
REMARK    7  A    between atoms: O_21  and  C_22
REMARK                            x       y       z     vdW  Elec       q    Type
REMARK                         _______ _______ _______ _____ _____    ______ ____
ROOT
ATOM      1  C   UNL     1      44.226   5.622  12.347  0.00  0.00    +0.000 C 
ENDROOT
BRANCH   1   2
ATOM      2  C   UNL     1      44.752   5.378  10.930  0.00  0.00    +0.000 A 
ATOM      3  C   UNL     1      44.161   4.367  10.156  0.00  0.00    +0.000 A 
ATOM      4  C   UNL     1      44.705   3.988   8.926  0.00  0.00    +0.000 A 
ATOM      5  C   UNL     1      45.830   4.636   8.418  0.00  0.00    +0.000 A 
ATOM      6  C   UNL     1      46.415   5.660   9.167  0.00  0.00    +0.000 A 
ATOM      7  C   UNL     1      45.884   6.030  10.413  0.00  0.00    +0.000 A 
BRANCH   5   8
ATOM      8  O   UNL     1      46.450   4.304   7.238  0.00  0.00    +0.000 OA
BRANCH   8   9
ATOM      9  C   UNL     1      46.127   3.007   6.711  0.00  0.00    +0.000 C 
ATOM     10  C   UNL     1      46.557   1.897   7.647  0.00  0.00    +0.000 C 
ATOM     11  C   UNL     1      47.898   1.432   7.126  0.00  0.00    +0.000 C 
ATOM     12  O   UNL     1      48.069   1.924   5.799  0.00  0.00    +0.000 OA
ATOM     13  C   UNL     1      46.943   2.738   5.453  0.00  0.00    +0.000 C 
ENDBRANCH   8   9
ENDBRANCH   5   8
ENDBRANCH   1   2
BRANCH   1  14
ATOM     14  N   UNL     1      45.322   5.765  13.299  0.00  0.00    +0.000 N 
ATOM     15  C   UNL     1      46.128   4.704  13.643  0.00  0.00    +0.000 C 
ATOM     16  O   UNL     1      46.078   3.618  13.076  0.00  0.00    +0.000 OA
ATOM     17  H   UNL     1      45.211   6.503  13.987  0.00  0.00    +0.000 HD
BRANCH  15  18
ATOM     18  C   UNL     1      47.103   4.938  14.717  0.00  0.00    +0.000 A 
ATOM     19  C   UNL     1      47.079   4.142  15.853  0.00  0.00    +0.000 A 
ATOM     20  S   UNL     1      48.246   4.588  17.016  0.00  0.00    +0.000 S 
ATOM     21  C   UNL     1      48.780   5.889  16.059  0.00  0.00    +0.000 A 
ATOM     22  N   UNL     1      49.736   6.745  16.508  0.00  0.00    +0.000 NA
ATOM     23  C   UNL     1      50.007   7.714  15.697  0.00  0.00    +0.000 A 
ATOM     24  N   UNL     1      49.430   7.887  14.465  0.00  0.00    +0.000 N 
ATOM     25  C   UNL     1      48.511   7.009  13.942  0.00  0.00    +0.000 A 
ATOM     26  O   UNL     1      48.094   7.123  12.795  0.00  0.00    +0.000 OA
ATOM     27  C   UNL     1      48.123   5.945  14.843  0.00  0.00    +0.000 A 
ATOM     28  H   UNL     1      49.717   8.645  13.863  0.00  0.00    +0.000 HD
ENDBRANCH  15  18
ENDBRANCH   1  14
BRANCH   1  29
ATOM     29  C   UNL     1      43.221   4.489  12.739  0.00  0.00    +0.000 C 
BRANCH  29  30
ATOM     30  N   UNL     1      42.539   4.678  14.031  0.00  0.00    +0.000 NA
ATOM     31  H   UNL     1      42.550   5.670  14.261  0.00  0.00    +0.000 HD
ATOM     32  H   UNL     1      43.082   4.219  14.764  0.00  0.00    +0.000 HD
ENDBRANCH  29  30
ENDBRANCH   1  29
TORSDOF 7
ENDMDL
MODEL 2
REMARK VINA RESULT:    -7.541      1.397      2.147
REMARK INTER + INTRA:         -10.771
REMARK INTER:                 -10.846
REMARK INTRA:                   0.074
REMARK UNBOUND:                -0.365
REMARK  Name = 
REMARK  7 active torsions:
REMARK  status: ('A' for Active; 'I' for Inactive)
REMARK    1  A    between atoms: N_1  and  C_2
REMARK    2  A    between atoms: C_2  and  C_3
REMARK    3  A    between atoms: C_3  and  N_4
REMARK    4  A    between atoms: C_3  and  C_17
REMARK    5  A    between atoms: C_5  and  C_7
REMARK    6  A    between atoms: C_20  and  O_21
REMARK    7  A    between atoms: O_21  and  C_22
REMARK                            x       y       z     vdW  Elec       q    Type
REMARK                         _______ _______ _______ _____ _____    ______ ____
ROOT
ATOM      1  C   UNL     1      44.519   5.461  12.608  0.00  0.00    +0.000 C 
ENDROOT
BRANCH   1   2
ATOM      2  C   UNL     1      44.909   5.256  11.141  0.00  0.00    +0.000 A 
ATOM      3  C   UNL     1      44.268   4.246  10.408  0.00  0.00    +0.000 A 
ATOM      4  C   UNL     1      44.697   3.903   9.123  0.00  0.00    +0.000 A 
ATOM      5  C   UNL     1      45.752   4.587   8.522  0.00  0.00    +0.000 A 
ATOM      6  C   UNL     1      46.385   5.611   9.231  0.00  0.00    +0.000 A 
ATOM      7  C   UNL     1      45.970   5.944  10.530  0.00  0.00    +0.000 A 
BRANCH   5   8
ATOM      8  O   UNL     1      46.261   4.292   7.281  0.00  0.00    +0.000 OA
BRANCH   8   9
ATOM      9  C   UNL     1      46.003   2.961   6.805  0.00  0.00    +0.000 C 
ATOM     10  C   UNL     1      46.550   1.911   7.749  0.00  0.00    +0.000 C 
ATOM     11  C   UNL     1      47.895   1.522   7.177  0.00  0.00    +0.000 C 
ATOM     12  O   UNL     1      47.971   1.983   5.830  0.00  0.00    +0.000 OA
ATOM     13  C   UNL     1      46.777   2.709   5.517  0.00  0.00    +0.000 C 
ENDBRANCH   8   9
ENDBRANCH   5   8
ENDBRANCH   1   2
BRANCH   1  14
ATOM     14  N   UNL     1      45.664   5.891  13.403  0.00  0.00    +0.000 N 
ATOM     15  C   UNL     1      46.561   4.989  13.931  0.00  0.00    +0.000 C 
ATOM     16  O   UNL     1      46.546   3.795  13.654  0.00  0.00    +0.000 OA
ATOM     17  H   UNL     1      45.550   6.771  13.896  0.00  0.00    +0.000 HD
BRANCH  15  18
ATOM     18  C   UNL     1      47.587   5.532  14.831  0.00  0.00    +0.000 A 
ATOM     19  C   UNL     1      48.395   6.576  14.404  0.00  0.00    +0.000 A 
ATOM     20  S   UNL     1      49.561   7.044  15.558  0.00  0.00    +0.000 S 
ATOM     21  C   UNL     1      49.055   5.833  16.641  0.00  0.00    +0.000 A 
ATOM     22  N   UNL     1      49.699   5.632  17.821  0.00  0.00    +0.000 NA
ATOM     23  C   UNL     1      49.237   4.648  18.518  0.00  0.00    +0.000 A 
ATOM     24  N   UNL     1      48.172   3.864  18.156  0.00  0.00    +0.000 N 
ATOM     25  C   UNL     1      47.449   4.073  17.006  0.00  0.00    +0.000 A 
ATOM     26  O   UNL     1      46.434   3.433  16.758  0.00  0.00    +0.000 OA
ATOM     27  C   UNL     1      47.971   5.123  16.156  0.00  0.00    +0.000 A 
ATOM     28  H   UNL     1      47.836   3.134  18.767  0.00  0.00    +0.000 HD
ENDBRANCH  15  18
ENDBRANCH   1  14
BRANCH   1  29
ATOM     29  C   UNL     1      43.845   4.163  13.162  0.00  0.00    +0.000 C 
BRANCH  29  30
ATOM     30  N   UNL     1      42.656   4.384  14.002  0.00  0.00    +0.000 NA
ATOM     31  H   UNL     1      42.939   4.343  14.980  0.00  0.00    +0.000 HD
ATOM     32  H   UNL     1      42.006   3.608  13.871  0.00  0.00    +0.000 HD
ENDBRANCH  29  30
ENDBRANCH   1  29
TORSDOF 7
ENDMDL
MODEL 3
REMARK VINA RESULT:    -7.106      4.631      8.811
REMARK INTER + INTRA:         -10.171
REMARK INTER:                  -9.522
REMARK INTRA:                  -0.649
REMARK UNBOUND:                -0.365
REMARK  Name = 
REMARK  7 active torsions:
REMARK  status: ('A' for Active; 'I' for Inactive)
REMARK    1  A    between atoms: N_1  and  C_2
REMARK    2  A    between atoms: C_2  and  C_3
REMARK    3  A    between atoms: C_3  and  N_4
REMARK    4  A    between atoms: C_3  and  C_17
REMARK    5  A    between atoms: C_5  and  C_7
REMARK    6  A    between atoms: C_20  and  O_21
REMARK    7  A    between atoms: O_21  and  C_22
REMARK                            x       y       z     vdW  Elec       q    Type
REMARK                         _______ _______ _______ _____ _____    ______ ____
ROOT
ATOM      1  C   UNL     1      48.232   5.335  17.337  0.00  0.00    +0.000 C 
ENDROOT
BRANCH   1   2
ATOM      2  C   UNL     1      49.409   4.354  17.315  0.00  0.00    +0.000 A 
ATOM      3  C   UNL     1      49.151   2.996  17.074  0.00  0.00    +0.000 A 
ATOM      4  C   UNL     1      50.156   2.035  17.208  0.00  0.00    +0.000 A 
ATOM      5  C   UNL     1      51.455   2.410  17.547  0.00  0.00    +0.000 A 
ATOM      6  C   UNL     1      51.732   3.761  17.767  0.00  0.00    +0.000 A 
ATOM      7  C   UNL     1      50.720   4.728  17.655  0.00  0.00    +0.000 A 
BRANCH   5   8
ATOM      8  O   UNL     1      52.492   1.530  17.735  0.00  0.00    +0.000 OA
BRANCH   8   9
ATOM      9  C   UNL     1      53.798   2.122  17.832  0.00  0.00    +0.000 C 
ATOM     10  C   UNL     1      54.806   1.405  16.958  0.00  0.00    +0.000 C 
ATOM     11  C   UNL     1      55.516   0.438  17.879  0.00  0.00    +0.000 C 
ATOM     12  O   UNL     1      55.252   0.814  19.229  0.00  0.00    +0.000 OA
ATOM     13  C   UNL     1      54.355   1.930  19.237  0.00  0.00    +0.000 C 
ENDBRANCH   8   9
ENDBRANCH   5   8
ENDBRANCH   1   2
BRANCH   1  14
ATOM     14  N   UNL     1      47.530   5.343  16.058  0.00  0.00    +0.000 N 
ATOM     15  C   UNL     1      48.061   5.950  14.942  0.00  0.00    +0.000 C 
ATOM     16  O   UNL     1      49.204   6.391  14.904  0.00  0.00    +0.000 OA
ATOM     17  H   UNL     1      46.518   5.282  16.113  0.00  0.00    +0.000 HD
BRANCH  15  18
ATOM     18  C   UNL     1      47.196   6.018  13.756  0.00  0.00    +0.000 A 
ATOM     19  C   UNL     1      46.913   7.248  13.180  0.00  0.00    +0.000 A 
ATOM     20  S   UNL     1      45.856   7.143  11.846  0.00  0.00    +0.000 S 
ATOM     21  C   UNL     1      45.705   5.458  12.029  0.00  0.00    +0.000 A 
ATOM     22  N   UNL     1      44.869   4.737  11.236  0.00  0.00    +0.000 NA
ATOM     23  C   UNL     1      44.819   3.478  11.521  0.00  0.00    +0.000 A 
ATOM     24  N   UNL     1      45.550   2.870  12.509  0.00  0.00    +0.000 N 
ATOM     25  C   UNL     1      46.458   3.546  13.289  0.00  0.00    +0.000 A 
ATOM     26  O   UNL     1      47.180   2.961  14.088  0.00  0.00    +0.000 OA
ATOM     27  C   UNL     1      46.499   4.974  13.054  0.00  0.00    +0.000 A 
ATOM     28  H   UNL     1      45.494   1.872  12.653  0.00  0.00    +0.000 HD
ENDBRANCH  15  18
ENDBRANCH   1  14
BRANCH   1  29
ATOM     29  C   UNL     1      48.734   6.752  17.767  0.00  0.00    +0.000 C 
BRANCH  29  30
ATOM     30  N   UNL     1      47.679   7.684  18.202  0.00  0.00    +0.000 NA
ATOM     31  H   UNL     1      46.775   7.230  18.075  0.00  0.00    +0.000 HD
ATOM     32  H   UNL     1      47.671   8.492  17.579  0.00  0.00    +0.000 HD
ENDBRANCH  29  30
ENDBRANCH   1  29
TORSDOF 7
ENDMDL
MODEL 4
REMARK VINA RESULT:    -6.917      4.120      8.554
REMARK INTER + INTRA:          -9.911
REMARK INTER:                  -8.940
REMARK INTRA:                  -0.971
REMARK UNBOUND:                -0.365
REMARK  Name = 
REMARK  7 active torsions:
REMARK  status: ('A' for Active; 'I' for Inactive)
REMARK    1  A    between atoms: N_1  and  C_2
REMARK    2  A    between atoms: C_2  and  C_3
REMARK    3  A    between atoms: C_3  and  N_4
REMARK    4  A    between atoms: C_3  and  C_17
REMARK    5  A    between atoms: C_5  and  C_7
REMARK    6  A    between atoms: C_20  and  O_21
REMARK    7  A    between atoms: O_21  and  C_22
REMARK                            x       y       z     vdW  Elec       q    Type
REMARK                         _______ _______ _______ _____ _____    ______ ____
ROOT
ATOM      1  C   UNL     1      47.843   4.131  16.489  0.00  0.00    +0.000 C 
ENDROOT
BRANCH   1   2
ATOM      2  C   UNL     1      49.179   4.814  16.797  0.00  0.00    +0.000 A 
ATOM      3  C   UNL     1      49.413   6.099  16.286  0.00  0.00    +0.000 A 
ATOM      4  C   UNL     1      50.669   6.702  16.392  0.00  0.00    +0.000 A 
ATOM      5  C   UNL     1      51.714   6.052  17.046  0.00  0.00    +0.000 A 
ATOM      6  C   UNL     1      51.489   4.781  17.582  0.00  0.00    +0.000 A 
ATOM      7  C   UNL     1      50.234   4.164  17.459  0.00  0.00    +0.000 A 
BRANCH   5   8
ATOM      8  O   UNL     1      52.987   6.553  17.164  0.00  0.00    +0.000 OA
BRANCH   8   9
ATOM      9  C   UNL     1      53.341   7.575  16.218  0.00  0.00    +0.000 C 
ATOM     10  C   UNL     1      54.216   7.034  15.107  0.00  0.00    +0.000 C 
ATOM     11  C   UNL     1      55.634   7.360  15.520  0.00  0.00    +0.000 C 
ATOM     12  O   UNL     1      55.595   8.338  16.556  0.00  0.00    +0.000 OA
ATOM     13  C   UNL     1      54.230   8.618  16.885  0.00  0.00    +0.000 C 
ENDBRANCH   8   9
ENDBRANCH   5   8
ENDBRANCH   1   2
BRANCH   1  14
ATOM     14  N   UNL     1      47.068   4.901  15.521  0.00  0.00    +0.000 N 
ATOM     15  C   UNL     1      46.844   4.443  14.243  0.00  0.00    +0.000 C 
ATOM     16  O   UNL     1      47.147   3.313  13.877  0.00  0.00    +0.000 OA
ATOM     17  H   UNL     1      47.072   5.907  15.658  0.00  0.00    +0.000 HD
BRANCH  15  18
ATOM     18  C   UNL     1      46.176   5.371  13.320  0.00  0.00    +0.000 A 
ATOM     19  C   UNL     1      46.790   6.569  12.985  0.00  0.00    +0.000 A 
ATOM     20  S   UNL     1      45.850   7.542  11.945  0.00  0.00    +0.000 S 
ATOM     21  C   UNL     1      44.576   6.415  11.953  0.00  0.00    +0.000 A 
ATOM     22  N   UNL     1      43.408   6.670  11.306  0.00  0.00    +0.000 NA
ATOM     23  C   UNL     1      42.513   5.748  11.438  0.00  0.00    +0.000 A 
ATOM     24  N   UNL     1      42.689   4.582  12.137  0.00  0.00    +0.000 N 
ATOM     25  C   UNL     1      43.874   4.251  12.750  0.00  0.00    +0.000 A 
ATOM     26  O   UNL     1      44.045   3.155  13.272  0.00  0.00    +0.000 OA
ATOM     27  C   UNL     1      44.886   5.284  12.687  0.00  0.00    +0.000 A 
ATOM     28  H   UNL     1      41.961   3.883  12.169  0.00  0.00    +0.000 HD
ENDBRANCH  15  18
ENDBRANCH   1  14
BRANCH   1  29
ATOM     29  C   UNL     1      47.067   3.865  17.820  0.00  0.00    +0.000 C 
BRANCH  29  30
ATOM     30  N   UNL     1      46.596   5.071  18.522  0.00  0.00    +0.000 NA
ATOM     31  H   UNL     1      46.116   5.669  17.850  0.00  0.00    +0.000 HD
ATOM     32  H   UNL     1      47.404   5.607  18.841  0.00  0.00    +0.000 HD
ENDBRANCH  29  30
ENDBRANCH   1  29
TORSDOF 7
ENDMDL
MODEL 5
REMARK VINA RESULT:    -6.893      3.920      6.786
REMARK INTER + INTRA:          -9.877
REMARK INTER:                  -8.664
REMARK INTRA:                  -1.213
REMARK UNBOUND:                -0.365
REMARK  Name = 
REMARK  7 active torsions:
REMARK  status: ('A' for Active; 'I' for Inactive)
REMARK    1  A    between atoms: N_1  and  C_2
REMARK    2  A    between atoms: C_2  and  C_3
REMARK    3  A    between atoms: C_3  and  N_4
REMARK    4  A    between atoms: C_3  and  C_17
REMARK    5  A    between atoms: C_5  and  C_7
REMARK    6  A    between atoms: C_20  and  O_21
REMARK    7  A    between atoms: O_21  and  C_22
REMARK                            x       y       z     vdW  Elec       q    Type
REMARK                         _______ _______ _______ _____ _____    ______ ____
ROOT
ATOM      1  C   UNL     1      49.257   6.502  17.461  0.00  0.00    +0.000 C 
ENDROOT
BRANCH   1   2
ATOM      2  C   UNL     1      48.558   5.910  16.233  0.00  0.00    +0.000 A 
ATOM      3  C   UNL     1      48.560   6.643  15.037  0.00  0.00    +0.000 A 
ATOM      4  C   UNL     1      47.800   6.235  13.937  0.00  0.00    +0.000 A 
ATOM      5  C   UNL     1      47.049   5.062  13.991  0.00  0.00    +0.000 A 
ATOM      6  C   UNL     1      47.056   4.309  15.167  0.00  0.00    +0.000 A 
ATOM      7  C   UNL     1      47.801   4.727  16.281  0.00  0.00    +0.000 A 
BRANCH   5   8
ATOM      8  O   UNL     1      46.247   4.607  12.973  0.00  0.00    +0.000 OA
BRANCH   8   9
ATOM      9  C   UNL     1      45.379   5.588  12.382  0.00  0.00    +0.000 C 
ATOM     10  C   UNL     1      43.971   5.495  12.931  0.00  0.00    +0.000 C 
ATOM     11  C   UNL     1      43.205   4.663  11.925  0.00  0.00    +0.000 C 
ATOM     12  O   UNL     1      43.955   4.605  10.714  0.00  0.00    +0.000 OA
ATOM     13  C   UNL     1      45.196   5.295  10.898  0.00  0.00    +0.000 C 
ENDBRANCH   8   9
ENDBRANCH   5   8
ENDBRANCH   1   2
BRANCH   1  14
ATOM     14  N   UNL     1      50.267   5.588  17.984  0.00  0.00    +0.000 N 
ATOM     15  C   UNL     1      51.506   5.464  17.397  0.00  0.00    +0.000 C 
ATOM     16  O   UNL     1      51.896   6.204  16.501  0.00  0.00    +0.000 OA
ATOM     17  H   UNL     1      49.910   4.780  18.485  0.00  0.00    +0.000 HD
BRANCH  15  18
ATOM     18  C   UNL     1      52.382   4.409  17.926  0.00  0.00    +0.000 A 
ATOM     19  C   UNL     1      53.583   4.750  18.530  0.00  0.00    +0.000 A 
ATOM     20  S   UNL     1      54.492   3.399  19.038  0.00  0.00    +0.000 S 
ATOM     21  C   UNL     1      53.333   2.318  18.420  0.00  0.00    +0.000 A 
ATOM     22  N   UNL     1      53.533   0.975  18.460  0.00  0.00    +0.000 NA
ATOM     23  C   UNL     1      52.593   0.279  17.911  0.00  0.00    +0.000 A 
ATOM     24  N   UNL     1      51.457   0.805  17.349  0.00  0.00    +0.000 N 
ATOM     25  C   UNL     1      51.181   2.151  17.347  0.00  0.00    +0.000 A 
ATOM     26  O   UNL     1      50.110   2.587  16.941  0.00  0.00    +0.000 OA
ATOM     27  C   UNL     1      52.238   2.978  17.890  0.00  0.00    +0.000 A 
ATOM     28  H   UNL     1      50.741   0.202  16.971  0.00  0.00    +0.000 HD
ENDBRANCH  15  18
ENDBRANCH   1  14
BRANCH   1  29
ATOM     29  C   UNL     1      48.191   6.910  18.530  0.00  0.00    +0.000 C 
BRANCH  29  30
ATOM     30  N   UNL     1      47.456   8.153  18.238  0.00  0.00    +0.000 NA
ATOM     31  H   UNL     1      46.991   8.461  19.091  0.00  0.00    +0.000 HD
ATOM     32  H   UNL     1      46.708   7.949  17.574  0.00  0.00    +0.000 HD
ENDBRANCH  29  30
ENDBRANCH   1  29
TORSDOF 7
ENDMDL
MODEL 6
REMARK VINA RESULT:    -6.839      3.526      8.624
REMARK INTER + INTRA:          -9.802
REMARK INTER:                  -8.639
REMARK INTRA:                  -1.163
REMARK UNBOUND:                -0.365
REMARK  Name = 
REMARK  7 active torsions:
REMARK  status: ('A' for Active; 'I' for Inactive)
REMARK    1  A    between atoms: N_1  and  C_2
REMARK    2  A    between atoms: C_2  and  C_3
REMARK    3  A    between atoms: C_3  and  N_4
REMARK    4  A    between atoms: C_3  and  C_17
REMARK    5  A    between atoms: C_5  and  C_7
REMARK    6  A    between atoms: C_20  and  O_21
REMARK    7  A    between atoms: O_21  and  C_22
REMARK                            x       y       z     vdW  Elec       q    Type
REMARK                         _______ _______ _______ _____ _____    ______ ____
ROOT
ATOM      1  C   UNL     1      48.088   7.955  12.513  0.00  0.00    +0.000 C 
ENDROOT
BRANCH   1   2
ATOM      2  C   UNL     1      48.249   7.554  13.982  0.00  0.00    +0.000 A 
ATOM      3  C   UNL     1      48.814   8.476  14.875  0.00  0.00    +0.000 A 
ATOM      4  C   UNL     1      49.139   8.109  16.184  0.00  0.00    +0.000 A 
ATOM      5  C   UNL     1      48.870   6.822  16.647  0.00  0.00    +0.000 A 
ATOM      6  C   UNL     1      48.286   5.899  15.775  0.00  0.00    +0.000 A 
ATOM      7  C   UNL     1      47.978   6.258  14.454  0.00  0.00    +0.000 A 
BRANCH   5   8
ATOM      8  O   UNL     1      49.189   6.367  17.902  0.00  0.00    +0.000 OA
BRANCH   8   9
ATOM      9  C   UNL     1      48.281   5.404  18.462  0.00  0.00    +0.000 C 
ATOM     10  C   UNL     1      47.262   6.055  19.373  0.00  0.00    +0.000 C 
ATOM     11  C   UNL     1      47.812   5.889  20.772  0.00  0.00    +0.000 C 
ATOM     12  O   UNL     1      48.837   4.899  20.745  0.00  0.00    +0.000 OA
ATOM     13  C   UNL     1      49.031   4.461  19.395  0.00  0.00    +0.000 C 
ENDBRANCH   8   9
ENDBRANCH   5   8
ENDBRANCH   1   2
BRANCH   1  14
ATOM     14  N   UNL     1      47.482   6.879  11.735  0.00  0.00    +0.000 N 
ATOM     15  C   UNL     1      46.134   6.855  11.457  0.00  0.00    +0.000 C 
ATOM     16  O   UNL     1      45.385   7.791  11.711  0.00  0.00    +0.000 OA
ATOM     17  H   UNL     1      47.961   5.985  11.776  0.00  0.00    +0.000 HD
BRANCH  15  18
ATOM     18  C   UNL     1      45.621   5.649  10.792  0.00  0.00    +0.000 A 
ATOM     19  C   UNL     1      45.745   5.516   9.417  0.00  0.00    +0.000 A 
ATOM     20  S   UNL     1      45.050   4.080   8.811  0.00  0.00    +0.000 S 
ATOM     21  C   UNL     1      44.518   3.620  10.361  0.00  0.00    +0.000 A 
ATOM     22  N   UNL     1      43.775   2.498  10.543  0.00  0.00    +0.000 NA
ATOM     23  C   UNL     1      43.400   2.299  11.764  0.00  0.00    +0.000 A 
ATOM     24  N   UNL     1      43.725   3.108  12.823  0.00  0.00    +0.000 N 
ATOM     25  C   UNL     1      44.531   4.214  12.697  0.00  0.00    +0.000 A 
ATOM     26  O   UNL     1      44.900   4.856  13.674  0.00  0.00    +0.000 OA
ATOM     27  C   UNL     1      44.919   4.517  11.335  0.00  0.00    +0.000 A 
ATOM     28  H   UNL     1      43.433   2.873  13.760  0.00  0.00    +0.000 HD
ENDBRANCH  15  18
ENDBRANCH   1  14
BRANCH   1  29
ATOM     29  C   UNL     1      49.465   8.422  11.939  0.00  0.00    +0.000 C 
BRANCH  29  30
ATOM     30  N   UNL     1      50.482   7.364  11.814  0.00  0.00    +0.000 NA
ATOM     31  H   UNL     1      50.344   6.886  10.925  0.00  0.00    +0.000 HD
ATOM     32  H   UNL     1      50.320   6.659  12.534  0.00  0.00    +0.000 HD
ENDBRANCH  29  30
ENDBRANCH   1  29
TORSDOF 7
ENDMDL
MODEL 7
REMARK VINA RESULT:    -6.807      1.740      2.212
REMARK INTER + INTRA:          -9.758
REMARK INTER:                  -8.703
REMARK INTRA:                  -1.055
REMARK UNBOUND:                -0.365
REMARK  Name = 
REMARK  7 active torsions:
REMARK  status: ('A' for Active; 'I' for Inactive)
REMARK    1  A    between atoms: N_1  and  C_2
REMARK    2  A    between atoms: C_2  and  C_3
REMARK    3  A    between atoms: C_3  and  N_4
REMARK    4  A    between atoms: C_3  and  C_17
REMARK    5  A    between atoms: C_5  and  C_7
REMARK    6  A    between atoms: C_20  and  O_21
REMARK    7  A    between atoms: O_21  and  C_22
REMARK                            x       y       z     vdW  Elec       q    Type
REMARK                         _______ _______ _______ _____ _____    ______ ____
ROOT
ATOM      1  C   UNL     1      44.759   5.478  12.369  0.00  0.00    +0.000 C 
ENDROOT
BRANCH   1   2
ATOM      2  C   UNL     1      44.952   4.803  11.008  0.00  0.00    +0.000 A 
ATOM      3  C   UNL     1      44.649   3.439  10.883  0.00  0.00    +0.000 A 
ATOM      4  C   UNL     1      44.961   2.733   9.718  0.00  0.00    +0.000 A 
ATOM      5  C   UNL     1      45.549   3.381   8.633  0.00  0.00    +0.000 A 
ATOM      6  C   UNL     1      45.835   4.745   8.734  0.00  0.00    +0.000 A 
ATOM      7  C   UNL     1      45.542   5.452   9.911  0.00  0.00    +0.000 A 
BRANCH   5   8
ATOM      8  O   UNL     1      45.922   2.759   7.467  0.00  0.00    +0.000 OA
BRANCH   8   9
ATOM      9  C   UNL     1      47.142   3.233   6.874  0.00  0.00    +0.000 C 
ATOM     10  C   UNL     1      46.991   3.462   5.384  0.00  0.00    +0.000 C 
ATOM     11  C   UNL     1      47.525   2.207   4.731  0.00  0.00    +0.000 C 
ATOM     12  O   UNL     1      48.282   1.477   5.693  0.00  0.00    +0.000 OA
ATOM     13  C   UNL     1      48.214   2.153   6.954  0.00  0.00    +0.000 C 
ENDBRANCH   8   9
ENDBRANCH   5   8
ENDBRANCH   1   2
BRANCH   1  14
ATOM     14  N   UNL     1      46.038   5.694  13.037  0.00  0.00    +0.000 N 
ATOM     15  C   UNL     1      46.514   6.959  13.302  0.00  0.00    +0.000 C 
ATOM     16  O   UNL     1      45.843   7.971  13.133  0.00  0.00    +0.000 OA
ATOM     17  H   UNL     1      46.727   4.959  12.914  0.00  0.00    +0.000 HD
BRANCH  15  18
ATOM     18  C   UNL     1      47.876   7.049  13.845  0.00  0.00    +0.000 A 
ATOM     19  C   UNL     1      48.127   6.636  15.145  0.00  0.00    +0.000 A 
ATOM     20  S   UNL     1      49.749   6.860  15.624  0.00  0.00    +0.000 S 
ATOM     21  C   UNL     1      50.151   7.562  14.128  0.00  0.00    +0.000 A 
ATOM     22  N   UNL     1      51.396   8.055  13.895  0.00  0.00    +0.000 NA
ATOM     23  C   UNL     1      51.543   8.603  12.734  0.00  0.00    +0.000 A 
ATOM     24  N   UNL     1      50.566   8.679  11.775  0.00  0.00    +0.000 N 
ATOM     25  C   UNL     1      49.315   8.134  11.940  0.00  0.00    +0.000 A 
ATOM     26  O   UNL     1      48.497   8.115  11.029  0.00  0.00    +0.000 OA
ATOM     27  C   UNL     1      49.079   7.569  13.253  0.00  0.00    +0.000 A 
ATOM     28  H   UNL     1      50.760   9.086  10.872  0.00  0.00    +0.000 HD
ENDBRANCH  15  18
ENDBRANCH   1  14
BRANCH   1  29
ATOM     29  C   UNL     1      43.753   4.648  13.232  0.00  0.00    +0.000 C 
BRANCH  29  30
ATOM     30  N   UNL     1      42.507   5.348  13.589  0.00  0.00    +0.000 NA
ATOM     31  H   UNL     1      41.720   4.745  13.356  0.00  0.00    +0.000 HD
ATOM     32  H   UNL     1      42.408   6.173  12.995  0.00  0.00    +0.000 HD
ENDBRANCH  29  30
ENDBRANCH   1  29
TORSDOF 7
ENDMDL
MODEL 8
REMARK VINA RESULT:    -6.644      3.409      8.786
REMARK INTER + INTRA:          -9.534
REMARK INTER:                  -8.429
REMARK INTRA:                  -1.105
REMARK UNBOUND:                -0.365
REMARK  Name = 
REMARK  7 active torsions:
REMARK  status: ('A' for Active; 'I' for Inactive)
REMARK    1  A    between atoms: N_1  and  C_2
REMARK    2  A    between atoms: C_2  and  C_3
REMARK    3  A    between atoms: C_3  and  N_4
REMARK    4  A    between atoms: C_3  and  C_17
REMARK    5  A    between atoms: C_5  and  C_7
REMARK    6  A    between atoms: C_20  and  O_21
REMARK    7  A    between atoms: O_21  and  C_22
REMARK                            x       y       z     vdW  Elec       q    Type
REMARK                         _______ _______ _______ _____ _____    ______ ____
ROOT
ATOM      1  C   UNL     1      47.674   7.674  12.192  0.00  0.00    +0.000 C 
ENDROOT
BRANCH   1   2
ATOM      2  C   UNL     1      47.960   7.686  13.696  0.00  0.00    +0.000 A 
ATOM      3  C   UNL     1      47.831   8.895  14.397  0.00  0.00    +0.000 A 
ATOM      4  C   UNL     1      48.238   9.006  15.729  0.00  0.00    +0.000 A 
ATOM      5  C   UNL     1      48.747   7.900  16.409  0.00  0.00    +0.000 A 
ATOM      6  C   UNL     1      48.859   6.683  15.731  0.00  0.00    +0.000 A 
ATOM      7  C   UNL     1      48.471   6.574  14.386  0.00  0.00    +0.000 A 
BRANCH   5   8
ATOM      8  O   UNL     1      49.203   7.928  17.704  0.00  0.00    +0.000 OA
BRANCH   8   9
ATOM      9  C   UNL     1      48.762   6.846  18.540  0.00  0.00    +0.000 C 
ATOM     10  C   UNL     1      47.464   7.175  19.246  0.00  0.00    +0.000 C 
ATOM     11  C   UNL     1      47.869   7.661  20.620  0.00  0.00    +0.000 C 
ATOM     12  O   UNL     1      49.223   7.286  20.857  0.00  0.00    +0.000 OA
ATOM     13  C   UNL     1      49.742   6.642  19.689  0.00  0.00    +0.000 C 
ENDBRANCH   8   9
ENDBRANCH   5   8
ENDBRANCH   1   2
BRANCH   1  14
ATOM     14  N   UNL     1      46.911   6.490  11.810  0.00  0.00    +0.000 N 
ATOM     15  C   UNL     1      45.535   6.498  11.761  0.00  0.00    +0.000 C 
ATOM     16  O   UNL     1      44.871   7.520  11.888  0.00  0.00    +0.000 OA
ATOM     17  H   UNL     1      47.361   5.599  11.997  0.00  0.00    +0.000 HD
BRANCH  15  18
ATOM     18  C   UNL     1      44.878   5.209  11.505  0.00  0.00    +0.000 A 
ATOM     19  C   UNL     1      44.114   4.618  12.501  0.00  0.00    +0.000 A 
ATOM     20  S   UNL     1      43.470   3.104  12.048  0.00  0.00    +0.000 S 
ATOM     21  C   UNL     1      44.234   3.171  10.530  0.00  0.00    +0.000 A 
ATOM     22  N   UNL     1      44.152   2.134   9.656  0.00  0.00    +0.000 NA
ATOM     23  C   UNL     1      44.822   2.304   8.564  0.00  0.00    +0.000 A 
ATOM     24  N   UNL     1      45.543   3.428   8.255  0.00  0.00    +0.000 N 
ATOM     25  C   UNL     1      45.598   4.528   9.078  0.00  0.00    +0.000 A 
ATOM     26  O   UNL     1      46.155   5.563   8.731  0.00  0.00    +0.000 OA
ATOM     27  C   UNL     1      44.920   4.359  10.345  0.00  0.00    +0.000 A 
ATOM     28  H   UNL     1      46.012   3.513   7.365  0.00  0.00    +0.000 HD
ENDBRANCH  15  18
ENDBRANCH   1  14
BRANCH   1  29
ATOM     29  C   UNL     1      49.014   7.818  11.399  0.00  0.00    +0.000 C 
BRANCH  29  30
ATOM     30  N   UNL     1      49.678   9.127  11.524  0.00  0.00    +0.000 NA
ATOM     31  H   UNL     1      50.358   9.217  10.771  0.00  0.00    +0.000 HD
ATOM     32  H   UNL     1      50.220   9.144  12.389  0.00  0.00    +0.000 HD
ENDBRANCH  29  30
ENDBRANCH   1  29
TORSDOF 7
ENDMDL
MODEL 9
REMARK VINA RESULT:    -6.523      3.413      5.178
REMARK INTER + INTRA:          -9.366
REMARK INTER:                  -8.306
REMARK INTRA:                  -1.060
REMARK UNBOUND:                -0.365
REMARK  Name = 
REMARK  7 active torsions:
REMARK  status: ('A' for Active; 'I' for Inactive)
REMARK    1  A    between atoms: N_1  and  C_2
REMARK    2  A    between atoms: C_2  and  C_3
REMARK    3  A    between atoms: C_3  and  N_4
REMARK    4  A    between atoms: C_3  and  C_17
REMARK    5  A    between atoms: C_5  and  C_7
REMARK    6  A    between atoms: C_20  and  O_21
REMARK    7  A    between atoms: O_21  and  C_22
REMARK                            x       y       z     vdW  Elec       q    Type
REMARK                         _______ _______ _______ _____ _____    ______ ____
ROOT
ATOM      1  C   UNL     1      48.776   8.542  14.083  0.00  0.00    +0.000 C 
ENDROOT
BRANCH   1   2
ATOM      2  C   UNL     1      47.686   8.058  13.123  0.00  0.00    +0.000 A 
ATOM      3  C   UNL     1      46.376   8.532  13.296  0.00  0.00    +0.000 A 
ATOM      4  C   UNL     1      45.312   8.000  12.562  0.00  0.00    +0.000 A 
ATOM      5  C   UNL     1      45.535   7.010  11.607  0.00  0.00    +0.000 A 
ATOM      6  C   UNL     1      46.837   6.544  11.407  0.00  0.00    +0.000 A 
ATOM      7  C   UNL     1      47.905   7.060  12.158  0.00  0.00    +0.000 A 
BRANCH   5   8
ATOM      8  O   UNL     1      44.546   6.408  10.869  0.00  0.00    +0.000 OA
BRANCH   8   9
ATOM      9  C   UNL     1      43.713   5.482  11.586  0.00  0.00    +0.000 C 
ATOM     10  C   UNL     1      44.424   4.904  12.792  0.00  0.00    +0.000 C 
ATOM     11  C   UNL     1      44.974   3.572  12.330  0.00  0.00    +0.000 C 
ATOM     12  O   UNL     1      44.326   3.206  11.115  0.00  0.00    +0.000 OA
ATOM     13  C   UNL     1      43.434   4.257  10.724  0.00  0.00    +0.000 C 
ENDBRANCH   8   9
ENDBRANCH   5   8
ENDBRANCH   1   2
BRANCH   1  14
ATOM     14  N   UNL     1      48.790   7.750  15.309  0.00  0.00    +0.000 N 
ATOM     15  C   UNL     1      49.907   7.054  15.711  0.00  0.00    +0.000 C 
ATOM     16  O   UNL     1      50.996   7.165  15.157  0.00  0.00    +0.000 OA
ATOM     17  H   UNL     1      47.889   7.390  15.608  0.00  0.00    +0.000 HD
BRANCH  15  18
ATOM     18  C   UNL     1      49.752   6.179  16.881  0.00  0.00    +0.000 A 
ATOM     19  C   UNL     1      50.570   6.360  17.988  0.00  0.00    +0.000 A 
ATOM     20  S   UNL     1      50.286   5.225  19.230  0.00  0.00    +0.000 S 
ATOM     21  C   UNL     1      49.100   4.429  18.306  0.00  0.00    +0.000 A 
ATOM     22  N   UNL     1      48.493   3.302  18.762  0.00  0.00    +0.000 NA
ATOM     23  C   UNL     1      47.650   2.778  17.935  0.00  0.00    +0.000 A 
ATOM     24  N   UNL     1      47.339   3.295  16.704  0.00  0.00    +0.000 N 
ATOM     25  C   UNL     1      47.875   4.468  16.230  0.00  0.00    +0.000 A 
ATOM     26  O   UNL     1      47.498   4.969  15.177  0.00  0.00    +0.000 OA
ATOM     27  C   UNL     1      48.878   5.057  17.093  0.00  0.00    +0.000 A 
ATOM     28  H   UNL     1      46.640   2.857  16.122  0.00  0.00    +0.000 HD
ENDBRANCH  15  18
ENDBRANCH   1  14
BRANCH   1  29
ATOM     29  C   UNL     1      48.605  10.073  14.348  0.00  0.00    +0.000 C 
BRANCH  29  30
ATOM     30  N   UNL     1      48.351  10.441  15.752  0.00  0.00    +0.000 NA
ATOM     31  H   UNL     1      48.683  11.393  15.901  0.00  0.00    +0.000 HD
ATOM     32  H   UNL     1      48.921   9.851  16.359  0.00  0.00    +0.000 HD
ENDBRANCH  29  30
ENDBRANCH   1  29
TORSDOF 7
ENDMDL
