MODEL 1
REMARK VINA RESULT:    -8.162      0.000      0.000
REMARK INTER + INTRA:         -12.830
REMARK INTER:                 -11.501
REMARK INTRA:                  -1.329
REMARK UNBOUND:                -1.329
REMARK  Name = 
REMARK  8 active torsions:
REMARK  status: ('A' for Active; 'I' for Inactive)
REMARK    1  A    between atoms: C_1  and  N_2
REMARK    2  A    between atoms: N_2  and  C_3
REMARK    3  A    between atoms: N_2  and  C_11
REMARK    4  A    between atoms: C_3  and  C_4
REMARK    5  A    between atoms: C_11  and  C_12
REMARK    6  A    between atoms: C_15  and  C_16
REMARK    7  A    between atoms: C_16  and  N_17
REMARK    8  A    between atoms: C_18  and  C_20
REMARK                            x       y       z     vdW  Elec       q    Type
REMARK                         _______ _______ _______ _____ _____    ______ ____
ROOT
ATOM      1  C   UNL     1      45.027   5.602  12.613  0.00  0.00    +0.000 C 
ATOM      2  C   UNL     1      45.784   6.410  11.546  0.00  0.00    +0.000 C 
ATOM      3  C   UNL     1      46.980   7.152  12.148  0.00  0.00    +0.000 C 
ATOM      4  C   UNL     1      47.943   6.196  12.873  0.00  0.00    +0.000 C 
ATOM      5  C   UNL     1      47.184   5.373  13.924  0.00  0.00    +0.000 C 
ATOM      6  C   UNL     1      45.987   4.637  13.324  0.00  0.00    +0.000 C 
ENDROOT
BRANCH   1   7
ATOM      7  C   UNL     1      43.816   4.865  11.986  0.00  0.00    +0.000 C 
BRANCH   7   9
ATOM      8  C   UNL     1      43.427   2.477  11.784  0.00  0.00    +0.000 C 
ATOM      9  N   UNL     1      44.161   3.628  11.249  0.00  0.00    +0.000 NA
BRANCH   9  10
ATOM     10  C   UNL     1      43.887   3.812   9.807  0.00  0.00    +0.000 C 
BRANCH  10  11
ATOM     11  C   UNL     1      45.018   3.358   8.899  0.00  0.00    +0.000 A 
ATOM     12  C   UNL     1      45.778   4.297   8.182  0.00  0.00    +0.000 A 
ATOM     13  C   UNL     1      46.816   3.885   7.345  0.00  0.00    +0.000 A 
ATOM     14  C   UNL     1      47.104   2.528   7.206  0.00  0.00    +0.000 A 
ATOM     15  C   UNL     1      46.357   1.589   7.911  0.00  0.00    +0.000 A 
ATOM     16 CL   UNL     1      46.709  -0.087   7.735  0.00  0.00    +0.000 Cl
ATOM     17  C   UNL     1      45.323   1.995   8.758  0.00  0.00    +0.000 A 
ENDBRANCH  10  11
ENDBRANCH   9  10
ENDBRANCH   7   9
ENDBRANCH   1   7
BRANCH   4  18
ATOM     18  C   UNL     1      49.106   6.948  13.548  0.00  0.00    +0.000 C 
BRANCH  18  19
ATOM     19  N   UNL     1      49.062   6.878  14.992  0.00  0.00    +0.000 N 
ATOM     20  C   UNL     1      50.173   7.074  15.774  0.00  0.00    +0.000 C 
ATOM     21  O   UNL     1      51.279   7.307  15.294  0.00  0.00    +0.000 OA
ATOM     22  H   UNL     1      48.203   6.545  15.419  0.00  0.00    +0.000 HD
BRANCH  20  23
ATOM     23  C   UNL     1      49.960   7.059  17.226  0.00  0.00    +0.000 A 
ATOM     24  C   UNL     1      50.180   8.217  17.960  0.00  0.00    +0.000 A 
ATOM     25  S   UNL     1      49.853   8.046  19.624  0.00  0.00    +0.000 S 
ATOM     26  C   UNL     1      49.456   6.403  19.430  0.00  0.00    +0.000 A 
ATOM     27  N   UNL     1      49.101   5.639  20.502  0.00  0.00    +0.000 NA
ATOM     28  C   UNL     1      48.863   4.403  20.219  0.00  0.00    +0.000 A 
ATOM     29  N   UNL     1      48.936   3.861  18.962  0.00  0.00    +0.000 N 
ATOM     30  C   UNL     1      49.234   4.605  17.844  0.00  0.00    +0.000 A 
ATOM     31  O   UNL     1      49.197   4.110  16.721  0.00  0.00    +0.000 OA
ATOM     32  C   UNL     1      49.545   5.996  18.113  0.00  0.00    +0.000 A 
ATOM     33  H   UNL     1      48.716   2.888  18.808  0.00  0.00    +0.000 HD
ENDBRANCH  20  23
ENDBRANCH  18  19
ENDBRANCH   4  18
TORSDOF 7
ENDMDL
MODEL 2
REMARK VINA RESULT:    -7.673      1.758      2.174
REMARK INTER + INTRA:         -12.142
REMARK INTER:                 -10.880
REMARK INTRA:                  -1.262
REMARK UNBOUND:                -1.329
REMARK  Name = 
REMARK  8 active torsions:
REMARK  status: ('A' for Active; 'I' for Inactive)
REMARK    1  A    between atoms: C_1  and  N_2
REMARK    2  A    between atoms: N_2  and  C_3
REMARK    3  A    between atoms: N_2  and  C_11
REMARK    4  A    between atoms: C_3  and  C_4
REMARK    5  A    between atoms: C_11  and  C_12
REMARK    6  A    between atoms: C_15  and  C_16
REMARK    7  A    between atoms: C_16  and  N_17
REMARK    8  A    between atoms: C_18  and  C_20
REMARK                            x       y       z     vdW  Elec       q    Type
REMARK                         _______ _______ _______ _____ _____    ______ ____
ROOT
ATOM      1  C   UNL     1      45.719   5.948  11.819  0.00  0.00    +0.000 C 
ATOM      2  C   UNL     1      46.533   5.354  12.980  0.00  0.00    +0.000 C 
ATOM      3  C   UNL     1      47.912   6.009  13.092  0.00  0.00    +0.000 C 
ATOM      4  C   UNL     1      47.812   7.537  13.240  0.00  0.00    +0.000 C 
ATOM      5  C   UNL     1      46.981   8.129  12.092  0.00  0.00    +0.000 C 
ATOM      6  C   UNL     1      45.607   7.472  11.978  0.00  0.00    +0.000 C 
ENDROOT
BRANCH   1   7
ATOM      7  C   UNL     1      44.330   5.268  11.718  0.00  0.00    +0.000 C 
BRANCH   7   9
ATOM      8  C   UNL     1      43.550   3.026  12.228  0.00  0.00    +0.000 C 
ATOM      9  N   UNL     1      44.369   3.841  11.324  0.00  0.00    +0.000 NA
BRANCH   9  10
ATOM     10  C   UNL     1      43.922   3.696   9.921  0.00  0.00    +0.000 C 
BRANCH  10  11
ATOM     11  C   UNL     1      45.023   3.278   8.961  0.00  0.00    +0.000 A 
ATOM     12  C   UNL     1      45.718   4.240   8.211  0.00  0.00    +0.000 A 
ATOM     13  C   UNL     1      46.728   3.862   7.325  0.00  0.00    +0.000 A 
ATOM     14  C   UNL     1      47.053   2.515   7.170  0.00  0.00    +0.000 A 
ATOM     15  C   UNL     1      46.370   1.553   7.909  0.00  0.00    +0.000 A 
ATOM     16 CL   UNL     1      46.766  -0.112   7.714  0.00  0.00    +0.000 Cl
ATOM     17  C   UNL     1      45.364   1.925   8.804  0.00  0.00    +0.000 A 
ENDBRANCH  10  11
ENDBRANCH   9  10
ENDBRANCH   7   9
ENDBRANCH   1   7
BRANCH   4  18
ATOM     18  C   UNL     1      49.198   8.208  13.273  0.00  0.00    +0.000 C 
BRANCH  18  19
ATOM     19  N   UNL     1      50.164   7.475  14.060  0.00  0.00    +0.000 N 
ATOM     20  C   UNL     1      50.791   8.019  15.153  0.00  0.00    +0.000 C 
ATOM     21  O   UNL     1      50.581   9.171  15.521  0.00  0.00    +0.000 OA
ATOM     22  H   UNL     1      50.472   6.575  13.704  0.00  0.00    +0.000 HD
BRANCH  20  23
ATOM     23  C   UNL     1      51.681   7.128  15.906  0.00  0.00    +0.000 A 
ATOM     24  C   UNL     1      53.051   7.344  15.873  0.00  0.00    +0.000 A 
ATOM     25  S   UNL     1      53.942   6.248  16.827  0.00  0.00    +0.000 S 
ATOM     26  C   UNL     1      52.530   5.412  17.277  0.00  0.00    +0.000 A 
ATOM     27  N   UNL     1      52.594   4.319  18.087  0.00  0.00    +0.000 NA
ATOM     28  C   UNL     1      51.455   3.759  18.318  0.00  0.00    +0.000 A 
ATOM     29  N   UNL     1      50.254   4.198  17.823  0.00  0.00    +0.000 N 
ATOM     30  C   UNL     1      50.134   5.329  17.048  0.00  0.00    +0.000 A 
ATOM     31  O   UNL     1      49.035   5.749  16.701  0.00  0.00    +0.000 OA
ATOM     32  C   UNL     1      51.393   5.976  16.731  0.00  0.00    +0.000 A 
ATOM     33  H   UNL     1      49.395   3.724  18.060  0.00  0.00    +0.000 HD
ENDBRANCH  20  23
ENDBRANCH  18  19
ENDBRANCH   4  18
TORSDOF 7
ENDMDL
MODEL 3
REMARK VINA RESULT:    -7.431      3.783      8.720
REMARK INTER + INTRA:         -11.801
REMARK INTER:                 -10.056
REMARK INTRA:                  -1.745
REMARK UNBOUND:                -1.329
REMARK  Name = 
REMARK  8 active torsions:
REMARK  status: ('A' for Active; 'I' for Inactive)
REMARK    1  A    between atoms: C_1  and  N_2
REMARK    2  A    between atoms: N_2  and  C_3
REMARK    3  A    between atoms: N_2  and  C_11
REMARK    4  A    between atoms: C_3  and  C_4
REMARK    5  A    between atoms: C_11  and  C_12
REMARK    6  A    between atoms: C_15  and  C_16
REMARK    7  A    between atoms: C_16  and  N_17
REMARK    8  A    between atoms: C_18  and  C_20
REMARK                            x       y       z     vdW  Elec       q    Type
REMARK                         _______ _______ _______ _____ _____    ______ ____
ROOT
ATOM      1  C   UNL     1      48.675   7.940  16.048  0.00  0.00    +0.000 C 
ATOM      2  C   UNL     1      49.550   7.049  15.152  0.00  0.00    +0.000 C 
ATOM      3  C   UNL     1      48.903   6.821  13.783  0.00  0.00    +0.000 C 
ATOM      4  C   UNL     1      48.587   8.146  13.069  0.00  0.00    +0.000 C 
ATOM      5  C   UNL     1      47.731   9.046  13.973  0.00  0.00    +0.000 C 
ATOM      6  C   UNL     1      48.375   9.269  15.340  0.00  0.00    +0.000 C 
ENDROOT
BRANCH   1   7
ATOM      7  C   UNL     1      49.343   8.153  17.430  0.00  0.00    +0.000 C 
BRANCH   7   9
ATOM      8  C   UNL     1      51.323   7.522  18.687  0.00  0.00    +0.000 C 
ATOM      9  N   UNL     1      50.198   7.031  17.882  0.00  0.00    +0.000 NA
BRANCH   9  10
ATOM     10  C   UNL     1      49.386   6.055  18.639  0.00  0.00    +0.000 C 
BRANCH  10  11
ATOM     11  C   UNL     1      49.225   4.713  17.945  0.00  0.00    +0.000 A 
ATOM     12  C   UNL     1      48.029   4.390  17.284  0.00  0.00    +0.000 A 
ATOM     13  C   UNL     1      47.875   3.157  16.648  0.00  0.00    +0.000 A 
ATOM     14  C   UNL     1      48.913   2.227  16.668  0.00  0.00    +0.000 A 
ATOM     15  C   UNL     1      50.103   2.537  17.320  0.00  0.00    +0.000 A 
ATOM     16 CL   UNL     1      51.383   1.385  17.351  0.00  0.00    +0.000 Cl
ATOM     17  C   UNL     1      50.267   3.772  17.952  0.00  0.00    +0.000 A 
ENDBRANCH  10  11
ENDBRANCH   9  10
ENDBRANCH   7   9
ENDBRANCH   1   7
BRANCH   4  18
ATOM     18  C   UNL     1      47.864   7.924  11.728  0.00  0.00    +0.000 C 
BRANCH  18  19
ATOM     19  N   UNL     1      47.080   6.709  11.703  0.00  0.00    +0.000 N 
ATOM     20  C   UNL     1      45.709   6.715  11.765  0.00  0.00    +0.000 C 
ATOM     21  O   UNL     1      45.062   7.754  11.860  0.00  0.00    +0.000 OA
ATOM     22  H   UNL     1      47.580   5.828  11.772  0.00  0.00    +0.000 HD
BRANCH  20  23
ATOM     23  C   UNL     1      45.045   5.412  11.641  0.00  0.00    +0.000 A 
ATOM     24  C   UNL     1      44.359   4.890  12.730  0.00  0.00    +0.000 A 
ATOM     25  S   UNL     1      43.614   3.389  12.415  0.00  0.00    +0.000 S 
ATOM     26  C   UNL     1      44.225   3.360  10.827  0.00  0.00    +0.000 A 
ATOM     27  N   UNL     1      43.972   2.307  10.001  0.00  0.00    +0.000 NA
ATOM     28  C   UNL     1      44.527   2.396   8.839  0.00  0.00    +0.000 A 
ATOM     29  N   UNL     1      45.303   3.446   8.422  0.00  0.00    +0.000 N 
ATOM     30  C   UNL     1      45.538   4.556   9.201  0.00  0.00    +0.000 A 
ATOM     31  O   UNL     1      46.157   5.521   8.763  0.00  0.00    +0.000 OA
ATOM     32  C   UNL     1      44.965   4.489  10.531  0.00  0.00    +0.000 A 
ATOM     33  H   UNL     1      45.691   3.461   7.491  0.00  0.00    +0.000 HD
ENDBRANCH  20  23
ENDBRANCH  18  19
ENDBRANCH   4  18
TORSDOF 7
ENDMDL
MODEL 4
REMARK VINA RESULT:    -7.072      3.734      8.577
REMARK INTER + INTRA:         -11.295
REMARK INTER:                  -9.513
REMARK INTRA:                  -1.782
REMARK UNBOUND:                -1.329
REMARK  Name = 
REMARK  8 active torsions:
REMARK  status: ('A' for Active; 'I' for Inactive)
REMARK    1  A    between atoms: C_1  and  N_2
REMARK    2  A    between atoms: N_2  and  C_3
REMARK    3  A    between atoms: N_2  and  C_11
REMARK    4  A    between atoms: C_3  and  C_4
REMARK    5  A    between atoms: C_11  and  C_12
REMARK    6  A    between atoms: C_15  and  C_16
REMARK    7  A    between atoms: C_16  and  N_17
REMARK    8  A    between atoms: C_18  and  C_20
REMARK                            x       y       z     vdW  Elec       q    Type
REMARK                         _______ _______ _______ _____ _____    ______ ____
ROOT
ATOM      1  C   UNL     1      49.741   8.485  16.857  0.00  0.00    +0.000 C 
ATOM      2  C   UNL     1      48.268   8.633  16.445  0.00  0.00    +0.000 C 
ATOM      3  C   UNL     1      48.119   8.746  14.925  0.00  0.00    +0.000 C 
ATOM      4  C   UNL     1      48.757   7.552  14.195  0.00  0.00    +0.000 C 
ATOM      5  C   UNL     1      50.223   7.389  14.623  0.00  0.00    +0.000 C 
ATOM      6  C   UNL     1      50.372   7.281  16.140  0.00  0.00    +0.000 C 
ENDROOT
BRANCH   1   7
ATOM      7  C   UNL     1      49.872   8.379  18.398  0.00  0.00    +0.000 C 
BRANCH   7   9
ATOM      8  C   UNL     1      51.459   7.297  19.883  0.00  0.00    +0.000 C 
ATOM      9  N   UNL     1      50.404   7.086  18.885  0.00  0.00    +0.000 NA
BRANCH   9  10
ATOM     10  C   UNL     1      49.303   6.268  19.438  0.00  0.00    +0.000 C 
BRANCH  10  11
ATOM     11  C   UNL     1      48.879   5.115  18.544  0.00  0.00    +0.000 A 
ATOM     12  C   UNL     1      47.570   5.045  18.042  0.00  0.00    +0.000 A 
ATOM     13  C   UNL     1      47.175   3.986  17.222  0.00  0.00    +0.000 A 
ATOM     14  C   UNL     1      48.082   2.978  16.899  0.00  0.00    +0.000 A 
ATOM     15  C   UNL     1      49.383   3.037  17.391  0.00  0.00    +0.000 A 
ATOM     16 CL   UNL     1      50.501   1.789  16.997  0.00  0.00    +0.000 Cl
ATOM     17  C   UNL     1      49.787   4.099  18.204  0.00  0.00    +0.000 A 
ENDBRANCH  10  11
ENDBRANCH   9  10
ENDBRANCH   7   9
ENDBRANCH   1   7
BRANCH   4  18
ATOM     18  C   UNL     1      48.680   7.700  12.664  0.00  0.00    +0.000 C 
BRANCH  18  19
ATOM     19  N   UNL     1      47.860   6.687  12.038  0.00  0.00    +0.000 N 
ATOM     20  C   UNL     1      46.532   6.884  11.755  0.00  0.00    +0.000 C 
ATOM     21  O   UNL     1      45.952   7.931  12.030  0.00  0.00    +0.000 OA
ATOM     22  H   UNL     1      48.262   5.761  11.929  0.00  0.00    +0.000 HD
BRANCH  20  23
ATOM     23  C   UNL     1      45.849   5.800  11.040  0.00  0.00    +0.000 A 
ATOM     24  C   UNL     1      45.957   5.720   9.658  0.00  0.00    +0.000 A 
ATOM     25  S   UNL     1      45.138   4.386   8.983  0.00  0.00    +0.000 S 
ATOM     26  C   UNL     1      44.567   3.898  10.510  0.00  0.00    +0.000 A 
ATOM     27  N   UNL     1      43.761   2.806  10.637  0.00  0.00    +0.000 NA
ATOM     28  C   UNL     1      43.370   2.571  11.844  0.00  0.00    +0.000 A 
ATOM     29  N   UNL     1      43.718   3.320  12.938  0.00  0.00    +0.000 N 
ATOM     30  C   UNL     1      44.574   4.395  12.866  0.00  0.00    +0.000 A 
ATOM     31  O   UNL     1      44.942   4.986  13.877  0.00  0.00    +0.000 OA
ATOM     32  C   UNL     1      45.015   4.723  11.523  0.00  0.00    +0.000 A 
ATOM     33  H   UNL     1      43.393   3.067  13.860  0.00  0.00    +0.000 HD
ENDBRANCH  20  23
ENDBRANCH  18  19
ENDBRANCH   4  18
TORSDOF 7
ENDMDL
MODEL 5
REMARK VINA RESULT:    -6.617      3.487      5.190
REMARK INTER + INTRA:         -10.653
REMARK INTER:                  -9.874
REMARK INTRA:                  -0.780
REMARK UNBOUND:                -1.329
REMARK  Name = 
REMARK  8 active torsions:
REMARK  status: ('A' for Active; 'I' for Inactive)
REMARK    1  A    between atoms: C_1  and  N_2
REMARK    2  A    between atoms: N_2  and  C_3
REMARK    3  A    between atoms: N_2  and  C_11
REMARK    4  A    between atoms: C_3  and  C_4
REMARK    5  A    between atoms: C_11  and  C_12
REMARK    6  A    between atoms: C_15  and  C_16
REMARK    7  A    between atoms: C_16  and  N_17
REMARK    8  A    between atoms: C_18  and  C_20
REMARK                            x       y       z     vdW  Elec       q    Type
REMARK                         _______ _______ _______ _____ _____    ______ ____
ROOT
ATOM      1  C   UNL     1      45.322   6.053  12.547  0.00  0.00    +0.000 C 
ATOM      2  C   UNL     1      45.844   7.382  11.977  0.00  0.00    +0.000 C 
ATOM      3  C   UNL     1      46.872   8.028  12.910  0.00  0.00    +0.000 C 
ATOM      4  C   UNL     1      48.046   7.082  13.214  0.00  0.00    +0.000 C 
ATOM      5  C   UNL     1      47.524   5.746  13.763  0.00  0.00    +0.000 C 
ATOM      6  C   UNL     1      46.495   5.104  12.834  0.00  0.00    +0.000 C 
ENDROOT
BRANCH   1   7
ATOM      7  C   UNL     1      44.278   5.419  11.592  0.00  0.00    +0.000 C 
BRANCH   7   9
ATOM      8  C   UNL     1      43.544   3.362  12.652  0.00  0.00    +0.000 C 
ATOM      9  N   UNL     1      44.308   3.940  11.540  0.00  0.00    +0.000 NA
BRANCH   9  10
ATOM     10  C   UNL     1      43.788   3.473  10.236  0.00  0.00    +0.000 C 
BRANCH  10  11
ATOM     11  C   UNL     1      44.867   3.203   9.201  0.00  0.00    +0.000 A 
ATOM     12  C   UNL     1      45.449   4.261   8.485  0.00  0.00    +0.000 A 
ATOM     13  C   UNL     1      46.439   4.018   7.530  0.00  0.00    +0.000 A 
ATOM     14  C   UNL     1      46.855   2.713   7.273  0.00  0.00    +0.000 A 
ATOM     15  C   UNL     1      46.284   1.656   7.977  0.00  0.00    +0.000 A 
ATOM     16 CL   UNL     1      46.794   0.044   7.655  0.00  0.00    +0.000 Cl
ATOM     17  C   UNL     1      45.300   1.893   8.940  0.00  0.00    +0.000 A 
ENDBRANCH  10  11
ENDBRANCH   9  10
ENDBRANCH   7   9
ENDBRANCH   1   7
BRANCH   4  18
ATOM     18  C   UNL     1      49.042   7.697  14.216  0.00  0.00    +0.000 C 
BRANCH  18  19
ATOM     19  N   UNL     1      50.416   7.611  13.773  0.00  0.00    +0.000 N 
ATOM     20  C   UNL     1      51.299   8.653  13.902  0.00  0.00    +0.000 C 
ATOM     21  O   UNL     1      50.972   9.731  14.389  0.00  0.00    +0.000 OA
ATOM     22  H   UNL     1      50.683   6.792  13.236  0.00  0.00    +0.000 HD
BRANCH  20  23
ATOM     23  C   UNL     1      52.683   8.391  13.488  0.00  0.00    +0.000 A 
ATOM     24  C   UNL     1      53.637   8.089  14.450  0.00  0.00    +0.000 A 
ATOM     25  S   UNL     1      55.184   7.775  13.806  0.00  0.00    +0.000 S 
ATOM     26  C   UNL     1      54.644   8.083  12.222  0.00  0.00    +0.000 A 
ATOM     27  N   UNL     1      55.502   8.012  11.166  0.00  0.00    +0.000 NA
ATOM     28  C   UNL     1      54.971   8.305  10.028  0.00  0.00    +0.000 A 
ATOM     29  N   UNL     1      53.657   8.653   9.845  0.00  0.00    +0.000 N 
ATOM     30  C   UNL     1      52.742   8.683  10.872  0.00  0.00    +0.000 A 
ATOM     31  O   UNL     1      51.554   8.904  10.660  0.00  0.00    +0.000 OA
ATOM     32  C   UNL     1      53.298   8.394  12.180  0.00  0.00    +0.000 A 
ATOM     33  H   UNL     1      53.301   8.851   8.921  0.00  0.00    +0.000 HD
ENDBRANCH  20  23
ENDBRANCH  18  19
ENDBRANCH   4  18
TORSDOF 7
ENDMDL
MODEL 6
REMARK VINA RESULT:    -6.217      3.820      8.858
REMARK INTER + INTRA:         -10.089
REMARK INTER:                  -8.326
REMARK INTRA:                  -1.763
REMARK UNBOUND:                -1.329
REMARK  Name = 
REMARK  8 active torsions:
REMARK  status: ('A' for Active; 'I' for Inactive)
REMARK    1  A    between atoms: C_1  and  N_2
REMARK    2  A    between atoms: N_2  and  C_3
REMARK    3  A    between atoms: N_2  and  C_11
REMARK    4  A    between atoms: C_3  and  C_4
REMARK    5  A    between atoms: C_11  and  C_12
REMARK    6  A    between atoms: C_15  and  C_16
REMARK    7  A    between atoms: C_16  and  N_17
REMARK    8  A    between atoms: C_18  and  C_20
REMARK                            x       y       z     vdW  Elec       q    Type
REMARK                         _______ _______ _______ _____ _____    ______ ____
ROOT
ATOM      1  C   UNL     1      48.738   8.038  18.323  0.00  0.00    +0.000 C 
ATOM      2  C   UNL     1      49.919   7.692  17.401  0.00  0.00    +0.000 C 
ATOM      3  C   UNL     1      49.510   7.731  15.926  0.00  0.00    +0.000 C 
ATOM      4  C   UNL     1      48.910   9.092  15.532  0.00  0.00    +0.000 C 
ATOM      5  C   UNL     1      47.745   9.449  16.466  0.00  0.00    +0.000 C 
ATOM      6  C   UNL     1      48.152   9.405  17.938  0.00  0.00    +0.000 C 
ENDROOT
BRANCH   1   7
ATOM      7  C   UNL     1      49.170   7.987  19.810  0.00  0.00    +0.000 C 
BRANCH   7   9
ATOM      8  C   UNL     1      51.286   8.030  21.000  0.00  0.00    +0.000 C 
ATOM      9  N   UNL     1      50.447   7.280  20.058  0.00  0.00    +0.000 NA
BRANCH   9  10
ATOM     10  C   UNL     1      50.177   5.914  20.555  0.00  0.00    +0.000 C 
BRANCH  10  11
ATOM     11  C   UNL     1      50.080   4.865  19.461  0.00  0.00    +0.000 A 
ATOM     12  C   UNL     1      51.236   4.400  18.814  0.00  0.00    +0.000 A 
ATOM     13  C   UNL     1      51.153   3.439  17.805  0.00  0.00    +0.000 A 
ATOM     14  C   UNL     1      49.910   2.933  17.424  0.00  0.00    +0.000 A 
ATOM     15  C   UNL     1      48.758   3.387  18.059  0.00  0.00    +0.000 A 
ATOM     16 CL   UNL     1      47.223   2.767  17.584  0.00  0.00    +0.000 Cl
ATOM     17  C   UNL     1      48.835   4.342  19.075  0.00  0.00    +0.000 A 
ENDBRANCH  10  11
ENDBRANCH   9  10
ENDBRANCH   7   9
ENDBRANCH   1   7
BRANCH   4  18
ATOM     18  C   UNL     1      48.424   9.110  14.071  0.00  0.00    +0.000 C 
BRANCH  18  19
ATOM     19  N   UNL     1      47.438   8.089  13.790  0.00  0.00    +0.000 N 
ATOM     20  C   UNL     1      47.662   7.075  12.893  0.00  0.00    +0.000 C 
ATOM     21  O   UNL     1      48.711   6.978  12.262  0.00  0.00    +0.000 OA
ATOM     22  H   UNL     1      46.510   8.216  14.180  0.00  0.00    +0.000 HD
BRANCH  20  23
ATOM     23  C   UNL     1      46.605   6.063  12.775  0.00  0.00    +0.000 A 
ATOM     24  C   UNL     1      46.856   4.763  13.193  0.00  0.00    +0.000 A 
ATOM     25  S   UNL     1      45.518   3.720  13.025  0.00  0.00    +0.000 S 
ATOM     26  C   UNL     1      44.573   4.957  12.339  0.00  0.00    +0.000 A 
ATOM     27  N   UNL     1      43.295   4.715  11.933  0.00  0.00    +0.000 NA
ATOM     28  C   UNL     1      42.706   5.730  11.396  0.00  0.00    +0.000 A 
ATOM     29  N   UNL     1      43.273   6.968  11.237  0.00  0.00    +0.000 N 
ATOM     30  C   UNL     1      44.538   7.273  11.682  0.00  0.00    +0.000 A 
ATOM     31  O   UNL     1      44.980   8.416  11.611  0.00  0.00    +0.000 OA
ATOM     32  C   UNL     1      45.257   6.155  12.263  0.00  0.00    +0.000 A 
ATOM     33  H   UNL     1      42.747   7.726  10.826  0.00  0.00    +0.000 HD
ENDBRANCH  20  23
ENDBRANCH  18  19
ENDBRANCH   4  18
TORSDOF 7
ENDMDL
MODEL 7
REMARK VINA RESULT:    -6.140      3.795      8.631
REMARK INTER + INTRA:          -9.982
REMARK INTER:                  -7.685
REMARK INTRA:                  -2.297
REMARK UNBOUND:                -1.329
REMARK  Name = 
REMARK  8 active torsions:
REMARK  status: ('A' for Active; 'I' for Inactive)
REMARK    1  A    between atoms: C_1  and  N_2
REMARK    2  A    between atoms: N_2  and  C_3
REMARK    3  A    between atoms: N_2  and  C_11
REMARK    4  A    between atoms: C_3  and  C_4
REMARK    5  A    between atoms: C_11  and  C_12
REMARK    6  A    between atoms: C_15  and  C_16
REMARK    7  A    between atoms: C_16  and  N_17
REMARK    8  A    between atoms: C_18  and  C_20
REMARK                            x       y       z     vdW  Elec       q    Type
REMARK                         _______ _______ _______ _____ _____    ______ ____
ROOT
ATOM      1  C   UNL     1      52.192   7.645  17.773  0.00  0.00    +0.000 C 
ATOM      2  C   UNL     1      51.032   8.027  18.706  0.00  0.00    +0.000 C 
ATOM      3  C   UNL     1      50.011   8.920  17.996  0.00  0.00    +0.000 C 
ATOM      4  C   UNL     1      49.468   8.265  16.714  0.00  0.00    +0.000 C 
ATOM      5  C   UNL     1      50.628   7.863  15.791  0.00  0.00    +0.000 C 
ATOM      6  C   UNL     1      51.649   6.976  16.502  0.00  0.00    +0.000 C 
ENDROOT
BRANCH   1   7
ATOM      7  C   UNL     1      53.218   6.748  18.512  0.00  0.00    +0.000 C 
BRANCH   7   9
ATOM      8  C   UNL     1      54.653   4.949  17.738  0.00  0.00    +0.000 C 
ATOM      9  N   UNL     1      53.272   5.349  18.032  0.00  0.00    +0.000 NA
BRANCH   9  10
ATOM     10  C   UNL     1      52.659   4.450  19.035  0.00  0.00    +0.000 C 
BRANCH  10  11
ATOM     11  C   UNL     1      51.174   4.211  18.826  0.00  0.00    +0.000 A 
ATOM     12  C   UNL     1      50.228   4.801  19.681  0.00  0.00    +0.000 A 
ATOM     13  C   UNL     1      48.862   4.582  19.496  0.00  0.00    +0.000 A 
ATOM     14  C   UNL     1      48.422   3.764  18.456  0.00  0.00    +0.000 A 
ATOM     15  C   UNL     1      49.350   3.175  17.602  0.00  0.00    +0.000 A 
ATOM     16 CL   UNL     1      48.806   2.160  16.322  0.00  0.00    +0.000 Cl
ATOM     17  C   UNL     1      50.718   3.397  17.777  0.00  0.00    +0.000 A 
ENDBRANCH  10  11
ENDBRANCH   9  10
ENDBRANCH   7   9
ENDBRANCH   1   7
BRANCH   4  18
ATOM     18  C   UNL     1      48.502   9.192  15.954  0.00  0.00    +0.000 C 
BRANCH  18  19
ATOM     19  N   UNL     1      47.566   8.472  15.119  0.00  0.00    +0.000 N 
ATOM     20  C   UNL     1      47.654   8.466  13.749  0.00  0.00    +0.000 C 
ATOM     21  O   UNL     1      48.526   9.085  13.146  0.00  0.00    +0.000 OA
ATOM     22  H   UNL     1      46.750   8.071  15.569  0.00  0.00    +0.000 HD
BRANCH  20  23
ATOM     23  C   UNL     1      46.688   7.621  13.037  0.00  0.00    +0.000 A 
ATOM     24  C   UNL     1      45.801   8.204  12.142  0.00  0.00    +0.000 A 
ATOM     25  S   UNL     1      44.771   7.085  11.372  0.00  0.00    +0.000 S 
ATOM     26  C   UNL     1      45.440   5.788  12.246  0.00  0.00    +0.000 A 
ATOM     27  N   UNL     1      44.976   4.518  12.076  0.00  0.00    +0.000 NA
ATOM     28  C   UNL     1      45.545   3.638  12.828  0.00  0.00    +0.000 A 
ATOM     29  N   UNL     1      46.543   3.907  13.728  0.00  0.00    +0.000 N 
ATOM     30  C   UNL     1      47.082   5.162  13.892  0.00  0.00    +0.000 A 
ATOM     31  O   UNL     1      48.040   5.352  14.636  0.00  0.00    +0.000 OA
ATOM     32  C   UNL     1      46.452   6.196  13.094  0.00  0.00    +0.000 A 
ATOM     33  H   UNL     1      46.960   3.165  14.271  0.00  0.00    +0.000 HD
ENDBRANCH  20  23
ENDBRANCH  18  19
ENDBRANCH   4  18
TORSDOF 7
ENDMDL
MODEL 8
REMARK VINA RESULT:    -6.049      3.046      4.421
REMARK INTER + INTRA:          -9.853
REMARK INTER:                  -8.776
REMARK INTRA:                  -1.077
REMARK UNBOUND:                -1.329
REMARK  Name = 
REMARK  8 active torsions:
REMARK  status: ('A' for Active; 'I' for Inactive)
REMARK    1  A    between atoms: C_1  and  N_2
REMARK    2  A    between atoms: N_2  and  C_3
REMARK    3  A    between atoms: N_2  and  C_11
REMARK    4  A    between atoms: C_3  and  C_4
REMARK    5  A    between atoms: C_11  and  C_12
REMARK    6  A    between atoms: C_15  and  C_16
REMARK    7  A    between atoms: C_16  and  N_17
REMARK    8  A    between atoms: C_18  and  C_20
REMARK                            x       y       z     vdW  Elec       q    Type
REMARK                         _______ _______ _______ _____ _____    ______ ____
ROOT
ATOM      1  C   UNL     1      47.316   7.229  13.895  0.00  0.00    +0.000 C 
ATOM      2  C   UNL     1      48.432   8.272  14.070  0.00  0.00    +0.000 C 
ATOM      3  C   UNL     1      48.993   8.260  15.495  0.00  0.00    +0.000 C 
ATOM      4  C   UNL     1      49.500   6.866  15.902  0.00  0.00    +0.000 C 
ATOM      5  C   UNL     1      48.392   5.820  15.706  0.00  0.00    +0.000 C 
ATOM      6  C   UNL     1      47.830   5.835  14.286  0.00  0.00    +0.000 C 
ENDROOT
BRANCH   1   7
ATOM      7  C   UNL     1      46.757   7.261  12.450  0.00  0.00    +0.000 C 
BRANCH   7   9
ATOM      8  C   UNL     1      45.297   9.190  12.241  0.00  0.00    +0.000 C 
ATOM      9  N   UNL     1      45.356   7.727  12.340  0.00  0.00    +0.000 NA
BRANCH   9  10
ATOM     10  C   UNL     1      44.705   7.086  11.177  0.00  0.00    +0.000 C 
BRANCH  10  11
ATOM     11  C   UNL     1      44.324   5.633  11.403  0.00  0.00    +0.000 A 
ATOM     12  C   UNL     1      43.756   5.226  12.621  0.00  0.00    +0.000 A 
ATOM     13  C   UNL     1      43.408   3.891  12.835  0.00  0.00    +0.000 A 
ATOM     14  C   UNL     1      43.629   2.943  11.837  0.00  0.00    +0.000 A 
ATOM     15  C   UNL     1      44.191   3.336  10.626  0.00  0.00    +0.000 A 
ATOM     16 CL   UNL     1      44.469   2.165   9.395  0.00  0.00    +0.000 Cl
ATOM     17  C   UNL     1      44.534   4.672  10.402  0.00  0.00    +0.000 A 
ENDBRANCH  10  11
ENDBRANCH   9  10
ENDBRANCH   7   9
ENDBRANCH   1   7
BRANCH   4  18
ATOM     18  C   UNL     1      49.991   6.831  17.362  0.00  0.00    +0.000 C 
BRANCH  18  19
ATOM     19  N   UNL     1      50.786   5.662  17.663  0.00  0.00    +0.000 N 
ATOM     20  C   UNL     1      52.109   5.558  17.309  0.00  0.00    +0.000 C 
ATOM     21  O   UNL     1      52.695   6.449  16.701  0.00  0.00    +0.000 OA
ATOM     22  H   UNL     1      50.303   4.849  18.033  0.00  0.00    +0.000 HD
BRANCH  20  23
ATOM     23  C   UNL     1      52.811   4.350  17.758  0.00  0.00    +0.000 A 
ATOM     24  C   UNL     1      54.104   4.457  18.251  0.00  0.00    +0.000 A 
ATOM     25  S   UNL     1      54.767   2.972  18.764  0.00  0.00    +0.000 S 
ATOM     26  C   UNL     1      53.367   2.127  18.296  0.00  0.00    +0.000 A 
ATOM     27  N   UNL     1      53.287   0.774  18.442  0.00  0.00    +0.000 NA
ATOM     28  C   UNL     1      52.186   0.256  18.012  0.00  0.00    +0.000 A 
ATOM     29  N   UNL     1      51.152   0.967  17.458  0.00  0.00    +0.000 N 
ATOM     30  C   UNL     1      51.165   2.338  17.343  0.00  0.00    +0.000 A 
ATOM     31  O   UNL     1      50.185   2.952  16.932  0.00  0.00    +0.000 OA
ATOM     32  C   UNL     1      52.397   2.966  17.781  0.00  0.00    +0.000 A 
ATOM     33  H   UNL     1      50.308   0.500  17.161  0.00  0.00    +0.000 HD
ENDBRANCH  20  23
ENDBRANCH  18  19
ENDBRANCH   4  18
TORSDOF 7
ENDMDL
MODEL 9
REMARK VINA RESULT:    -6.006      5.136      8.883
REMARK INTER + INTRA:          -9.793
REMARK INTER:                  -9.013
REMARK INTRA:                  -0.780
REMARK UNBOUND:                -1.329
REMARK  Name = 
REMARK  8 active torsions:
REMARK  status: ('A' for Active; 'I' for Inactive)
REMARK    1  A    between atoms: C_1  and  N_2
REMARK    2  A    between atoms: N_2  and  C_3
REMARK    3  A    between atoms: N_2  and  C_11
REMARK    4  A    between atoms: C_3  and  C_4
REMARK    5  A    between atoms: C_11  and  C_12
REMARK    6  A    between atoms: C_15  and  C_16
REMARK    7  A    between atoms: C_16  and  N_17
REMARK    8  A    between atoms: C_18  and  C_20
REMARK                            x       y       z     vdW  Elec       q    Type
REMARK                         _______ _______ _______ _____ _____    ______ ____
ROOT
ATOM      1  C   UNL     1      50.660   9.343  11.588  0.00  0.00    +0.000 C 
ATOM      2  C   UNL     1      50.372   7.841  11.431  0.00  0.00    +0.000 C 
ATOM      3  C   UNL     1      49.234   7.390  12.350  0.00  0.00    +0.000 C 
ATOM      4  C   UNL     1      47.950   8.204  12.117  0.00  0.00    +0.000 C 
ATOM      5  C   UNL     1      48.241   9.706  12.250  0.00  0.00    +0.000 C 
ATOM      6  C   UNL     1      49.380  10.155  11.338  0.00  0.00    +0.000 C 
ENDROOT
BRANCH   1   7
ATOM      7  C   UNL     1      51.819   9.780  10.656  0.00  0.00    +0.000 C 
BRANCH   7   9
ATOM      8  C   UNL     1      52.852  10.193  12.814  0.00  0.00    +0.000 C 
ATOM      9  N   UNL     1      53.019  10.288  11.359  0.00  0.00    +0.000 NA
BRANCH   9  10
ATOM     10  C   UNL     1      54.216   9.546  10.909  0.00  0.00    +0.000 C 
BRANCH  10  11
ATOM     11  C   UNL     1      53.906   8.336  10.045  0.00  0.00    +0.000 A 
ATOM     12  C   UNL     1      53.821   7.055  10.615  0.00  0.00    +0.000 A 
ATOM     13  C   UNL     1      53.539   5.939   9.825  0.00  0.00    +0.000 A 
ATOM     14  C   UNL     1      53.345   6.087   8.452  0.00  0.00    +0.000 A 
ATOM     15  C   UNL     1      53.426   7.352   7.877  0.00  0.00    +0.000 A 
ATOM     16 CL   UNL     1      53.192   7.534   6.181  0.00  0.00    +0.000 Cl
ATOM     17  C   UNL     1      53.699   8.474   8.663  0.00  0.00    +0.000 A 
ENDBRANCH  10  11
ENDBRANCH   9  10
ENDBRANCH   7   9
ENDBRANCH   1   7
BRANCH   4  18
ATOM     18  C   UNL     1      46.826   7.807  13.093  0.00  0.00    +0.000 C 
BRANCH  18  19
ATOM     19  N   UNL     1      46.194   6.553  12.749  0.00  0.00    +0.000 N 
ATOM     20  C   UNL     1      45.148   6.473  11.864  0.00  0.00    +0.000 C 
ATOM     21  O   UNL     1      44.673   7.467  11.320  0.00  0.00    +0.000 OA
ATOM     22  H   UNL     1      46.459   5.733  13.285  0.00  0.00    +0.000 HD
BRANCH  20  23
ATOM     23  C   UNL     1      44.664   5.125  11.545  0.00  0.00    +0.000 A 
ATOM     24  C   UNL     1      43.920   4.427  12.486  0.00  0.00    +0.000 A 
ATOM     25  S   UNL     1      43.403   2.893  11.951  0.00  0.00    +0.000 S 
ATOM     26  C   UNL     1      44.200   3.088  10.460  0.00  0.00    +0.000 A 
ATOM     27  N   UNL     1      44.177   2.100   9.522  0.00  0.00    +0.000 NA
ATOM     28  C   UNL     1      44.853   2.362   8.455  0.00  0.00    +0.000 A 
ATOM     29  N   UNL     1      45.543   3.527   8.234  0.00  0.00    +0.000 N 
ATOM     30  C   UNL     1      45.547   4.573   9.127  0.00  0.00    +0.000 A 
ATOM     31  O   UNL     1      46.094   5.638   8.857  0.00  0.00    +0.000 OA
ATOM     32  C   UNL     1      44.830   4.314  10.360  0.00  0.00    +0.000 A 
ATOM     33  H   UNL     1      46.035   3.676   7.365  0.00  0.00    +0.000 HD
ENDBRANCH  20  23
ENDBRANCH  18  19
ENDBRANCH   4  18
TORSDOF 7
ENDMDL
