MODEL 1
REMARK VINA RESULT:    -8.601      0.000      0.000
REMARK INTER + INTRA:         -11.934
REMARK INTER:                 -11.116
REMARK INTRA:                  -0.818
REMARK UNBOUND:                -0.818
REMARK  Name = 
REMARK  5 active torsions:
REMARK  status: ('A' for Active; 'I' for Inactive)
REMARK    1  A    between atoms: C_2  and  C_4
REMARK    2  A    between atoms: C_7  and  O_8
REMARK    3  A    between atoms: O_8  and  C_9
REMARK    4  A    between atoms: C_9  and  C_10
REMARK    5  A    between atoms: C_14  and  C_15
REMARK                            x       y       z     vdW  Elec       q    Type
REMARK                         _______ _______ _______ _____ _____    ______ ____
ROOT
ATOM      1  C   UNL     1      43.675   4.229  11.279  0.00  0.00    +0.000 C 
ENDROOT
BRANCH   1   2
ATOM      2  C   UNL     1      44.883   4.723  12.044  0.00  0.00    +0.000 A 
ATOM      3  C   UNL     1      45.625   3.834  12.829  0.00  0.00    +0.000 A 
ATOM      4  C   UNL     1      46.762   4.274  13.501  0.00  0.00    +0.000 A 
ATOM      5  C   UNL     1      47.184   5.599  13.371  0.00  0.00    +0.000 A 
ATOM      6  C   UNL     1      46.500   6.508  12.543  0.00  0.00    +0.000 A 
ATOM      7  C   UNL     1      45.338   6.045  11.900  0.00  0.00    +0.000 A 
BRANCH   6   8
ATOM      8  C   UNL     1      47.016   7.870  12.292  0.00  0.00    +0.000 A 
ATOM      9  C   UNL     1      48.357   8.095  11.948  0.00  0.00    +0.000 A 
ATOM     10  C   UNL     1      48.809   9.375  11.631  0.00  0.00    +0.000 A 
ATOM     11  C   UNL     1      47.899  10.416  11.664  0.00  0.00    +0.000 A 
ATOM     12  N   UNL     1      46.605  10.265  12.006  0.00  0.00    +0.000 NA
ATOM     13  C   UNL     1      46.202   9.005  12.313  0.00  0.00    +0.000 A 
ENDBRANCH   6   8
ENDBRANCH   1   2
BRANCH   1  14
ATOM     14  O   UNL     1      43.739   4.674   9.920  0.00  0.00    +0.000 OA
BRANCH  14  18
ATOM     15  C   UNL     1      46.432   2.457   7.738  0.00  0.00    +0.000 A 
ATOM     16  C   UNL     1      45.583   1.816   8.645  0.00  0.00    +0.000 A 
ATOM     17  C   UNL     1      44.678   2.581   9.382  0.00  0.00    +0.000 A 
ATOM     18  C   UNL     1      44.654   3.954   9.181  0.00  0.00    +0.000 A 
ATOM     19  N   UNL     1      45.469   4.598   8.319  0.00  0.00    +0.000 NA
ATOM     20  C   UNL     1      46.349   3.837   7.625  0.00  0.00    +0.000 A 
BRANCH  15  22
ATOM     21  N   UNL     1      48.498   2.457   6.460  0.00  0.00    +0.000 N 
ATOM     22  C   UNL     1      47.423   1.744   6.906  0.00  0.00    +0.000 C 
ATOM     23  O   UNL     1      47.307   0.550   6.665  0.00  0.00    +0.000 OA
ATOM     24  H   UNL     1      49.224   1.924   5.997  0.00  0.00    +0.000 HD
ATOM     25  H   UNL     1      48.758   3.351   6.854  0.00  0.00    +0.000 HD
ENDBRANCH  15  22
ENDBRANCH  14  18
ENDBRANCH   1  14
TORSDOF 5
ENDMDL
MODEL 2
REMARK VINA RESULT:    -8.458      2.026      3.477
REMARK INTER + INTRA:         -11.748
REMARK INTER:                 -10.998
REMARK INTRA:                  -0.750
REMARK UNBOUND:                -0.818
REMARK  Name = 
REMARK  5 active torsions:
REMARK  status: ('A' for Active; 'I' for Inactive)
REMARK    1  A    between atoms: C_2  and  C_4
REMARK    2  A    between atoms: C_7  and  O_8
REMARK    3  A    between atoms: O_8  and  C_9
REMARK    4  A    between atoms: C_9  and  C_10
REMARK    5  A    between atoms: C_14  and  C_15
REMARK                            x       y       z     vdW  Elec       q    Type
REMARK                         _______ _______ _______ _____ _____    ______ ____
ROOT
ATOM      1  C   UNL     1      43.866   4.336  11.327  0.00  0.00    +0.000 C 
ENDROOT
BRANCH   1   2
ATOM      2  C   UNL     1      44.975   5.183  11.912  0.00  0.00    +0.000 A 
ATOM      3  C   UNL     1      45.211   6.469  11.412  0.00  0.00    +0.000 A 
ATOM      4  C   UNL     1      46.202   7.267  11.974  0.00  0.00    +0.000 A 
ATOM      5  C   UNL     1      46.946   6.801  13.060  0.00  0.00    +0.000 A 
ATOM      6  C   UNL     1      46.698   5.539  13.630  0.00  0.00    +0.000 A 
ATOM      7  C   UNL     1      45.712   4.740  13.023  0.00  0.00    +0.000 A 
BRANCH   6   8
ATOM      8  C   UNL     1      47.384   5.095  14.862  0.00  0.00    +0.000 A 
ATOM      9  C   UNL     1      47.125   3.842  15.436  0.00  0.00    +0.000 A 
ATOM     10  C   UNL     1      47.842   3.403  16.548  0.00  0.00    +0.000 A 
ATOM     11  C   UNL     1      48.816   4.235  17.068  0.00  0.00    +0.000 A 
ATOM     12  N   UNL     1      49.096   5.455  16.572  0.00  0.00    +0.000 NA
ATOM     13  C   UNL     1      48.375   5.852  15.492  0.00  0.00    +0.000 A 
ENDBRANCH   6   8
ENDBRANCH   1   2
BRANCH   1  14
ATOM     14  O   UNL     1      43.727   4.608   9.929  0.00  0.00    +0.000 OA
BRANCH  14  18
ATOM     15  C   UNL     1      46.428   2.456   7.691  0.00  0.00    +0.000 A 
ATOM     16  C   UNL     1      45.625   1.798   8.628  0.00  0.00    +0.000 A 
ATOM     17  C   UNL     1      44.717   2.541   9.383  0.00  0.00    +0.000 A 
ATOM     18  C   UNL     1      44.643   3.910   9.170  0.00  0.00    +0.000 A 
ATOM     19  N   UNL     1      45.413   4.571   8.279  0.00  0.00    +0.000 NA
ATOM     20  C   UNL     1      46.296   3.831   7.568  0.00  0.00    +0.000 A 
BRANCH  15  22
ATOM     21  N   UNL     1      48.501   2.487   6.426  0.00  0.00    +0.000 N 
ATOM     22  C   UNL     1      47.417   1.767   6.838  0.00  0.00    +0.000 C 
ATOM     23  O   UNL     1      47.292   0.584   6.550  0.00  0.00    +0.000 OA
ATOM     24  H   UNL     1      49.224   1.965   5.947  0.00  0.00    +0.000 HD
ATOM     25  H   UNL     1      48.766   3.362   6.855  0.00  0.00    +0.000 HD
ENDBRANCH  15  22
ENDBRANCH  14  18
ENDBRANCH   1  14
TORSDOF 5
ENDMDL
MODEL 3
REMARK VINA RESULT:    -8.181      1.574      1.891
REMARK INTER + INTRA:         -11.391
REMARK INTER:                 -10.665
REMARK INTRA:                  -0.725
REMARK UNBOUND:                -0.818
REMARK  Name = 
REMARK  5 active torsions:
REMARK  status: ('A' for Active; 'I' for Inactive)
REMARK    1  A    between atoms: C_2  and  C_4
REMARK    2  A    between atoms: C_7  and  O_8
REMARK    3  A    between atoms: O_8  and  C_9
REMARK    4  A    between atoms: C_9  and  C_10
REMARK    5  A    between atoms: C_14  and  C_15
REMARK                            x       y       z     vdW  Elec       q    Type
REMARK                         _______ _______ _______ _____ _____    ______ ____
ROOT
ATOM      1  C   UNL     1      43.995   5.394  10.680  0.00  0.00    +0.000 C 
ENDROOT
BRANCH   1   2
ATOM      2  C   UNL     1      45.019   5.338  11.792  0.00  0.00    +0.000 A 
ATOM      3  C   UNL     1      44.923   4.354  12.782  0.00  0.00    +0.000 A 
ATOM      4  C   UNL     1      45.886   4.272  13.783  0.00  0.00    +0.000 A 
ATOM      5  C   UNL     1      46.970   5.153  13.787  0.00  0.00    +0.000 A 
ATOM      6  C   UNL     1      47.134   6.116  12.775  0.00  0.00    +0.000 A 
ATOM      7  C   UNL     1      46.131   6.197  11.793  0.00  0.00    +0.000 A 
BRANCH   6   8
ATOM      8  C   UNL     1      48.346   6.959  12.695  0.00  0.00    +0.000 A 
ATOM      9  C   UNL     1      48.654   7.695  11.542  0.00  0.00    +0.000 A 
ATOM     10  C   UNL     1      49.754   8.552  11.513  0.00  0.00    +0.000 A 
ATOM     11  C   UNL     1      50.532   8.655  12.651  0.00  0.00    +0.000 A 
ATOM     12  N   UNL     1      50.298   7.959  13.780  0.00  0.00    +0.000 NA
ATOM     13  C   UNL     1      49.221   7.132  13.771  0.00  0.00    +0.000 A 
ENDBRANCH   6   8
ENDBRANCH   1   2
BRANCH   1  14
ATOM     14  O   UNL     1      43.626   4.068  10.286  0.00  0.00    +0.000 OA
BRANCH  14  18
ATOM     15  C   UNL     1      46.422   2.451   7.737  0.00  0.00    +0.000 A 
ATOM     16  C   UNL     1      46.210   3.832   7.744  0.00  0.00    +0.000 A 
ATOM     17  C   UNL     1      45.255   4.367   8.611  0.00  0.00    +0.000 A 
ATOM     18  C   UNL     1      44.553   3.501   9.438  0.00  0.00    +0.000 A 
ATOM     19  N   UNL     1      44.733   2.163   9.444  0.00  0.00    +0.000 NA
ATOM     20  C   UNL     1      45.654   1.666   8.585  0.00  0.00    +0.000 A 
BRANCH  15  22
ATOM     21  N   UNL     1      48.460   2.531   6.418  0.00  0.00    +0.000 N 
ATOM     22  C   UNL     1      47.409   1.783   6.864  0.00  0.00    +0.000 C 
ATOM     23  O   UNL     1      47.311   0.594   6.590  0.00  0.00    +0.000 OA
ATOM     24  H   UNL     1      49.186   2.026   5.924  0.00  0.00    +0.000 HD
ATOM     25  H   UNL     1      48.710   3.417   6.832  0.00  0.00    +0.000 HD
ENDBRANCH  15  22
ENDBRANCH  14  18
ENDBRANCH   1  14
TORSDOF 5
ENDMDL
MODEL 4
REMARK VINA RESULT:    -7.574      1.587      2.489
REMARK INTER + INTRA:         -10.606
REMARK INTER:                  -9.891
REMARK INTRA:                  -0.714
REMARK UNBOUND:                -0.818
REMARK  Name = 
REMARK  5 active torsions:
REMARK  status: ('A' for Active; 'I' for Inactive)
REMARK    1  A    between atoms: C_2  and  C_4
REMARK    2  A    between atoms: C_7  and  O_8
REMARK    3  A    between atoms: O_8  and  C_9
REMARK    4  A    between atoms: C_9  and  C_10
REMARK    5  A    between atoms: C_14  and  C_15
REMARK                            x       y       z     vdW  Elec       q    Type
REMARK                         _______ _______ _______ _____ _____    ______ ____
ROOT
ATOM      1  C   UNL     1      44.447   4.878  11.363  0.00  0.00    +0.000 C 
ENDROOT
BRANCH   1   2
ATOM      2  C   UNL     1      45.064   6.236  11.617  0.00  0.00    +0.000 A 
ATOM      3  C   UNL     1      44.350   7.398  11.304  0.00  0.00    +0.000 A 
ATOM      4  C   UNL     1      44.896   8.649  11.574  0.00  0.00    +0.000 A 
ATOM      5  C   UNL     1      46.147   8.750  12.187  0.00  0.00    +0.000 A 
ATOM      6  C   UNL     1      46.869   7.606  12.572  0.00  0.00    +0.000 A 
ATOM      7  C   UNL     1      46.308   6.354  12.260  0.00  0.00    +0.000 A 
BRANCH   6   8
ATOM      8  C   UNL     1      48.127   7.704  13.343  0.00  0.00    +0.000 A 
ATOM      9  C   UNL     1      48.370   6.889  14.458  0.00  0.00    +0.000 A 
ATOM     10  C   UNL     1      49.595   6.933  15.122  0.00  0.00    +0.000 A 
ATOM     11  C   UNL     1      50.563   7.802  14.652  0.00  0.00    +0.000 A 
ATOM     12  N   UNL     1      50.380   8.622  13.599  0.00  0.00    +0.000 NA
ATOM     13  C   UNL     1      49.173   8.555  12.980  0.00  0.00    +0.000 A 
ENDBRANCH   6   8
ENDBRANCH   1   2
BRANCH   1  14
ATOM     14  O   UNL     1      43.996   4.790  10.007  0.00  0.00    +0.000 OA
BRANCH  14  18
ATOM     15  C   UNL     1      46.425   2.370   7.732  0.00  0.00    +0.000 A 
ATOM     16  C   UNL     1      45.581   1.799   8.690  0.00  0.00    +0.000 A 
ATOM     17  C   UNL     1      44.767   2.633   9.457  0.00  0.00    +0.000 A 
ATOM     18  C   UNL     1      44.823   4.001   9.236  0.00  0.00    +0.000 A 
ATOM     19  N   UNL     1      45.635   4.578   8.324  0.00  0.00    +0.000 NA
ATOM     20  C   UNL     1      46.427   3.750   7.601  0.00  0.00    +0.000 A 
BRANCH  15  22
ATOM     21  N   UNL     1      48.437   2.205   6.383  0.00  0.00    +0.000 N 
ATOM     22  C   UNL     1      47.323   1.581   6.865  0.00  0.00    +0.000 C 
ATOM     23  O   UNL     1      47.100   0.402   6.625  0.00  0.00    +0.000 OA
ATOM     24  H   UNL     1      49.100   1.616   5.893  0.00  0.00    +0.000 HD
ATOM     25  H   UNL     1      48.784   3.072   6.769  0.00  0.00    +0.000 HD
ENDBRANCH  15  22
ENDBRANCH  14  18
ENDBRANCH   1  14
TORSDOF 5
ENDMDL
MODEL 5
REMARK VINA RESULT:    -7.416      2.687      6.731
REMARK INTER + INTRA:         -10.402
REMARK INTER:                  -9.557
REMARK INTRA:                  -0.845
REMARK UNBOUND:                -0.818
REMARK  Name = 
REMARK  5 active torsions:
REMARK  status: ('A' for Active; 'I' for Inactive)
REMARK    1  A    between atoms: C_2  and  C_4
REMARK    2  A    between atoms: C_7  and  O_8
REMARK    3  A    between atoms: O_8  and  C_9
REMARK    4  A    between atoms: C_9  and  C_10
REMARK    5  A    between atoms: C_14  and  C_15
REMARK                            x       y       z     vdW  Elec       q    Type
REMARK                         _______ _______ _______ _____ _____    ______ ____
ROOT
ATOM      1  C   UNL     1      44.184   6.589  11.444  0.00  0.00    +0.000 C 
ENDROOT
BRANCH   1   2
ATOM      2  C   UNL     1      44.188   5.115  11.103  0.00  0.00    +0.000 A 
ATOM      3  C   UNL     1      43.341   4.237  11.789  0.00  0.00    +0.000 A 
ATOM      4  C   UNL     1      43.309   2.888  11.450  0.00  0.00    +0.000 A 
ATOM      5  C   UNL     1      44.100   2.409  10.403  0.00  0.00    +0.000 A 
ATOM      6  C   UNL     1      44.919   3.271   9.650  0.00  0.00    +0.000 A 
ATOM      7  C   UNL     1      44.955   4.624  10.033  0.00  0.00    +0.000 A 
BRANCH   6   8
ATOM      8  C   UNL     1      45.652   2.799   8.457  0.00  0.00    +0.000 A 
ATOM      9  C   UNL     1      45.985   3.668   7.408  0.00  0.00    +0.000 A 
ATOM     10  C   UNL     1      46.751   3.227   6.330  0.00  0.00    +0.000 A 
ATOM     11  C   UNL     1      47.173   1.911   6.323  0.00  0.00    +0.000 A 
ATOM     12  N   UNL     1      46.868   1.025   7.290  0.00  0.00    +0.000 NA
ATOM     13  C   UNL     1      46.117   1.488   8.323  0.00  0.00    +0.000 A 
ENDBRANCH   6   8
ENDBRANCH   1   2
BRANCH   1  14
ATOM     14  O   UNL     1      44.773   6.795  12.732  0.00  0.00    +0.000 OA
BRANCH  14  18
ATOM     15  C   UNL     1      48.786   7.664  12.465  0.00  0.00    +0.000 A 
ATOM     16  C   UNL     1      47.846   8.596  12.018  0.00  0.00    +0.000 A 
ATOM     17  C   UNL     1      46.488   8.286  12.110  0.00  0.00    +0.000 A 
ATOM     18  C   UNL     1      46.124   7.061  12.649  0.00  0.00    +0.000 A 
ATOM     19  N   UNL     1      47.012   6.139  13.079  0.00  0.00    +0.000 NA
ATOM     20  C   UNL     1      48.324   6.456  12.967  0.00  0.00    +0.000 A 
BRANCH  15  22
ATOM     21  N   UNL     1      50.914   7.445  11.315  0.00  0.00    +0.000 N 
ATOM     22  C   UNL     1      50.245   7.891  12.418  0.00  0.00    +0.000 C 
ATOM     23  O   UNL     1      50.822   8.496  13.311  0.00  0.00    +0.000 OA
ATOM     24  H   UNL     1      51.888   7.717  11.245  0.00  0.00    +0.000 HD
ATOM     25  H   UNL     1      50.441   7.188  10.460  0.00  0.00    +0.000 HD
ENDBRANCH  15  22
ENDBRANCH  14  18
ENDBRANCH   1  14
TORSDOF 5
ENDMDL
MODEL 6
REMARK VINA RESULT:    -7.031      2.591      7.119
REMARK INTER + INTRA:          -9.904
REMARK INTER:                  -9.444
REMARK INTRA:                  -0.460
REMARK UNBOUND:                -0.818
REMARK  Name = 
REMARK  5 active torsions:
REMARK  status: ('A' for Active; 'I' for Inactive)
REMARK    1  A    between atoms: C_2  and  C_4
REMARK    2  A    between atoms: C_7  and  O_8
REMARK    3  A    between atoms: O_8  and  C_9
REMARK    4  A    between atoms: C_9  and  C_10
REMARK    5  A    between atoms: C_14  and  C_15
REMARK                            x       y       z     vdW  Elec       q    Type
REMARK                         _______ _______ _______ _____ _____    ______ ____
ROOT
ATOM      1  C   UNL     1      44.322   6.284  11.360  0.00  0.00    +0.000 C 
ENDROOT
BRANCH   1   2
ATOM      2  C   UNL     1      44.324   4.832  10.934  0.00  0.00    +0.000 A 
ATOM      3  C   UNL     1      43.459   3.922  11.552  0.00  0.00    +0.000 A 
ATOM      4  C   UNL     1      43.426   2.595  11.136  0.00  0.00    +0.000 A 
ATOM      5  C   UNL     1      44.236   2.172  10.079  0.00  0.00    +0.000 A 
ATOM      6  C   UNL     1      45.073   3.069   9.393  0.00  0.00    +0.000 A 
ATOM      7  C   UNL     1      45.109   4.398   9.853  0.00  0.00    +0.000 A 
BRANCH   6   8
ATOM      8  C   UNL     1      45.827   2.662   8.188  0.00  0.00    +0.000 A 
ATOM      9  C   UNL     1      46.074   3.558   7.138  0.00  0.00    +0.000 A 
ATOM     10  C   UNL     1      46.860   3.183   6.049  0.00  0.00    +0.000 A 
ATOM     11  C   UNL     1      47.388   1.906   6.032  0.00  0.00    +0.000 A 
ATOM     12  N   UNL     1      47.170   0.996   7.001  0.00  0.00    +0.000 NA
ATOM     13  C   UNL     1      46.397   1.394   8.044  0.00  0.00    +0.000 A 
ENDBRANCH   6   8
ENDBRANCH   1   2
BRANCH   1  14
ATOM     14  O   UNL     1      45.580   6.889  11.045  0.00  0.00    +0.000 OA
BRANCH  14  18
ATOM     15  C   UNL     1      48.073   6.967  14.318  0.00  0.00    +0.000 A 
ATOM     16  C   UNL     1      47.332   5.814  14.039  0.00  0.00    +0.000 A 
ATOM     17  C   UNL     1      46.487   5.803  12.929  0.00  0.00    +0.000 A 
ATOM     18  C   UNL     1      46.418   6.942  12.139  0.00  0.00    +0.000 A 
ATOM     19  N   UNL     1      47.115   8.070  12.390  0.00  0.00    +0.000 NA
ATOM     20  C   UNL     1      47.917   8.062  13.481  0.00  0.00    +0.000 A 
BRANCH  15  22
ATOM     21  N   UNL     1      48.579   7.815  16.536  0.00  0.00    +0.000 N 
ATOM     22  C   UNL     1      48.998   7.084  15.463  0.00  0.00    +0.000 C 
ATOM     23  O   UNL     1      50.078   6.510  15.467  0.00  0.00    +0.000 OA
ATOM     24  H   UNL     1      49.173   7.783  17.356  0.00  0.00    +0.000 HD
ATOM     25  H   UNL     1      47.611   8.072  16.675  0.00  0.00    +0.000 HD
ENDBRANCH  15  22
ENDBRANCH  14  18
ENDBRANCH   1  14
TORSDOF 5
ENDMDL
MODEL 7
REMARK VINA RESULT:    -7.006      3.688      7.490
REMARK INTER + INTRA:          -9.871
REMARK INTER:                  -9.191
REMARK INTRA:                  -0.680
REMARK UNBOUND:                -0.818
REMARK  Name = 
REMARK  5 active torsions:
REMARK  status: ('A' for Active; 'I' for Inactive)
REMARK    1  A    between atoms: C_2  and  C_4
REMARK    2  A    between atoms: C_7  and  O_8
REMARK    3  A    between atoms: O_8  and  C_9
REMARK    4  A    between atoms: C_9  and  C_10
REMARK    5  A    between atoms: C_14  and  C_15
REMARK                            x       y       z     vdW  Elec       q    Type
REMARK                         _______ _______ _______ _____ _____    ______ ____
ROOT
ATOM      1  C   UNL     1      45.992   6.833  12.862  0.00  0.00    +0.000 C 
ENDROOT
BRANCH   1   2
ATOM      2  C   UNL     1      45.105   5.955  12.007  0.00  0.00    +0.000 A 
ATOM      3  C   UNL     1      43.713   6.044  12.125  0.00  0.00    +0.000 A 
ATOM      4  C   UNL     1      42.891   5.269  11.312  0.00  0.00    +0.000 A 
ATOM      5  C   UNL     1      43.452   4.422  10.353  0.00  0.00    +0.000 A 
ATOM      6  C   UNL     1      44.844   4.350  10.163  0.00  0.00    +0.000 A 
ATOM      7  C   UNL     1      45.652   5.120  11.019  0.00  0.00    +0.000 A 
BRANCH   6   8
ATOM      8  C   UNL     1      45.437   3.561   9.062  0.00  0.00    +0.000 A 
ATOM      9  C   UNL     1      46.052   4.181   7.964  0.00  0.00    +0.000 A 
ATOM     10  C   UNL     1      46.682   3.424   6.977  0.00  0.00    +0.000 A 
ATOM     11  C   UNL     1      46.685   2.048   7.111  0.00  0.00    +0.000 A 
ATOM     12  N   UNL     1      46.096   1.397   8.132  0.00  0.00    +0.000 NA
ATOM     13  C   UNL     1      45.488   2.165   9.072  0.00  0.00    +0.000 A 
ENDBRANCH   6   8
ENDBRANCH   1   2
BRANCH   1  14
ATOM     14  O   UNL     1      47.310   6.278  12.932  0.00  0.00    +0.000 OA
BRANCH  14  18
ATOM     15  C   UNL     1      48.160   4.803  16.678  0.00  0.00    +0.000 A 
ATOM     16  C   UNL     1      47.227   4.146  15.871  0.00  0.00    +0.000 A 
ATOM     17  C   UNL     1      46.945   4.660  14.604  0.00  0.00    +0.000 A 
ATOM     18  C   UNL     1      47.608   5.807  14.193  0.00  0.00    +0.000 A 
ATOM     19  N   UNL     1      48.506   6.466  14.956  0.00  0.00    +0.000 NA
ATOM     20  C   UNL     1      48.753   5.957  16.186  0.00  0.00    +0.000 A 
BRANCH  15  22
ATOM     21  N   UNL     1      47.687   4.652  19.055  0.00  0.00    +0.000 N 
ATOM     22  C   UNL     1      48.535   4.344  18.030  0.00  0.00    +0.000 C 
ATOM     23  O   UNL     1      49.541   3.674  18.217  0.00  0.00    +0.000 OA
ATOM     24  H   UNL     1      47.899   4.226  19.950  0.00  0.00    +0.000 HD
ATOM     25  H   UNL     1      46.738   4.962  18.901  0.00  0.00    +0.000 HD
ENDBRANCH  15  22
ENDBRANCH  14  18
ENDBRANCH   1  14
TORSDOF 5
ENDMDL
MODEL 8
REMARK VINA RESULT:    -6.553      4.703      8.311
REMARK INTER + INTRA:          -9.286
REMARK INTER:                  -8.608
REMARK INTRA:                  -0.679
REMARK UNBOUND:                -0.818
REMARK  Name = 
REMARK  5 active torsions:
REMARK  status: ('A' for Active; 'I' for Inactive)
REMARK    1  A    between atoms: C_2  and  C_4
REMARK    2  A    between atoms: C_7  and  O_8
REMARK    3  A    between atoms: O_8  and  C_9
REMARK    4  A    between atoms: C_9  and  C_10
REMARK    5  A    between atoms: C_14  and  C_15
REMARK                            x       y       z     vdW  Elec       q    Type
REMARK                         _______ _______ _______ _____ _____    ______ ____
ROOT
ATOM      1  C   UNL     1      48.185   6.945  14.041  0.00  0.00    +0.000 C 
ENDROOT
BRANCH   1   2
ATOM      2  C   UNL     1      46.978   7.098  13.142  0.00  0.00    +0.000 A 
ATOM      3  C   UNL     1      46.339   8.339  13.037  0.00  0.00    +0.000 A 
ATOM      4  C   UNL     1      45.254   8.496  12.180  0.00  0.00    +0.000 A 
ATOM      5  C   UNL     1      44.818   7.424  11.398  0.00  0.00    +0.000 A 
ATOM      6  C   UNL     1      45.472   6.180  11.430  0.00  0.00    +0.000 A 
ATOM      7  C   UNL     1      46.546   6.039  12.327  0.00  0.00    +0.000 A 
BRANCH   6   8
ATOM      8  C   UNL     1      45.104   5.085  10.507  0.00  0.00    +0.000 A 
ATOM      9  C   UNL     1      45.628   5.011   9.209  0.00  0.00    +0.000 A 
ATOM     10  C   UNL     1      45.339   3.927   8.381  0.00  0.00    +0.000 A 
ATOM     11  C   UNL     1      44.521   2.928   8.875  0.00  0.00    +0.000 A 
ATOM     12  N   UNL     1      43.973   2.953  10.105  0.00  0.00    +0.000 NA
ATOM     13  C   UNL     1      44.273   4.026  10.881  0.00  0.00    +0.000 A 
ENDBRANCH   6   8
ENDBRANCH   1   2
BRANCH   1  14
ATOM     14  O   UNL     1      48.307   5.585  14.471  0.00  0.00    +0.000 OA
BRANCH  14  18
ATOM     15  C   UNL     1      48.165   5.308  18.574  0.00  0.00    +0.000 A 
ATOM     16  C   UNL     1      48.873   6.353  17.975  0.00  0.00    +0.000 A 
ATOM     17  C   UNL     1      48.917   6.432  16.583  0.00  0.00    +0.000 A 
ATOM     18  C   UNL     1      48.249   5.467  15.843  0.00  0.00    +0.000 A 
ATOM     19  N   UNL     1      47.565   4.443  16.396  0.00  0.00    +0.000 NA
ATOM     20  C   UNL     1      47.548   4.379  17.749  0.00  0.00    +0.000 A 
BRANCH  15  22
ATOM     21  N   UNL     1      48.548   3.980  20.570  0.00  0.00    +0.000 N 
ATOM     22  C   UNL     1      48.051   5.133  20.036  0.00  0.00    +0.000 C 
ATOM     23  O   UNL     1      47.571   6.007  20.744  0.00  0.00    +0.000 OA
ATOM     24  H   UNL     1      48.571   3.932  21.582  0.00  0.00    +0.000 HD
ATOM     25  H   UNL     1      49.176   3.373  20.063  0.00  0.00    +0.000 HD
ENDBRANCH  15  22
ENDBRANCH  14  18
ENDBRANCH   1  14
TORSDOF 5
ENDMDL
MODEL 9
REMARK VINA RESULT:    -6.360      3.499      5.727
REMARK INTER + INTRA:          -9.037
REMARK INTER:                  -8.274
REMARK INTRA:                  -0.764
REMARK UNBOUND:                -0.818
REMARK  Name = 
REMARK  5 active torsions:
REMARK  status: ('A' for Active; 'I' for Inactive)
REMARK    1  A    between atoms: C_2  and  C_4
REMARK    2  A    between atoms: C_7  and  O_8
REMARK    3  A    between atoms: O_8  and  C_9
REMARK    4  A    between atoms: C_9  and  C_10
REMARK    5  A    between atoms: C_14  and  C_15
REMARK                            x       y       z     vdW  Elec       q    Type
REMARK                         _______ _______ _______ _____ _____    ______ ____
ROOT
ATOM      1  C   UNL     1      47.158   7.940  12.366  0.00  0.00    +0.000 C 
ENDROOT
BRANCH   1   2
ATOM      2  C   UNL     1      47.921   7.741  13.657  0.00  0.00    +0.000 A 
ATOM      3  C   UNL     1      48.646   8.802  14.211  0.00  0.00    +0.000 A 
ATOM      4  C   UNL     1      49.315   8.637  15.419  0.00  0.00    +0.000 A 
ATOM      5  C   UNL     1      49.241   7.419  16.101  0.00  0.00    +0.000 A 
ATOM      6  C   UNL     1      48.474   6.349  15.607  0.00  0.00    +0.000 A 
ATOM      7  C   UNL     1      47.833   6.533  14.369  0.00  0.00    +0.000 A 
BRANCH   6   8
ATOM      8  C   UNL     1      48.279   5.109  16.387  0.00  0.00    +0.000 A 
ATOM      9  C   UNL     1      49.211   4.692  17.348  0.00  0.00    +0.000 A 
ATOM     10  C   UNL     1      48.972   3.566  18.136  0.00  0.00    +0.000 A 
ATOM     11  C   UNL     1      47.791   2.873  17.943  0.00  0.00    +0.000 A 
ATOM     12  N   UNL     1      46.868   3.214  17.024  0.00  0.00    +0.000 NA
ATOM     13  C   UNL     1      47.137   4.312  16.271  0.00  0.00    +0.000 A 
ENDBRANCH   6   8
ENDBRANCH   1   2
BRANCH   1  14
ATOM     14  O   UNL     1      45.752   7.807  12.602  0.00  0.00    +0.000 OA
BRANCH  14  18
ATOM     15  C   UNL     1      44.374   4.146  11.327  0.00  0.00    +0.000 A 
ATOM     16  C   UNL     1      45.276   4.860  10.533  0.00  0.00    +0.000 A 
ATOM     17  C   UNL     1      45.732   6.102  10.976  0.00  0.00    +0.000 A 
ATOM     18  C   UNL     1      45.272   6.581  12.194  0.00  0.00    +0.000 A 
ATOM     19  N   UNL     1      44.394   5.916  12.975  0.00  0.00    +0.000 NA
ATOM     20  C   UNL     1      43.955   4.719  12.518  0.00  0.00    +0.000 A 
BRANCH  15  22
ATOM     21  N   UNL     1      44.359   2.216   9.853  0.00  0.00    +0.000 N 
ATOM     22  C   UNL     1      43.832   2.823  10.956  0.00  0.00    +0.000 C 
ATOM     23  O   UNL     1      42.977   2.273  11.637  0.00  0.00    +0.000 OA
ATOM     24  H   UNL     1      44.063   1.261   9.686  0.00  0.00    +0.000 HD
ATOM     25  H   UNL     1      45.230   2.511   9.434  0.00  0.00    +0.000 HD
ENDBRANCH  15  22
ENDBRANCH  14  18
ENDBRANCH   1  14
TORSDOF 5
ENDMDL
