MODEL 1
REMARK VINA RESULT:    -7.930      0.000      0.000
REMARK INTER + INTRA:         -11.975
REMARK INTER:                 -11.175
REMARK INTRA:                  -0.801
REMARK UNBOUND:                -0.801
REMARK  Name = 
REMARK  8 active torsions:
REMARK  status: ('A' for Active; 'I' for Inactive)
REMARK    1  A    between atoms: C_1  and  C_2
REMARK    2  A    between atoms: C_5  and  O_6
REMARK    3  A    between atoms: O_6  and  C_7
REMARK    4  A    between atoms: C_9  and  C_10
REMARK    5  A    between atoms: C_10  and  C_11
REMARK    6  A    between atoms: C_11  and  N_12
REMARK    7  A    between atoms: C_17  and  C_18
REMARK    8  A    between atoms: C_23  and  C_24
REMARK                            x       y       z     vdW  Elec       q    Type
REMARK                         _______ _______ _______ _____ _____    ______ ____
ROOT
ATOM      1  C   UNL     1      46.831   4.705  13.853  0.00  0.00    +0.000 A 
ATOM      2  C   UNL     1      45.792   3.836  13.491  0.00  0.00    +0.000 A 
ATOM      3  C   UNL     1      44.788   4.234  12.593  0.00  0.00    +0.000 A 
ATOM      4  C   UNL     1      44.824   5.555  12.126  0.00  0.00    +0.000 A 
ATOM      5  C   UNL     1      45.799   6.465  12.568  0.00  0.00    +0.000 A 
ATOM      6  C   UNL     1      46.830   6.019  13.403  0.00  0.00    +0.000 A 
ENDROOT
BRANCH   5   7
ATOM      7  C   UNL     1      45.687   7.929  12.221  0.00  0.00    +0.000 C 
ATOM      8  F   UNL     1      45.194   8.690  13.237  0.00  0.00    +0.000 F 
ATOM      9  F   UNL     1      46.899   8.467  11.912  0.00  0.00    +0.000 F 
ATOM     10  F   UNL     1      44.885   8.164  11.149  0.00  0.00    +0.000 F 
ENDBRANCH   5   7
BRANCH   1  11
ATOM     11  O   UNL     1      47.783   4.180  14.686  0.00  0.00    +0.000 OA
BRANCH  11  16
ATOM     12  C   UNL     1      49.183   6.157  16.819  0.00  0.00    +0.000 C 
ATOM     13  C   UNL     1      48.435   4.878  17.135  0.00  0.00    +0.000 C 
ATOM     14  N   UNL     1      49.337   3.700  17.134  0.00  0.00    +0.000 NA
ATOM     15  C   UNL     1      48.169   2.857  16.790  0.00  0.00    +0.000 C 
ATOM     16  C   UNL     1      47.528   4.107  16.113  0.00  0.00    +0.000 C 
ATOM     17  H   UNL     1      49.791   3.491  18.022  0.00  0.00    +0.000 HD
ENDBRANCH  11  16
ENDBRANCH   1  11
BRANCH   3  18
ATOM     18  C   UNL     1      43.692   3.253  12.201  0.00  0.00    +0.000 C 
BRANCH  18  19
ATOM     19  C   UNL     1      43.801   2.695  10.770  0.00  0.00    +0.000 C 
BRANCH  19  20
ATOM     20  N   UNL     1      43.855   3.744   9.764  0.00  0.00    +0.000 N 
ATOM     21  C   UNL     1      44.947   3.637   8.902  0.00  0.00    +0.000 A 
ATOM     22  N   UNL     1      45.436   4.798   8.449  0.00  0.00    +0.000 NA
ATOM     23  C   UNL     1      46.480   4.750   7.602  0.00  0.00    +0.000 A 
ATOM     24  C   UNL     1      47.074   3.586   7.199  0.00  0.00    +0.000 A 
ATOM     25  C   UNL     1      46.514   2.447   7.734  0.00  0.00    +0.000 A 
ATOM     26  N   UNL     1      45.457   2.441   8.579  0.00  0.00    +0.000 NA
ATOM     27  H   UNL     1      43.882   4.695  10.115  0.00  0.00    +0.000 HD
BRANCH  25  28
ATOM     28  C   UNL     1      47.093   1.120   7.358  0.00  0.00    +0.000 C 
ATOM     29  N   UNL     1      46.471   0.023   7.896  0.00  0.00    +0.000 N 
ATOM     30  O   UNL     1      48.064   1.012   6.627  0.00  0.00    +0.000 OA
ATOM     31  H   UNL     1      45.643   0.138   8.466  0.00  0.00    +0.000 HD
ATOM     32  H   UNL     1      46.798  -0.899   7.651  0.00  0.00    +0.000 HD
ENDBRANCH  25  28
ENDBRANCH  19  20
ENDBRANCH  18  19
ENDBRANCH   3  18
TORSDOF 7
ENDMDL
MODEL 2
REMARK VINA RESULT:    -7.587      2.862      7.350
REMARK INTER + INTRA:         -11.492
REMARK INTER:                 -10.604
REMARK INTRA:                  -0.888
REMARK UNBOUND:                -0.801
REMARK  Name = 
REMARK  8 active torsions:
REMARK  status: ('A' for Active; 'I' for Inactive)
REMARK    1  A    between atoms: C_1  and  C_2
REMARK    2  A    between atoms: C_5  and  O_6
REMARK    3  A    between atoms: O_6  and  C_7
REMARK    4  A    between atoms: C_9  and  C_10
REMARK    5  A    between atoms: C_10  and  C_11
REMARK    6  A    between atoms: C_11  and  N_12
REMARK    7  A    between atoms: C_17  and  C_18
REMARK    8  A    between atoms: C_23  and  C_24
REMARK                            x       y       z     vdW  Elec       q    Type
REMARK                         _______ _______ _______ _____ _____    ______ ____
ROOT
ATOM      1  C   UNL     1      45.635   6.153  11.488  0.00  0.00    +0.000 A 
ATOM      2  C   UNL     1      46.730   6.373  12.336  0.00  0.00    +0.000 A 
ATOM      3  C   UNL     1      46.932   7.615  12.960  0.00  0.00    +0.000 A 
ATOM      4  C   UNL     1      46.037   8.649  12.648  0.00  0.00    +0.000 A 
ATOM      5  C   UNL     1      45.001   8.468  11.717  0.00  0.00    +0.000 A 
ATOM      6  C   UNL     1      44.779   7.199  11.169  0.00  0.00    +0.000 A 
ENDROOT
BRANCH   5   7
ATOM      7  C   UNL     1      44.193   9.649  11.240  0.00  0.00    +0.000 C 
ATOM      8  F   UNL     1      43.009   9.299  10.664  0.00  0.00    +0.000 F 
ATOM      9  F   UNL     1      43.869  10.485  12.266  0.00  0.00    +0.000 F 
ATOM     10  F   UNL     1      44.847  10.411  10.325  0.00  0.00    +0.000 F 
ENDBRANCH   5   7
BRANCH   1  11
ATOM     11  O   UNL     1      45.513   4.883  10.992  0.00  0.00    +0.000 OA
BRANCH  11  16
ATOM     12  C   UNL     1      43.086   4.391  13.063  0.00  0.00    +0.000 C 
ATOM     13  C   UNL     1      43.162   3.895  11.634  0.00  0.00    +0.000 C 
ATOM     14  N   UNL     1      43.801   2.559  11.548  0.00  0.00    +0.000 NA
ATOM     15  C   UNL     1      44.218   2.891  10.166  0.00  0.00    +0.000 C 
ATOM     16  C   UNL     1      44.210   4.395  10.578  0.00  0.00    +0.000 C 
ATOM     17  H   UNL     1      43.173   1.762  11.645  0.00  0.00    +0.000 HD
ENDBRANCH  11  16
ENDBRANCH   1  11
BRANCH   3  18
ATOM     18  C   UNL     1      48.117   7.808  13.895  0.00  0.00    +0.000 C 
BRANCH  18  19
ATOM     19  C   UNL     1      48.478   6.577  14.748  0.00  0.00    +0.000 C 
BRANCH  19  20
ATOM     20  N   UNL     1      48.524   6.878  16.171  0.00  0.00    +0.000 N 
ATOM     21  C   UNL     1      48.579   5.743  16.981  0.00  0.00    +0.000 A 
ATOM     22  N   UNL     1      47.978   5.858  18.171  0.00  0.00    +0.000 NA
ATOM     23  C   UNL     1      48.015   4.797  18.998  0.00  0.00    +0.000 A 
ATOM     24  C   UNL     1      48.615   3.610  18.677  0.00  0.00    +0.000 A 
ATOM     25  C   UNL     1      49.187   3.582  17.425  0.00  0.00    +0.000 A 
ATOM     26  N   UNL     1      49.188   4.625  16.563  0.00  0.00    +0.000 NA
ATOM     27  H   UNL     1      47.754   7.429  16.533  0.00  0.00    +0.000 HD
BRANCH  25  28
ATOM     28  C   UNL     1      49.868   2.327  16.977  0.00  0.00    +0.000 C 
ATOM     29  N   UNL     1      50.946   1.933  17.727  0.00  0.00    +0.000 N 
ATOM     30  O   UNL     1      49.499   1.694  16.001  0.00  0.00    +0.000 OA
ATOM     31  H   UNL     1      51.205   2.453  18.555  0.00  0.00    +0.000 HD
ATOM     32  H   UNL     1      51.423   1.077  17.491  0.00  0.00    +0.000 HD
ENDBRANCH  25  28
ENDBRANCH  19  20
ENDBRANCH  18  19
ENDBRANCH   3  18
TORSDOF 7
ENDMDL
MODEL 3
REMARK VINA RESULT:    -7.407      1.666      2.405
REMARK INTER + INTRA:         -11.238
REMARK INTER:                 -10.327
REMARK INTRA:                  -0.912
REMARK UNBOUND:                -0.801
REMARK  Name = 
REMARK  8 active torsions:
REMARK  status: ('A' for Active; 'I' for Inactive)
REMARK    1  A    between atoms: C_1  and  C_2
REMARK    2  A    between atoms: C_5  and  O_6
REMARK    3  A    between atoms: O_6  and  C_7
REMARK    4  A    between atoms: C_9  and  C_10
REMARK    5  A    between atoms: C_10  and  C_11
REMARK    6  A    between atoms: C_11  and  N_12
REMARK    7  A    between atoms: C_17  and  C_18
REMARK    8  A    between atoms: C_23  and  C_24
REMARK                            x       y       z     vdW  Elec       q    Type
REMARK                         _______ _______ _______ _____ _____    ______ ____
ROOT
ATOM      1  C   UNL     1      46.564   4.673  13.968  0.00  0.00    +0.000 A 
ATOM      2  C   UNL     1      45.453   4.306  13.195  0.00  0.00    +0.000 A 
ATOM      3  C   UNL     1      45.190   4.918  11.958  0.00  0.00    +0.000 A 
ATOM      4  C   UNL     1      46.039   5.959  11.558  0.00  0.00    +0.000 A 
ATOM      5  C   UNL     1      47.090   6.407  12.376  0.00  0.00    +0.000 A 
ATOM      6  C   UNL     1      47.374   5.728  13.566  0.00  0.00    +0.000 A 
ENDROOT
BRANCH   5   7
ATOM      7  C   UNL     1      47.847   7.662  12.022  0.00  0.00    +0.000 C 
ATOM      8  F   UNL     1      48.748   8.038  12.972  0.00  0.00    +0.000 F 
ATOM      9  F   UNL     1      48.566   7.510  10.874  0.00  0.00    +0.000 F 
ATOM     10  F   UNL     1      47.039   8.736  11.821  0.00  0.00    +0.000 F 
ENDBRANCH   5   7
BRANCH   1  11
ATOM     11  O   UNL     1      46.748   3.960  15.121  0.00  0.00    +0.000 OA
BRANCH  11  16
ATOM     12  C   UNL     1      48.978   2.084  16.511  0.00  0.00    +0.000 C 
ATOM     13  C   UNL     1      48.535   3.454  16.983  0.00  0.00    +0.000 C 
ATOM     14  N   UNL     1      47.394   3.368  17.927  0.00  0.00    +0.000 NA
ATOM     15  C   UNL     1      46.992   4.729  17.504  0.00  0.00    +0.000 C 
ATOM     16  C   UNL     1      47.672   4.448  16.129  0.00  0.00    +0.000 C 
ATOM     17  H   UNL     1      47.641   3.262  18.910  0.00  0.00    +0.000 HD
ENDBRANCH  11  16
ENDBRANCH   1  11
BRANCH   3  18
ATOM     18  C   UNL     1      43.990   4.473  11.134  0.00  0.00    +0.000 C 
BRANCH  18  19
ATOM     19  C   UNL     1      44.337   3.755   9.817  0.00  0.00    +0.000 C 
BRANCH  19  20
ATOM     20  N   UNL     1      45.102   2.536  10.029  0.00  0.00    +0.000 N 
ATOM     21  C   UNL     1      45.721   2.056   8.875  0.00  0.00    +0.000 A 
ATOM     22  N   UNL     1      45.843   0.724   8.802  0.00  0.00    +0.000 NA
ATOM     23  C   UNL     1      46.447   0.209   7.715  0.00  0.00    +0.000 A 
ATOM     24  C   UNL     1      46.922   0.970   6.683  0.00  0.00    +0.000 A 
ATOM     25  C   UNL     1      46.732   2.325   6.840  0.00  0.00    +0.000 A 
ATOM     26  N   UNL     1      46.143   2.892   7.918  0.00  0.00    +0.000 NA
ATOM     27  H   UNL     1      44.585   1.748  10.405  0.00  0.00    +0.000 HD
BRANCH  25  28
ATOM     28  C   UNL     1      47.214   3.246   5.764  0.00  0.00    +0.000 C 
ATOM     29  N   UNL     1      48.250   2.777   4.998  0.00  0.00    +0.000 N 
ATOM     30  O   UNL     1      46.728   4.350   5.579  0.00  0.00    +0.000 OA
ATOM     31  H   UNL     1      48.608   1.842   5.146  0.00  0.00    +0.000 HD
ATOM     32  H   UNL     1      48.594   3.341   4.236  0.00  0.00    +0.000 HD
ENDBRANCH  25  28
ENDBRANCH  19  20
ENDBRANCH  18  19
ENDBRANCH   3  18
TORSDOF 7
ENDMDL
MODEL 4
REMARK VINA RESULT:    -7.266      2.848      7.133
REMARK INTER + INTRA:         -11.040
REMARK INTER:                  -9.891
REMARK INTRA:                  -1.149
REMARK UNBOUND:                -0.801
REMARK  Name = 
REMARK  8 active torsions:
REMARK  status: ('A' for Active; 'I' for Inactive)
REMARK    1  A    between atoms: C_1  and  C_2
REMARK    2  A    between atoms: C_5  and  O_6
REMARK    3  A    between atoms: O_6  and  C_7
REMARK    4  A    between atoms: C_9  and  C_10
REMARK    5  A    between atoms: C_10  and  C_11
REMARK    6  A    between atoms: C_11  and  N_12
REMARK    7  A    between atoms: C_17  and  C_18
REMARK    8  A    between atoms: C_23  and  C_24
REMARK                            x       y       z     vdW  Elec       q    Type
REMARK                         _______ _______ _______ _____ _____    ______ ____
ROOT
ATOM      1  C   UNL     1      45.638   6.381  11.368  0.00  0.00    +0.000 A 
ATOM      2  C   UNL     1      46.761   6.755  12.121  0.00  0.00    +0.000 A 
ATOM      3  C   UNL     1      46.883   8.049  12.653  0.00  0.00    +0.000 A 
ATOM      4  C   UNL     1      45.875   8.974  12.345  0.00  0.00    +0.000 A 
ATOM      5  C   UNL     1      44.802   8.639  11.503  0.00  0.00    +0.000 A 
ATOM      6  C   UNL     1      44.667   7.321  11.050  0.00  0.00    +0.000 A 
ENDROOT
BRANCH   5   7
ATOM      7  C   UNL     1      43.855   9.707  11.015  0.00  0.00    +0.000 C 
ATOM      8  F   UNL     1      43.808  10.800  11.825  0.00  0.00    +0.000 F 
ATOM      9  F   UNL     1      44.214  10.174   9.787  0.00  0.00    +0.000 F 
ATOM     10  F   UNL     1      42.574   9.271  10.894  0.00  0.00    +0.000 F 
ENDBRANCH   5   7
BRANCH   1  11
ATOM     11  O   UNL     1      45.606   5.075  10.959  0.00  0.00    +0.000 OA
BRANCH  11  16
ATOM     12  C   UNL     1      43.265   4.272  13.032  0.00  0.00    +0.000 C 
ATOM     13  C   UNL     1      43.366   3.845  11.582  0.00  0.00    +0.000 C 
ATOM     14  N   UNL     1      44.126   2.580  11.434  0.00  0.00    +0.000 NA
ATOM     15  C   UNL     1      44.491   3.005  10.063  0.00  0.00    +0.000 C 
ATOM     16  C   UNL     1      44.348   4.484  10.538  0.00  0.00    +0.000 C 
ATOM     17  H   UNL     1      43.577   1.724  11.503  0.00  0.00    +0.000 HD
ENDBRANCH  11  16
ENDBRANCH   1  11
BRANCH   3  18
ATOM     18  C   UNL     1      48.103   8.411  13.489  0.00  0.00    +0.000 C 
BRANCH  18  19
ATOM     19  C   UNL     1      49.182   7.316  13.570  0.00  0.00    +0.000 C 
BRANCH  19  20
ATOM     20  N   UNL     1      49.920   7.350  14.823  0.00  0.00    +0.000 N 
ATOM     21  C   UNL     1      49.302   6.644  15.856  0.00  0.00    +0.000 A 
ATOM     22  N   UNL     1      49.496   7.139  17.085  0.00  0.00    +0.000 NA
ATOM     23  C   UNL     1      48.933   6.487  18.119  0.00  0.00    +0.000 A 
ATOM     24  C   UNL     1      48.165   5.364  17.976  0.00  0.00    +0.000 A 
ATOM     25  C   UNL     1      48.006   4.945  16.674  0.00  0.00    +0.000 A 
ATOM     26  N   UNL     1      48.560   5.557  15.603  0.00  0.00    +0.000 NA
ATOM     27  H   UNL     1      50.107   8.272  15.203  0.00  0.00    +0.000 HD
BRANCH  25  28
ATOM     28  C   UNL     1      47.180   3.726  16.410  0.00  0.00    +0.000 C 
ATOM     29  N   UNL     1      47.090   3.338  15.098  0.00  0.00    +0.000 N 
ATOM     30  O   UNL     1      46.611   3.114  17.300  0.00  0.00    +0.000 OA
ATOM     31  H   UNL     1      47.605   3.839  14.385  0.00  0.00    +0.000 HD
ATOM     32  H   UNL     1      46.573   2.505  14.865  0.00  0.00    +0.000 HD
ENDBRANCH  25  28
ENDBRANCH  19  20
ENDBRANCH  18  19
ENDBRANCH   3  18
TORSDOF 7
ENDMDL
MODEL 5
REMARK VINA RESULT:    -7.150      3.890      5.997
REMARK INTER + INTRA:         -10.877
REMARK INTER:                  -9.890
REMARK INTRA:                  -0.986
REMARK UNBOUND:                -0.801
REMARK  Name = 
REMARK  8 active torsions:
REMARK  status: ('A' for Active; 'I' for Inactive)
REMARK    1  A    between atoms: C_1  and  C_2
REMARK    2  A    between atoms: C_5  and  O_6
REMARK    3  A    between atoms: O_6  and  C_7
REMARK    4  A    between atoms: C_9  and  C_10
REMARK    5  A    between atoms: C_10  and  C_11
REMARK    6  A    between atoms: C_11  and  N_12
REMARK    7  A    between atoms: C_17  and  C_18
REMARK    8  A    between atoms: C_23  and  C_24
REMARK                            x       y       z     vdW  Elec       q    Type
REMARK                         _______ _______ _______ _____ _____    ______ ____
ROOT
ATOM      1  C   UNL     1      46.505   4.324  13.809  0.00  0.00    +0.000 A 
ATOM      2  C   UNL     1      47.089   5.594  13.696  0.00  0.00    +0.000 A 
ATOM      3  C   UNL     1      46.801   6.435  12.609  0.00  0.00    +0.000 A 
ATOM      4  C   UNL     1      45.962   5.931  11.605  0.00  0.00    +0.000 A 
ATOM      5  C   UNL     1      45.459   4.620  11.657  0.00  0.00    +0.000 A 
ATOM      6  C   UNL     1      45.701   3.833  12.788  0.00  0.00    +0.000 A 
ENDROOT
BRANCH   5   7
ATOM      7  C   UNL     1      44.742   4.033  10.467  0.00  0.00    +0.000 C 
ATOM      8  F   UNL     1      45.077   4.624   9.286  0.00  0.00    +0.000 F 
ATOM      9  F   UNL     1      45.027   2.711  10.309  0.00  0.00    +0.000 F 
ATOM     10  F   UNL     1      43.389   4.119  10.561  0.00  0.00    +0.000 F 
ENDBRANCH   5   7
BRANCH   1  11
ATOM     11  O   UNL     1      46.815   3.626  14.945  0.00  0.00    +0.000 OA
BRANCH  11  16
ATOM     12  C   UNL     1      49.117   2.088  16.606  0.00  0.00    +0.000 C 
ATOM     13  C   UNL     1      48.487   3.418  16.964  0.00  0.00    +0.000 C 
ATOM     14  N   UNL     1      47.289   3.246  17.821  0.00  0.00    +0.000 NA
ATOM     15  C   UNL     1      46.775   4.530  17.292  0.00  0.00    +0.000 C 
ATOM     16  C   UNL     1      47.593   4.265  15.991  0.00  0.00    +0.000 C 
ATOM     17  H   UNL     1      47.465   3.216  18.824  0.00  0.00    +0.000 HD
ENDBRANCH  11  16
ENDBRANCH   1  11
BRANCH   3  18
ATOM     18  C   UNL     1      47.433   7.818  12.534  0.00  0.00    +0.000 C 
BRANCH  18  19
ATOM     19  C   UNL     1      46.835   8.858  13.500  0.00  0.00    +0.000 C 
BRANCH  19  20
ATOM     20  N   UNL     1      46.850  10.204  12.950  0.00  0.00    +0.000 N 
ATOM     21  C   UNL     1      45.913  10.404  11.936  0.00  0.00    +0.000 A 
ATOM     22  N   UNL     1      46.275  11.275  10.985  0.00  0.00    +0.000 NA
ATOM     23  C   UNL     1      45.401  11.516   9.990  0.00  0.00    +0.000 A 
ATOM     24  C   UNL     1      44.179  10.907   9.894  0.00  0.00    +0.000 A 
ATOM     25  C   UNL     1      43.907  10.014  10.906  0.00  0.00    +0.000 A 
ATOM     26  N   UNL     1      44.746   9.747  11.933  0.00  0.00    +0.000 NA
ATOM     27  H   UNL     1      47.734  10.516  12.564  0.00  0.00    +0.000 HD
BRANCH  25  28
ATOM     28  C   UNL     1      42.597   9.292  10.891  0.00  0.00    +0.000 C 
ATOM     29  N   UNL     1      42.665   7.929  11.024  0.00  0.00    +0.000 N 
ATOM     30  O   UNL     1      41.531   9.872  10.759  0.00  0.00    +0.000 OA
ATOM     31  H   UNL     1      43.558   7.478  11.173  0.00  0.00    +0.000 HD
ATOM     32  H   UNL     1      41.810   7.394  11.053  0.00  0.00    +0.000 HD
ENDBRANCH  25  28
ENDBRANCH  19  20
ENDBRANCH  18  19
ENDBRANCH   3  18
TORSDOF 7
ENDMDL
MODEL 6
REMARK VINA RESULT:    -6.857      3.185      5.087
REMARK INTER + INTRA:         -10.464
REMARK INTER:                  -9.844
REMARK INTRA:                  -0.620
REMARK UNBOUND:                -0.801
REMARK  Name = 
REMARK  8 active torsions:
REMARK  status: ('A' for Active; 'I' for Inactive)
REMARK    1  A    between atoms: C_1  and  C_2
REMARK    2  A    between atoms: C_5  and  O_6
REMARK    3  A    between atoms: O_6  and  C_7
REMARK    4  A    between atoms: C_9  and  C_10
REMARK    5  A    between atoms: C_10  and  C_11
REMARK    6  A    between atoms: C_11  and  N_12
REMARK    7  A    between atoms: C_17  and  C_18
REMARK    8  A    between atoms: C_23  and  C_24
REMARK                            x       y       z     vdW  Elec       q    Type
REMARK                         _______ _______ _______ _____ _____    ______ ____
ROOT
ATOM      1  C   UNL     1      48.994   6.587  16.155  0.00  0.00    +0.000 A 
ATOM      2  C   UNL     1      48.729   7.004  14.842  0.00  0.00    +0.000 A 
ATOM      3  C   UNL     1      48.333   8.322  14.561  0.00  0.00    +0.000 A 
ATOM      4  C   UNL     1      48.146   9.187  15.649  0.00  0.00    +0.000 A 
ATOM      5  C   UNL     1      48.304   8.748  16.974  0.00  0.00    +0.000 A 
ATOM      6  C   UNL     1      48.772   7.452  17.219  0.00  0.00    +0.000 A 
ENDROOT
BRANCH   5   7
ATOM      7  C   UNL     1      47.888   9.631  18.123  0.00  0.00    +0.000 C 
ATOM      8  F   UNL     1      46.894   9.097  18.885  0.00  0.00    +0.000 F 
ATOM      9  F   UNL     1      48.922   9.865  18.979  0.00  0.00    +0.000 F 
ATOM     10  F   UNL     1      47.444  10.852  17.725  0.00  0.00    +0.000 F 
ENDBRANCH   5   7
BRANCH   1  11
ATOM     11  O   UNL     1      49.433   5.297  16.291  0.00  0.00    +0.000 OA
BRANCH  11  16
ATOM     12  C   UNL     1      50.571   2.439  17.270  0.00  0.00    +0.000 C 
ATOM     13  C   UNL     1      49.116   2.861  17.230  0.00  0.00    +0.000 C 
ATOM     14  N   UNL     1      48.486   2.539  15.927  0.00  0.00    +0.000 NA
ATOM     15  C   UNL     1      47.535   3.651  16.157  0.00  0.00    +0.000 C 
ATOM     16  C   UNL     1      48.629   4.340  17.030  0.00  0.00    +0.000 C 
ATOM     17  H   UNL     1      48.074   1.609  15.854  0.00  0.00    +0.000 HD
ENDBRANCH  11  16
ENDBRANCH   1  11
BRANCH   3  18
ATOM     18  C   UNL     1      48.081   8.745  13.121  0.00  0.00    +0.000 C 
BRANCH  18  19
ATOM     19  C   UNL     1      46.737   8.277  12.533  0.00  0.00    +0.000 C 
BRANCH  19  20
ATOM     20  N   UNL     1      46.107   7.240  13.335  0.00  0.00    +0.000 N 
ATOM     21  C   UNL     1      45.305   6.370  12.595  0.00  0.00    +0.000 A 
ATOM     22  N   UNL     1      44.242   5.878  13.244  0.00  0.00    +0.000 NA
ATOM     23  C   UNL     1      43.443   5.022  12.581  0.00  0.00    +0.000 A 
ATOM     24  C   UNL     1      43.651   4.647  11.281  0.00  0.00    +0.000 A 
ATOM     25  C   UNL     1      44.756   5.222  10.694  0.00  0.00    +0.000 A 
ATOM     26  N   UNL     1      45.596   6.077  11.321  0.00  0.00    +0.000 NA
ATOM     27  H   UNL     1      45.520   7.563  14.097  0.00  0.00    +0.000 HD
BRANCH  25  28
ATOM     28  C   UNL     1      45.070   4.879   9.271  0.00  0.00    +0.000 C 
ATOM     29  N   UNL     1      44.119   4.145   8.611  0.00  0.00    +0.000 N 
ATOM     30  O   UNL     1      46.109   5.219   8.729  0.00  0.00    +0.000 OA
ATOM     31  H   UNL     1      43.249   3.911   9.071  0.00  0.00    +0.000 HD
ATOM     32  H   UNL     1      44.262   3.912   7.640  0.00  0.00    +0.000 HD
ENDBRANCH  25  28
ENDBRANCH  19  20
ENDBRANCH  18  19
ENDBRANCH   3  18
TORSDOF 7
ENDMDL
MODEL 7
REMARK VINA RESULT:    -6.851      4.290      6.764
REMARK INTER + INTRA:         -10.456
REMARK INTER:                  -9.202
REMARK INTRA:                  -1.254
REMARK UNBOUND:                -0.801
REMARK  Name = 
REMARK  8 active torsions:
REMARK  status: ('A' for Active; 'I' for Inactive)
REMARK    1  A    between atoms: C_1  and  C_2
REMARK    2  A    between atoms: C_5  and  O_6
REMARK    3  A    between atoms: O_6  and  C_7
REMARK    4  A    between atoms: C_9  and  C_10
REMARK    5  A    between atoms: C_10  and  C_11
REMARK    6  A    between atoms: C_11  and  N_12
REMARK    7  A    between atoms: C_17  and  C_18
REMARK    8  A    between atoms: C_23  and  C_24
REMARK                            x       y       z     vdW  Elec       q    Type
REMARK                         _______ _______ _______ _____ _____    ______ ____
ROOT
ATOM      1  C   UNL     1      46.772   3.870  13.761  0.00  0.00    +0.000 A 
ATOM      2  C   UNL     1      47.040   5.240  13.621  0.00  0.00    +0.000 A 
ATOM      3  C   UNL     1      46.330   6.032  12.704  0.00  0.00    +0.000 A 
ATOM      4  C   UNL     1      45.392   5.389  11.884  0.00  0.00    +0.000 A 
ATOM      5  C   UNL     1      45.194   4.000  11.942  0.00  0.00    +0.000 A 
ATOM      6  C   UNL     1      45.861   3.249  12.917  0.00  0.00    +0.000 A 
ENDROOT
BRANCH   5   7
ATOM      7  C   UNL     1      44.344   3.309  10.906  0.00  0.00    +0.000 C 
ATOM      8  F   UNL     1      43.728   4.169  10.048  0.00  0.00    +0.000 F 
ATOM      9  F   UNL     1      45.083   2.475  10.122  0.00  0.00    +0.000 F 
ATOM     10  F   UNL     1      43.359   2.544  11.446  0.00  0.00    +0.000 F 
ENDBRANCH   5   7
BRANCH   1  11
ATOM     11  O   UNL     1      47.486   3.221  14.733  0.00  0.00    +0.000 OA
BRANCH  11  16
ATOM     12  C   UNL     1      49.593   2.018  16.862  0.00  0.00    +0.000 C 
ATOM     13  C   UNL     1      48.696   3.221  17.067  0.00  0.00    +0.000 C 
ATOM     14  N   UNL     1      47.385   2.838  17.645  0.00  0.00    +0.000 NA
ATOM     15  C   UNL     1      46.797   4.040  17.010  0.00  0.00    +0.000 C 
ATOM     16  C   UNL     1      47.908   3.944  15.919  0.00  0.00    +0.000 C 
ATOM     17  H   UNL     1      47.343   2.807  18.663  0.00  0.00    +0.000 HD
ENDBRANCH  11  16
ENDBRANCH   1  11
BRANCH   3  18
ATOM     18  C   UNL     1      46.630   7.521  12.600  0.00  0.00    +0.000 C 
BRANCH  18  19
ATOM     19  C   UNL     1      47.735   8.028  13.546  0.00  0.00    +0.000 C 
BRANCH  19  20
ATOM     20  N   UNL     1      49.047   8.038  12.917  0.00  0.00    +0.000 N 
ATOM     21  C   UNL     1      50.099   7.857  13.816  0.00  0.00    +0.000 A 
ATOM     22  N   UNL     1      51.238   8.485  13.498  0.00  0.00    +0.000 NA
ATOM     23  C   UNL     1      52.289   8.331  14.324  0.00  0.00    +0.000 A 
ATOM     24  C   UNL     1      52.247   7.587  15.472  0.00  0.00    +0.000 A 
ATOM     25  C   UNL     1      51.027   6.999  15.723  0.00  0.00    +0.000 A 
ATOM     26  N   UNL     1      49.946   7.112  14.919  0.00  0.00    +0.000 NA
ATOM     27  H   UNL     1      49.282   8.874  12.394  0.00  0.00    +0.000 HD
BRANCH  25  28
ATOM     28  C   UNL     1      50.875   6.165  16.956  0.00  0.00    +0.000 C 
ATOM     29  N   UNL     1      49.882   6.552  17.819  0.00  0.00    +0.000 N 
ATOM     30  O   UNL     1      51.592   5.206  17.191  0.00  0.00    +0.000 OA
ATOM     31  H   UNL     1      49.276   7.326  17.580  0.00  0.00    +0.000 HD
ATOM     32  H   UNL     1      49.713   6.008  18.651  0.00  0.00    +0.000 HD
ENDBRANCH  25  28
ENDBRANCH  19  20
ENDBRANCH  18  19
ENDBRANCH   3  18
TORSDOF 7
ENDMDL
MODEL 8
REMARK VINA RESULT:    -6.747      4.211      6.013
REMARK INTER + INTRA:         -10.308
REMARK INTER:                  -9.074
REMARK INTRA:                  -1.234
REMARK UNBOUND:                -0.801
REMARK  Name = 
REMARK  8 active torsions:
REMARK  status: ('A' for Active; 'I' for Inactive)
REMARK    1  A    between atoms: C_1  and  C_2
REMARK    2  A    between atoms: C_5  and  O_6
REMARK    3  A    between atoms: O_6  and  C_7
REMARK    4  A    between atoms: C_9  and  C_10
REMARK    5  A    between atoms: C_10  and  C_11
REMARK    6  A    between atoms: C_11  and  N_12
REMARK    7  A    between atoms: C_17  and  C_18
REMARK    8  A    between atoms: C_23  and  C_24
REMARK                            x       y       z     vdW  Elec       q    Type
REMARK                         _______ _______ _______ _____ _____    ______ ____
ROOT
ATOM      1  C   UNL     1      46.619   4.296  13.576  0.00  0.00    +0.000 A 
ATOM      2  C   UNL     1      46.431   5.686  13.551  0.00  0.00    +0.000 A 
ATOM      3  C   UNL     1      45.468   6.277  12.717  0.00  0.00    +0.000 A 
ATOM      4  C   UNL     1      44.749   5.433  11.858  0.00  0.00    +0.000 A 
ATOM      5  C   UNL     1      45.007   4.054  11.798  0.00  0.00    +0.000 A 
ATOM      6  C   UNL     1      45.918   3.482  12.694  0.00  0.00    +0.000 A 
ENDROOT
BRANCH   5   7
ATOM      7  C   UNL     1      44.378   3.209  10.719  0.00  0.00    +0.000 C 
ATOM      8  F   UNL     1      43.421   2.359  11.184  0.00  0.00    +0.000 F 
ATOM      9  F   UNL     1      43.761   3.975   9.776  0.00  0.00    +0.000 F 
ATOM     10  F   UNL     1      45.275   2.439  10.051  0.00  0.00    +0.000 F 
ENDBRANCH   5   7
BRANCH   1  11
ATOM     11  O   UNL     1      47.542   3.836  14.476  0.00  0.00    +0.000 OA
BRANCH  11  16
ATOM     12  C   UNL     1      48.950   6.167  16.210  0.00  0.00    +0.000 C 
ATOM     13  C   UNL     1      48.221   4.957  16.756  0.00  0.00    +0.000 C 
ATOM     14  N   UNL     1      49.135   3.804  16.946  0.00  0.00    +0.000 NA
ATOM     15  C   UNL     1      47.972   2.904  16.772  0.00  0.00    +0.000 C 
ATOM     16  C   UNL     1      47.308   4.012  15.898  0.00  0.00    +0.000 C 
ATOM     17  H   UNL     1      49.604   3.757  17.849  0.00  0.00    +0.000 HD
ENDBRANCH  11  16
ENDBRANCH   1  11
BRANCH   3  18
ATOM     18  C   UNL     1      45.274   7.787  12.739  0.00  0.00    +0.000 C 
BRANCH  18  19
ATOM     19  C   UNL     1      46.457   8.602  12.184  0.00  0.00    +0.000 C 
BRANCH  19  20
ATOM     20  N   UNL     1      47.085   9.435  13.197  0.00  0.00    +0.000 N 
ATOM     21  C   UNL     1      48.467   9.262  13.288  0.00  0.00    +0.000 A 
ATOM     22  N   UNL     1      48.986   9.423  14.511  0.00  0.00    +0.000 NA
ATOM     23  C   UNL     1      50.317   9.281  14.651  0.00  0.00    +0.000 A 
ATOM     24  C   UNL     1      51.156   8.965  13.618  0.00  0.00    +0.000 A 
ATOM     25  C   UNL     1      50.526   8.799  12.404  0.00  0.00    +0.000 A 
ATOM     26  N   UNL     1      49.195   8.943  12.210  0.00  0.00    +0.000 NA
ATOM     27  H   UNL     1      46.738   9.321  14.143  0.00  0.00    +0.000 HD
BRANCH  25  28
ATOM     28  C   UNL     1      51.355   8.448  11.209  0.00  0.00    +0.000 C 
ATOM     29  N   UNL     1      51.564   7.109  11.000  0.00  0.00    +0.000 N 
ATOM     30  O   UNL     1      51.827   9.295  10.468  0.00  0.00    +0.000 OA
ATOM     31  H   UNL     1      51.128   6.427  11.607  0.00  0.00    +0.000 HD
ATOM     32  H   UNL     1      52.089   6.813  10.192  0.00  0.00    +0.000 HD
ENDBRANCH  25  28
ENDBRANCH  19  20
ENDBRANCH  18  19
ENDBRANCH   3  18
TORSDOF 7
ENDMDL
MODEL 9
REMARK VINA RESULT:    -6.605      4.414      8.109
REMARK INTER + INTRA:         -10.108
REMARK INTER:                  -9.135
REMARK INTRA:                  -0.973
REMARK UNBOUND:                -0.801
REMARK  Name = 
REMARK  8 active torsions:
REMARK  status: ('A' for Active; 'I' for Inactive)
REMARK    1  A    between atoms: C_1  and  C_2
REMARK    2  A    between atoms: C_5  and  O_6
REMARK    3  A    between atoms: O_6  and  C_7
REMARK    4  A    between atoms: C_9  and  C_10
REMARK    5  A    between atoms: C_10  and  C_11
REMARK    6  A    between atoms: C_11  and  N_12
REMARK    7  A    between atoms: C_17  and  C_18
REMARK    8  A    between atoms: C_23  and  C_24
REMARK                            x       y       z     vdW  Elec       q    Type
REMARK                         _______ _______ _______ _____ _____    ______ ____
ROOT
ATOM      1  C   UNL     1      44.789   7.750  11.523  0.00  0.00    +0.000 A 
ATOM      2  C   UNL     1      45.794   8.285  12.342  0.00  0.00    +0.000 A 
ATOM      3  C   UNL     1      46.703   7.455  13.018  0.00  0.00    +0.000 A 
ATOM      4  C   UNL     1      46.526   6.069  12.900  0.00  0.00    +0.000 A 
ATOM      5  C   UNL     1      45.456   5.525  12.170  0.00  0.00    +0.000 A 
ATOM      6  C   UNL     1      44.612   6.375  11.446  0.00  0.00    +0.000 A 
ENDROOT
BRANCH   5   7
ATOM      7  C   UNL     1      45.163   4.047  12.238  0.00  0.00    +0.000 C 
ATOM      8  F   UNL     1      44.009   3.753  12.899  0.00  0.00    +0.000 F 
ATOM      9  F   UNL     1      45.024   3.503  10.996  0.00  0.00    +0.000 F 
ATOM     10  F   UNL     1      46.143   3.335  12.854  0.00  0.00    +0.000 F 
ENDBRANCH   5   7
BRANCH   1  11
ATOM     11  O   UNL     1      44.006   8.663  10.869  0.00  0.00    +0.000 OA
BRANCH  11  16
ATOM     12  C   UNL     1      41.267  10.367  10.979  0.00  0.00    +0.000 C 
ATOM     13  C   UNL     1      42.672  10.916  11.113  0.00  0.00    +0.000 C 
ATOM     14  N   UNL     1      43.244  11.292   9.797  0.00  0.00    +0.000 NA
ATOM     15  C   UNL     1      44.593  11.056  10.360  0.00  0.00    +0.000 C 
ATOM     16  C   UNL     1      43.949  10.033  11.346  0.00  0.00    +0.000 C 
ATOM     17  H   UNL     1      43.051  12.243   9.488  0.00  0.00    +0.000 HD
ENDBRANCH  11  16
ENDBRANCH   1  11
BRANCH   3  18
ATOM     18  C   UNL     1      47.799   8.074  13.875  0.00  0.00    +0.000 C 
BRANCH  18  19
ATOM     19  C   UNL     1      49.124   7.289  13.901  0.00  0.00    +0.000 C 
BRANCH  19  20
ATOM     20  N   UNL     1      49.811   7.396  15.178  0.00  0.00    +0.000 N 
ATOM     21  C   UNL     1      49.230   6.633  16.192  0.00  0.00    +0.000 A 
ATOM     22  N   UNL     1      49.333   7.145  17.425  0.00  0.00    +0.000 NA
ATOM     23  C   UNL     1      48.803   6.441  18.442  0.00  0.00    +0.000 A 
ATOM     24  C   UNL     1      48.153   5.248  18.277  0.00  0.00    +0.000 A 
ATOM     25  C   UNL     1      48.080   4.816  16.972  0.00  0.00    +0.000 A 
ATOM     26  N   UNL     1      48.608   5.479  15.918  0.00  0.00    +0.000 NA
ATOM     27  H   UNL     1      49.894   8.332  15.560  0.00  0.00    +0.000 HD
BRANCH  25  28
ATOM     28  C   UNL     1      47.386   3.521  16.685  0.00  0.00    +0.000 C 
ATOM     29  N   UNL     1      47.794   2.864  15.552  0.00  0.00    +0.000 N 
ATOM     30  O   UNL     1      46.505   3.076  17.403  0.00  0.00    +0.000 OA
ATOM     31  H   UNL     1      48.554   3.235  14.997  0.00  0.00    +0.000 HD
ATOM     32  H   UNL     1      47.383   1.971  15.326  0.00  0.00    +0.000 HD
ENDBRANCH  25  28
ENDBRANCH  19  20
ENDBRANCH  18  19
ENDBRANCH   3  18
TORSDOF 7
ENDMDL
