MODEL 1
REMARK VINA RESULT:    -9.198      0.000      0.000
REMARK INTER + INTRA:         -12.616
REMARK INTER:                 -11.886
REMARK INTRA:                  -0.729
REMARK UNBOUND:                -0.729
REMARK  Name = 
REMARK  5 active torsions:
REMARK  status: ('A' for Active; 'I' for Inactive)
REMARK    1  A    between atoms: C_2  and  C_4
REMARK    2  A    between atoms: C_7  and  O_8
REMARK    3  A    between atoms: O_8  and  C_9
REMARK    4  A    between atoms: C_9  and  C_10
REMARK    5  A    between atoms: C_10  and  C_13
REMARK                            x       y       z     vdW  Elec       q    Type
REMARK                         _______ _______ _______ _____ _____    ______ ____
ROOT
ATOM      1  C   UNL     1      44.476   4.821  12.535  0.00  0.00    +0.000 C 
ATOM      2  F   UNL     1      43.485   5.414  13.268  0.00  0.00    +0.000 F 
ATOM      3  F   UNL     1      44.244   3.479  12.631  0.00  0.00    +0.000 F 
ENDROOT
BRANCH   1   4
ATOM      4  C   UNL     1      45.848   5.193  13.059  0.00  0.00    +0.000 A 
ATOM      5  C   UNL     1      46.719   5.998  12.330  0.00  0.00    +0.000 A 
ATOM      6  C   UNL     1      47.926   6.340  12.914  0.00  0.00    +0.000 A 
ATOM      7  N   UNL     1      48.310   5.947  14.151  0.00  0.00    +0.000 NA
ATOM      8  C   UNL     1      47.490   5.142  14.858  0.00  0.00    +0.000 A 
ATOM      9  N   UNL     1      47.864   4.738  16.120  0.00  0.00    +0.000 N 
ATOM     10  C   UNL     1      48.830   5.516  16.902  0.00  0.00    +0.000 C 
ATOM     11  C   UNL     1      50.061   4.674  17.267  0.00  0.00    +0.000 C 
ATOM     12  O   UNL     1      49.690   3.426  17.880  0.00  0.00    +0.000 OA
ATOM     13  C   UNL     1      48.883   2.660  16.973  0.00  0.00    +0.000 C 
ATOM     14  C   UNL     1      47.578   3.391  16.621  0.00  0.00    +0.000 C 
ATOM     15  C   UNL     1      46.257   4.762  14.329  0.00  0.00    +0.000 A 
ENDBRANCH   1   4
BRANCH   1  16
ATOM     16  C   UNL     1      44.326   5.250  11.068  0.00  0.00    +0.000 C 
BRANCH  16  17
ATOM     17  O   UNL     1      43.718   4.211  10.277  0.00  0.00    +0.000 OA
BRANCH  17  21
ATOM     18  C   UNL     1      46.449   2.464   7.728  0.00  0.00    +0.000 A 
ATOM     19  C   UNL     1      46.262   3.847   7.693  0.00  0.00    +0.000 A 
ATOM     20  C   UNL     1      45.333   4.431   8.558  0.00  0.00    +0.000 A 
ATOM     21  C   UNL     1      44.629   3.609   9.429  0.00  0.00    +0.000 A 
ATOM     22  N   UNL     1      44.787   2.270   9.479  0.00  0.00    +0.000 NA
ATOM     23  C   UNL     1      45.684   1.726   8.621  0.00  0.00    +0.000 A 
BRANCH  18  25
ATOM     24  N   UNL     1      48.513   2.406   6.441  0.00  0.00    +0.000 N 
ATOM     25  C   UNL     1      47.396   1.737   6.855  0.00  0.00    +0.000 C 
ATOM     26  O   UNL     1      47.212   0.566   6.552  0.00  0.00    +0.000 OA
ATOM     27  H   UNL     1      49.203   1.851   5.947  0.00  0.00    +0.000 HD
ATOM     28  H   UNL     1      48.830   3.262   6.875  0.00  0.00    +0.000 HD
ENDBRANCH  18  25
ENDBRANCH  17  21
ENDBRANCH  16  17
ENDBRANCH   1  16
TORSDOF 5
ENDMDL
MODEL 2
REMARK VINA RESULT:    -9.105      2.448      3.468
REMARK INTER + INTRA:         -12.495
REMARK INTER:                 -11.690
REMARK INTRA:                  -0.805
REMARK UNBOUND:                -0.729
REMARK  Name = 
REMARK  5 active torsions:
REMARK  status: ('A' for Active; 'I' for Inactive)
REMARK    1  A    between atoms: C_2  and  C_4
REMARK    2  A    between atoms: C_7  and  O_8
REMARK    3  A    between atoms: O_8  and  C_9
REMARK    4  A    between atoms: C_9  and  C_10
REMARK    5  A    between atoms: C_10  and  C_13
REMARK                            x       y       z     vdW  Elec       q    Type
REMARK                         _______ _______ _______ _____ _____    ______ ____
ROOT
ATOM      1  C   UNL     1      43.599   5.373  12.186  0.00  0.00    +0.000 C 
ATOM      2  F   UNL     1      43.263   6.558  11.590  0.00  0.00    +0.000 F 
ATOM      3  F   UNL     1      42.702   5.212  13.202  0.00  0.00    +0.000 F 
ENDROOT
BRANCH   1   4
ATOM      4  C   UNL     1      45.027   5.395  12.693  0.00  0.00    +0.000 A 
ATOM      5  C   UNL     1      45.546   4.363  13.470  0.00  0.00    +0.000 A 
ATOM      6  C   UNL     1      46.878   4.435  13.836  0.00  0.00    +0.000 A 
ATOM      7  N   UNL     1      47.710   5.442  13.480  0.00  0.00    +0.000 NA
ATOM      8  C   UNL     1      47.215   6.465  12.753  0.00  0.00    +0.000 A 
ATOM      9  N   UNL     1      48.049   7.493  12.377  0.00  0.00    +0.000 N 
ATOM     10  C   UNL     1      49.500   7.292  12.297  0.00  0.00    +0.000 C 
ATOM     11  C   UNL     1      50.249   8.251  13.233  0.00  0.00    +0.000 C 
ATOM     12  O   UNL     1      49.841   9.616  13.036  0.00  0.00    +0.000 OA
ATOM     13  C   UNL     1      48.437   9.747  13.301  0.00  0.00    +0.000 C 
ATOM     14  C   UNL     1      47.598   8.887  12.343  0.00  0.00    +0.000 C 
ATOM     15  C   UNL     1      45.880   6.453  12.348  0.00  0.00    +0.000 A 
ENDBRANCH   1   4
BRANCH   1  16
ATOM     16  C   UNL     1      43.408   4.240  11.167  0.00  0.00    +0.000 C 
BRANCH  16  17
ATOM     17  O   UNL     1      43.589   4.710   9.817  0.00  0.00    +0.000 OA
BRANCH  17  21
ATOM     18  C   UNL     1      46.338   2.403   7.785  0.00  0.00    +0.000 A 
ATOM     19  C   UNL     1      45.501   1.805   8.730  0.00  0.00    +0.000 A 
ATOM     20  C   UNL     1      44.574   2.594   9.415  0.00  0.00    +0.000 A 
ATOM     21  C   UNL     1      44.516   3.952   9.127  0.00  0.00    +0.000 A 
ATOM     22  N   UNL     1      45.317   4.555   8.224  0.00  0.00    +0.000 NA
ATOM     23  C   UNL     1      46.216   3.771   7.581  0.00  0.00    +0.000 A 
BRANCH  18  25
ATOM     24  N   UNL     1      48.408   2.391   6.507  0.00  0.00    +0.000 N 
ATOM     25  C   UNL     1      47.360   1.671   7.007  0.00  0.00    +0.000 C 
ATOM     26  O   UNL     1      47.296   0.459   6.853  0.00  0.00    +0.000 OA
ATOM     27  H   UNL     1      49.154   1.850   6.083  0.00  0.00    +0.000 HD
ATOM     28  H   UNL     1      48.634   3.322   6.829  0.00  0.00    +0.000 HD
ENDBRANCH  18  25
ENDBRANCH  17  21
ENDBRANCH  16  17
ENDBRANCH   1  16
TORSDOF 5
ENDMDL
MODEL 3
REMARK VINA RESULT:    -8.668      1.188      1.526
REMARK INTER + INTRA:         -11.931
REMARK INTER:                 -11.310
REMARK INTRA:                  -0.621
REMARK UNBOUND:                -0.729
REMARK  Name = 
REMARK  5 active torsions:
REMARK  status: ('A' for Active; 'I' for Inactive)
REMARK    1  A    between atoms: C_2  and  C_4
REMARK    2  A    between atoms: C_7  and  O_8
REMARK    3  A    between atoms: O_8  and  C_9
REMARK    4  A    between atoms: C_9  and  C_10
REMARK    5  A    between atoms: C_10  and  C_13
REMARK                            x       y       z     vdW  Elec       q    Type
REMARK                         _______ _______ _______ _____ _____    ______ ____
ROOT
ATOM      1  C   UNL     1      45.176   6.154  11.932  0.00  0.00    +0.000 C 
ATOM      2  F   UNL     1      45.191   6.972  10.835  0.00  0.00    +0.000 F 
ATOM      3  F   UNL     1      44.158   6.618  12.715  0.00  0.00    +0.000 F 
ENDROOT
BRANCH   1   4
ATOM      4  C   UNL     1      46.504   6.183  12.661  0.00  0.00    +0.000 A 
ATOM      5  C   UNL     1      47.631   6.790  12.111  0.00  0.00    +0.000 A 
ATOM      6  C   UNL     1      48.784   6.826  12.874  0.00  0.00    +0.000 A 
ATOM      7  N   UNL     1      48.884   6.314  14.124  0.00  0.00    +0.000 NA
ATOM      8  C   UNL     1      47.811   5.697  14.659  0.00  0.00    +0.000 A 
ATOM      9  N   UNL     1      47.895   5.178  15.931  0.00  0.00    +0.000 N 
ATOM     10  C   UNL     1      48.884   5.686  16.886  0.00  0.00    +0.000 C 
ATOM     11  C   UNL     1      49.828   4.572  17.359  0.00  0.00    +0.000 C 
ATOM     12  O   UNL     1      49.102   3.423  17.833  0.00  0.00    +0.000 OA
ATOM     13  C   UNL     1      48.287   2.894  16.777  0.00  0.00    +0.000 C 
ATOM     14  C   UNL     1      47.245   3.917  16.300  0.00  0.00    +0.000 C 
ATOM     15  C   UNL     1      46.615   5.628  13.943  0.00  0.00    +0.000 A 
ENDBRANCH   1   4
BRANCH   1  16
ATOM     16  C   UNL     1      44.844   4.726  11.475  0.00  0.00    +0.000 C 
BRANCH  16  17
ATOM     17  O   UNL     1      44.268   4.717  10.155  0.00  0.00    +0.000 OA
BRANCH  17  21
ATOM     18  C   UNL     1      46.681   2.749   7.450  0.00  0.00    +0.000 A 
ATOM     19  C   UNL     1      45.904   2.010   8.345  0.00  0.00    +0.000 A 
ATOM     20  C   UNL     1      45.091   2.685   9.259  0.00  0.00    +0.000 A 
ATOM     21  C   UNL     1      45.082   4.074   9.242  0.00  0.00    +0.000 A 
ATOM     22  N   UNL     1      45.827   4.811   8.391  0.00  0.00    +0.000 NA
ATOM     23  C   UNL     1      46.617   4.134   7.523  0.00  0.00    +0.000 A 
BRANCH  18  25
ATOM     24  N   UNL     1      47.910   2.901   5.356  0.00  0.00    +0.000 N 
ATOM     25  C   UNL     1      47.582   2.145   6.446  0.00  0.00    +0.000 C 
ATOM     26  O   UNL     1      48.055   1.027   6.604  0.00  0.00    +0.000 OA
ATOM     27  H   UNL     1      48.621   2.513   4.746  0.00  0.00    +0.000 HD
ATOM     28  H   UNL     1      47.761   3.900   5.319  0.00  0.00    +0.000 HD
ENDBRANCH  18  25
ENDBRANCH  17  21
ENDBRANCH  16  17
ENDBRANCH   1  16
TORSDOF 5
ENDMDL
MODEL 4
REMARK VINA RESULT:    -8.064      2.722      3.300
REMARK INTER + INTRA:         -11.150
REMARK INTER:                 -10.410
REMARK INTRA:                  -0.741
REMARK UNBOUND:                -0.729
REMARK  Name = 
REMARK  5 active torsions:
REMARK  status: ('A' for Active; 'I' for Inactive)
REMARK    1  A    between atoms: C_2  and  C_4
REMARK    2  A    between atoms: C_7  and  O_8
REMARK    3  A    between atoms: O_8  and  C_9
REMARK    4  A    between atoms: C_9  and  C_10
REMARK    5  A    between atoms: C_10  and  C_13
REMARK                            x       y       z     vdW  Elec       q    Type
REMARK                         _______ _______ _______ _____ _____    ______ ____
ROOT
ATOM      1  C   UNL     1      43.643   5.227  11.969  0.00  0.00    +0.000 C 
ATOM      2  F   UNL     1      42.439   5.342  12.608  0.00  0.00    +0.000 F 
ATOM      3  F   UNL     1      44.324   4.259  12.649  0.00  0.00    +0.000 F 
ENDROOT
BRANCH   1   4
ATOM      4  C   UNL     1      44.392   6.544  11.963  0.00  0.00    +0.000 A 
ATOM      5  C   UNL     1      43.881   7.677  11.336  0.00  0.00    +0.000 A 
ATOM      6  C   UNL     1      44.603   8.853  11.436  0.00  0.00    +0.000 A 
ATOM      7  N   UNL     1      45.771   8.972  12.110  0.00  0.00    +0.000 NA
ATOM      8  C   UNL     1      46.295   7.877  12.698  0.00  0.00    +0.000 A 
ATOM      9  N   UNL     1      47.478   7.984  13.392  0.00  0.00    +0.000 N 
ATOM     10  C   UNL     1      47.918   9.273  13.934  0.00  0.00    +0.000 C 
ATOM     11  C   UNL     1      49.282   9.684  13.361  0.00  0.00    +0.000 C 
ATOM     12  O   UNL     1      50.256   8.634  13.500  0.00  0.00    +0.000 OA
ATOM     13  C   UNL     1      49.815   7.464  12.796  0.00  0.00    +0.000 C 
ATOM     14  C   UNL     1      48.493   6.927  13.365  0.00  0.00    +0.000 C 
ATOM     15  C   UNL     1      45.616   6.660  12.637  0.00  0.00    +0.000 A 
ENDBRANCH   1   4
BRANCH   1  16
ATOM     16  C   UNL     1      43.392   4.745  10.532  0.00  0.00    +0.000 C 
BRANCH  16  17
ATOM     17  O   UNL     1      43.668   3.337  10.395  0.00  0.00    +0.000 OA
BRANCH  17  21
ATOM     18  C   UNL     1      46.527   2.659   7.501  0.00  0.00    +0.000 A 
ATOM     19  C   UNL     1      46.037   3.952   7.695  0.00  0.00    +0.000 A 
ATOM     20  C   UNL     1      45.067   4.173   8.676  0.00  0.00    +0.000 A 
ATOM     21  C   UNL     1      44.626   3.092   9.430  0.00  0.00    +0.000 A 
ATOM     22  N   UNL     1      45.080   1.833   9.258  0.00  0.00    +0.000 NA
ATOM     23  C   UNL     1      46.011   1.642   8.292  0.00  0.00    +0.000 A 
BRANCH  18  25
ATOM     24  N   UNL     1      47.594   3.061   5.351  0.00  0.00    +0.000 N 
ATOM     25  C   UNL     1      47.546   2.306   6.489  0.00  0.00    +0.000 C 
ATOM     26  O   UNL     1      48.347   1.401   6.681  0.00  0.00    +0.000 OA
ATOM     27  H   UNL     1      48.375   2.877   4.732  0.00  0.00    +0.000 HD
ATOM     28  H   UNL     1      47.141   3.961   5.273  0.00  0.00    +0.000 HD
ENDBRANCH  18  25
ENDBRANCH  17  21
ENDBRANCH  16  17
ENDBRANCH   1  16
TORSDOF 5
ENDMDL
MODEL 5
REMARK VINA RESULT:    -7.505      3.428      4.077
REMARK INTER + INTRA:         -10.428
REMARK INTER:                  -9.821
REMARK INTRA:                  -0.607
REMARK UNBOUND:                -0.729
REMARK  Name = 
REMARK  5 active torsions:
REMARK  status: ('A' for Active; 'I' for Inactive)
REMARK    1  A    between atoms: C_2  and  C_4
REMARK    2  A    between atoms: C_7  and  O_8
REMARK    3  A    between atoms: O_8  and  C_9
REMARK    4  A    between atoms: C_9  and  C_10
REMARK    5  A    between atoms: C_10  and  C_13
REMARK                            x       y       z     vdW  Elec       q    Type
REMARK                         _______ _______ _______ _____ _____    ______ ____
ROOT
ATOM      1  C   UNL     1      45.153   5.889  12.185  0.00  0.00    +0.000 C 
ATOM      2  F   UNL     1      44.226   5.835  13.190  0.00  0.00    +0.000 F 
ATOM      3  F   UNL     1      46.002   4.846  12.419  0.00  0.00    +0.000 F 
ENDROOT
BRANCH   1   4
ATOM      4  C   UNL     1      45.882   7.217  12.176  0.00  0.00    +0.000 A 
ATOM      5  C   UNL     1      45.200   8.428  12.094  0.00  0.00    +0.000 A 
ATOM      6  C   UNL     1      45.943   9.594  12.157  0.00  0.00    +0.000 A 
ATOM      7  N   UNL     1      47.288   9.631  12.300  0.00  0.00    +0.000 NA
ATOM      8  C   UNL     1      47.967   8.466  12.351  0.00  0.00    +0.000 A 
ATOM      9  N   UNL     1      49.334   8.487  12.503  0.00  0.00    +0.000 N 
ATOM     10  C   UNL     1      50.007   9.646  13.098  0.00  0.00    +0.000 C 
ATOM     11  C   UNL     1      51.026  10.259  12.127  0.00  0.00    +0.000 C 
ATOM     12  O   UNL     1      51.931   9.268  11.609  0.00  0.00    +0.000 OA
ATOM     13  C   UNL     1      51.194   8.261  10.898  0.00  0.00    +0.000 C 
ATOM     14  C   UNL     1      50.207   7.528  11.819  0.00  0.00    +0.000 C 
ATOM     15  C   UNL     1      47.278   7.254  12.295  0.00  0.00    +0.000 A 
ENDBRANCH   1   4
BRANCH   1  16
ATOM     16  C   UNL     1      44.438   5.659  10.845  0.00  0.00    +0.000 C 
BRANCH  16  17
ATOM     17  O   UNL     1      44.195   4.257  10.613  0.00  0.00    +0.000 OA
BRANCH  17  21
ATOM     18  C   UNL     1      46.476   2.742   7.529  0.00  0.00    +0.000 A 
ATOM     19  C   UNL     1      45.850   1.865   8.417  0.00  0.00    +0.000 A 
ATOM     20  C   UNL     1      45.081   2.387   9.461  0.00  0.00    +0.000 A 
ATOM     21  C   UNL     1      44.963   3.767   9.574  0.00  0.00    +0.000 A 
ATOM     22  N   UNL     1      45.562   4.635   8.732  0.00  0.00    +0.000 NA
ATOM     23  C   UNL     1      46.313   4.105   7.736  0.00  0.00    +0.000 A 
BRANCH  18  25
ATOM     24  N   UNL     1      47.244   3.029   5.238  0.00  0.00    +0.000 N 
ATOM     25  C   UNL     1      47.318   2.306   6.395  0.00  0.00    +0.000 C 
ATOM     26  O   UNL     1      48.088   1.361   6.500  0.00  0.00    +0.000 OA
ATOM     27  H   UNL     1      47.916   2.785   4.520  0.00  0.00    +0.000 HD
ATOM     28  H   UNL     1      46.833   3.951   5.196  0.00  0.00    +0.000 HD
ENDBRANCH  18  25
ENDBRANCH  17  21
ENDBRANCH  16  17
ENDBRANCH   1  16
TORSDOF 5
ENDMDL
MODEL 6
REMARK VINA RESULT:    -7.279      3.327      5.328
REMARK INTER + INTRA:         -10.137
REMARK INTER:                 -10.250
REMARK INTRA:                   0.114
REMARK UNBOUND:                -0.729
REMARK  Name = 
REMARK  5 active torsions:
REMARK  status: ('A' for Active; 'I' for Inactive)
REMARK    1  A    between atoms: C_2  and  C_4
REMARK    2  A    between atoms: C_7  and  O_8
REMARK    3  A    between atoms: O_8  and  C_9
REMARK    4  A    between atoms: C_9  and  C_10
REMARK    5  A    between atoms: C_10  and  C_13
REMARK                            x       y       z     vdW  Elec       q    Type
REMARK                         _______ _______ _______ _____ _____    ______ ____
ROOT
ATOM      1  C   UNL     1      44.373   4.322  12.356  0.00  0.00    +0.000 C 
ATOM      2  F   UNL     1      43.761   3.966  13.526  0.00  0.00    +0.000 F 
ATOM      3  F   UNL     1      45.415   3.452  12.213  0.00  0.00    +0.000 F 
ENDROOT
BRANCH   1   4
ATOM      4  C   UNL     1      44.844   5.762  12.395  0.00  0.00    +0.000 A 
ATOM      5  C   UNL     1      45.986   6.142  13.093  0.00  0.00    +0.000 A 
ATOM      6  C   UNL     1      46.378   7.467  13.021  0.00  0.00    +0.000 A 
ATOM      7  N   UNL     1      45.725   8.414  12.310  0.00  0.00    +0.000 NA
ATOM      8  C   UNL     1      44.599   8.069  11.651  0.00  0.00    +0.000 A 
ATOM      9  N   UNL     1      43.927   9.020  10.918  0.00  0.00    +0.000 N 
ATOM     10  C   UNL     1      44.619  10.213  10.421  0.00  0.00    +0.000 C 
ATOM     11  C   UNL     1      43.973  11.498  10.961  0.00  0.00    +0.000 C 
ATOM     12  O   UNL     1      42.552  11.516  10.735  0.00  0.00    +0.000 OA
ATOM     13  C   UNL     1      41.940  10.401  11.400  0.00  0.00    +0.000 C 
ATOM     14  C   UNL     1      42.463   9.062  10.857  0.00  0.00    +0.000 C 
ATOM     15  C   UNL     1      44.150   6.748  11.681  0.00  0.00    +0.000 A 
ENDBRANCH   1   4
BRANCH   1  16
ATOM     16  C   UNL     1      43.384   4.111  11.199  0.00  0.00    +0.000 C 
BRANCH  16  17
ATOM     17  O   UNL     1      43.851   4.736   9.988  0.00  0.00    +0.000 OA
BRANCH  17  21
ATOM     18  C   UNL     1      46.391   2.307   7.830  0.00  0.00    +0.000 A 
ATOM     19  C   UNL     1      46.431   3.689   7.637  0.00  0.00    +0.000 A 
ATOM     20  C   UNL     1      45.566   4.504   8.371  0.00  0.00    +0.000 A 
ATOM     21  C   UNL     1      44.695   3.907   9.273  0.00  0.00    +0.000 A 
ATOM     22  N   UNL     1      44.633   2.574   9.474  0.00  0.00    +0.000 NA
ATOM     23  C   UNL     1      45.473   1.803   8.742  0.00  0.00    +0.000 A 
BRANCH  18  25
ATOM     24  N   UNL     1      48.282   1.856   6.367  0.00  0.00    +0.000 N 
ATOM     25  C   UNL     1      47.252   1.347   7.106  0.00  0.00    +0.000 C 
ATOM     26  O   UNL     1      47.078   0.140   7.199  0.00  0.00    +0.000 OA
ATOM     27  H   UNL     1      48.927   1.176   5.981  0.00  0.00    +0.000 HD
ATOM     28  H   UNL     1      48.616   2.804   6.475  0.00  0.00    +0.000 HD
ENDBRANCH  18  25
ENDBRANCH  17  21
ENDBRANCH  16  17
ENDBRANCH   1  16
TORSDOF 5
ENDMDL
MODEL 7
REMARK VINA RESULT:    -6.966      3.513      5.525
REMARK INTER + INTRA:          -9.732
REMARK INTER:                  -9.232
REMARK INTRA:                  -0.500
REMARK UNBOUND:                -0.729
REMARK  Name = 
REMARK  5 active torsions:
REMARK  status: ('A' for Active; 'I' for Inactive)
REMARK    1  A    between atoms: C_2  and  C_4
REMARK    2  A    between atoms: C_7  and  O_8
REMARK    3  A    between atoms: O_8  and  C_9
REMARK    4  A    between atoms: C_9  and  C_10
REMARK    5  A    between atoms: C_10  and  C_13
REMARK                            x       y       z     vdW  Elec       q    Type
REMARK                         _______ _______ _______ _____ _____    ______ ____
ROOT
ATOM      1  C   UNL     1      47.926   3.728  17.091  0.00  0.00    +0.000 C 
ATOM      2  F   UNL     1      47.207   4.200  18.155  0.00  0.00    +0.000 F 
ATOM      3  F   UNL     1      47.679   2.385  17.055  0.00  0.00    +0.000 F 
ENDROOT
BRANCH   1   4
ATOM      4  C   UNL     1      49.403   4.025  17.248  0.00  0.00    +0.000 A 
ATOM      5  C   UNL     1      49.919   5.305  17.066  0.00  0.00    +0.000 A 
ATOM      6  C   UNL     1      51.270   5.497  17.293  0.00  0.00    +0.000 A 
ATOM      7  N   UNL     1      52.120   4.520  17.685  0.00  0.00    +0.000 NA
ATOM      8  C   UNL     1      51.643   3.267  17.837  0.00  0.00    +0.000 A 
ATOM      9  N   UNL     1      52.494   2.264  18.242  0.00  0.00    +0.000 N 
ATOM     10  C   UNL     1      53.724   2.574  18.977  0.00  0.00    +0.000 C 
ATOM     11  C   UNL     1      54.965   2.068  18.228  0.00  0.00    +0.000 C 
ATOM     12  O   UNL     1      54.840   0.681  17.866  0.00  0.00    +0.000 OA
ATOM     13  C   UNL     1      53.703   0.503  17.008  0.00  0.00    +0.000 C 
ATOM     14  C   UNL     1      52.397   0.902  17.712  0.00  0.00    +0.000 C 
ATOM     15  C   UNL     1      50.289   3.006  17.627  0.00  0.00    +0.000 A 
ENDBRANCH   1   4
BRANCH   1  16
ATOM     16  C   UNL     1      47.381   4.370  15.807  0.00  0.00    +0.000 C 
BRANCH  16  17
ATOM     17  O   UNL     1      47.461   3.462  14.691  0.00  0.00    +0.000 OA
BRANCH  17  21
ATOM     18  C   UNL     1      45.025   4.673  11.591  0.00  0.00    +0.000 A 
ATOM     19  C   UNL     1      45.844   5.607  12.229  0.00  0.00    +0.000 A 
ATOM     20  C   UNL     1      46.665   5.189  13.279  0.00  0.00    +0.000 A 
ATOM     21  C   UNL     1      46.638   3.851  13.651  0.00  0.00    +0.000 A 
ATOM     22  N   UNL     1      45.852   2.930  13.055  0.00  0.00    +0.000 NA
ATOM     23  C   UNL     1      45.056   3.362  12.047  0.00  0.00    +0.000 A 
BRANCH  18  25
ATOM     24  N   UNL     1      44.550   4.752   9.206  0.00  0.00    +0.000 N 
ATOM     25  C   UNL     1      44.111   5.001  10.476  0.00  0.00    +0.000 C 
ATOM     26  O   UNL     1      42.987   5.437  10.681  0.00  0.00    +0.000 OA
ATOM     27  H   UNL     1      43.864   4.871   8.470  0.00  0.00    +0.000 HD
ATOM     28  H   UNL     1      45.345   4.159   9.009  0.00  0.00    +0.000 HD
ENDBRANCH  18  25
ENDBRANCH  17  21
ENDBRANCH  16  17
ENDBRANCH   1  16
TORSDOF 5
ENDMDL
MODEL 8
REMARK VINA RESULT:    -6.872      3.815      7.638
REMARK INTER + INTRA:          -9.610
REMARK INTER:                  -8.798
REMARK INTRA:                  -0.812
REMARK UNBOUND:                -0.729
REMARK  Name = 
REMARK  5 active torsions:
REMARK  status: ('A' for Active; 'I' for Inactive)
REMARK    1  A    between atoms: C_2  and  C_4
REMARK    2  A    between atoms: C_7  and  O_8
REMARK    3  A    between atoms: O_8  and  C_9
REMARK    4  A    between atoms: C_9  and  C_10
REMARK    5  A    between atoms: C_10  and  C_13
REMARK                            x       y       z     vdW  Elec       q    Type
REMARK                         _______ _______ _______ _____ _____    ______ ____
ROOT
ATOM      1  C   UNL     1      49.224   8.129  12.125  0.00  0.00    +0.000 C 
ATOM      2  F   UNL     1      49.725   9.401  12.172  0.00  0.00    +0.000 F 
ATOM      3  F   UNL     1      49.740   7.578  10.987  0.00  0.00    +0.000 F 
ENDROOT
BRANCH   1   4
ATOM      4  C   UNL     1      47.709   8.132  12.112  0.00  0.00    +0.000 A 
ATOM      5  C   UNL     1      46.975   9.295  12.323  0.00  0.00    +0.000 A 
ATOM      6  C   UNL     1      45.597   9.217  12.229  0.00  0.00    +0.000 A 
ATOM      7  N   UNL     1      44.919   8.082  11.938  0.00  0.00    +0.000 NA
ATOM      8  C   UNL     1      45.614   6.939  11.760  0.00  0.00    +0.000 A 
ATOM      9  N   UNL     1      44.939   5.779  11.458  0.00  0.00    +0.000 N 
ATOM     10  C   UNL     1      43.608   5.821  10.844  0.00  0.00    +0.000 C 
ATOM     11  C   UNL     1      42.565   5.114  11.721  0.00  0.00    +0.000 C 
ATOM     12  O   UNL     1      42.991   3.790  12.091  0.00  0.00    +0.000 OA
ATOM     13  C   UNL     1      44.216   3.863  12.834  0.00  0.00    +0.000 C 
ATOM     14  C   UNL     1      45.348   4.479  11.997  0.00  0.00    +0.000 C 
ATOM     15  C   UNL     1      47.006   6.950  11.839  0.00  0.00    +0.000 A 
ENDBRANCH   1   4
BRANCH   1  16
ATOM     16  C   UNL     1      49.750   7.350  13.340  0.00  0.00    +0.000 C 
BRANCH  16  17
ATOM     17  O   UNL     1      49.121   7.790  14.559  0.00  0.00    +0.000 OA
BRANCH  17  21
ATOM     18  C   UNL     1      48.032   4.639  16.988  0.00  0.00    +0.000 A 
ATOM     19  C   UNL     1      48.818   5.670  17.508  0.00  0.00    +0.000 A 
ATOM     20  C   UNL     1      49.184   6.732  16.678  0.00  0.00    +0.000 A 
ATOM     21  C   UNL     1      48.747   6.726  15.359  0.00  0.00    +0.000 A 
ATOM     22  N   UNL     1      47.993   5.740  14.831  0.00  0.00    +0.000 NA
ATOM     23  C   UNL     1      47.661   4.715  15.652  0.00  0.00    +0.000 A 
BRANCH  18  25
ATOM     24  N   UNL     1      48.312   3.139  18.883  0.00  0.00    +0.000 N 
ATOM     25  C   UNL     1      47.591   3.464  17.768  0.00  0.00    +0.000 C 
ATOM     26  O   UNL     1      46.593   2.830  17.456  0.00  0.00    +0.000 OA
ATOM     27  H   UNL     1      47.921   2.407  19.465  0.00  0.00    +0.000 HD
ATOM     28  H   UNL     1      48.966   3.777  19.315  0.00  0.00    +0.000 HD
ENDBRANCH  18  25
ENDBRANCH  17  21
ENDBRANCH  16  17
ENDBRANCH   1  16
TORSDOF 5
ENDMDL
MODEL 9
REMARK VINA RESULT:    -6.818      3.429      8.091
REMARK INTER + INTRA:          -9.540
REMARK INTER:                  -8.963
REMARK INTRA:                  -0.577
REMARK UNBOUND:                -0.729
REMARK  Name = 
REMARK  5 active torsions:
REMARK  status: ('A' for Active; 'I' for Inactive)
REMARK    1  A    between atoms: C_2  and  C_4
REMARK    2  A    between atoms: C_7  and  O_8
REMARK    3  A    between atoms: O_8  and  C_9
REMARK    4  A    between atoms: C_9  and  C_10
REMARK    5  A    between atoms: C_10  and  C_13
REMARK                            x       y       z     vdW  Elec       q    Type
REMARK                         _______ _______ _______ _____ _____    ______ ____
ROOT
ATOM      1  C   UNL     1      48.604   7.075  14.959  0.00  0.00    +0.000 C 
ATOM      2  F   UNL     1      48.607   8.187  15.754  0.00  0.00    +0.000 F 
ATOM      3  F   UNL     1      49.865   6.999  14.439  0.00  0.00    +0.000 F 
ENDROOT
BRANCH   1   4
ATOM      4  C   UNL     1      47.553   7.174  13.873  0.00  0.00    +0.000 A 
ATOM      5  C   UNL     1      47.137   8.401  13.363  0.00  0.00    +0.000 A 
ATOM      6  C   UNL     1      46.219   8.394  12.328  0.00  0.00    +0.000 A 
ATOM      7  N   UNL     1      45.705   7.270  11.776  0.00  0.00    +0.000 NA
ATOM      8  C   UNL     1      46.075   6.073  12.279  0.00  0.00    +0.000 A 
ATOM      9  N   UNL     1      45.566   4.921  11.724  0.00  0.00    +0.000 N 
ATOM     10  C   UNL     1      45.062   4.910  10.347  0.00  0.00    +0.000 C 
ATOM     11  C   UNL     1      43.585   4.492  10.297  0.00  0.00    +0.000 C 
ATOM     12  O   UNL     1      43.354   3.264  11.010  0.00  0.00    +0.000 OA
ATOM     13  C   UNL     1      43.721   3.425  12.388  0.00  0.00    +0.000 C 
ATOM     14  C   UNL     1      45.214   3.756  12.540  0.00  0.00    +0.000 C 
ATOM     15  C   UNL     1      47.000   6.010  13.321  0.00  0.00    +0.000 A 
ENDBRANCH   1   4
BRANCH   1  16
ATOM     16  C   UNL     1      48.354   5.842  15.840  0.00  0.00    +0.000 C 
BRANCH  16  17
ATOM     17  O   UNL     1      49.121   5.901  17.058  0.00  0.00    +0.000 OA
BRANCH  17  21
ATOM     18  C   UNL     1      51.517   2.583  17.571  0.00  0.00    +0.000 A 
ATOM     19  C   UNL     1      52.057   3.857  17.756  0.00  0.00    +0.000 A 
ATOM     20  C   UNL     1      51.239   4.976  17.579  0.00  0.00    +0.000 A 
ATOM     21  C   UNL     1      49.910   4.779  17.225  0.00  0.00    +0.000 A 
ATOM     22  N   UNL     1      49.366   3.559  17.034  0.00  0.00    +0.000 NA
ATOM     23  C   UNL     1      50.182   2.490  17.200  0.00  0.00    +0.000 A 
BRANCH  18  25
ATOM     24  N   UNL     1      51.604   0.214  18.115  0.00  0.00    +0.000 N 
ATOM     25  C   UNL     1      52.287   1.330  17.723  0.00  0.00    +0.000 C 
ATOM     26  O   UNL     1      53.482   1.282  17.465  0.00  0.00    +0.000 OA
ATOM     27  H   UNL     1      52.127  -0.654  18.094  0.00  0.00    +0.000 HD
ATOM     28  H   UNL     1      50.596   0.149  18.079  0.00  0.00    +0.000 HD
ENDBRANCH  18  25
ENDBRANCH  17  21
ENDBRANCH  16  17
ENDBRANCH   1  16
TORSDOF 5
ENDMDL
