MODEL 1
REMARK VINA RESULT:    -8.291      0.000      0.000
REMARK INTER + INTRA:         -11.407
REMARK INTER:                 -10.714
REMARK INTRA:                  -0.692
REMARK UNBOUND:                -0.692
REMARK  Name = 
REMARK  8 active torsions:
REMARK  status: ('A' for Active; 'I' for Inactive)
REMARK    1  A    between atoms: C_1  and  O_2
REMARK    2  A    between atoms: O_2  and  C_3
REMARK    3  A    between atoms: C_6  and  C_7
REMARK    4  A    between atoms: C_7  and  C_8
REMARK    5  A    between atoms: C_7  and  N_9
REMARK    6  A    between atoms: N_9  and  C_10
REMARK    7  A    between atoms: C_13  and  C_14
REMARK    8  A    between atoms: C_18  and  C_19
REMARK                            x       y       z     vdW  Elec       q    Type
REMARK                         _______ _______ _______ _____ _____    ______ ____
ROOT
ATOM      1  N   UNL     1      44.548   5.312  10.177  0.00  0.00    +0.000 N 
ATOM      2  H   UNL     1      43.794   5.772   9.677  0.00  0.00    +0.000 HD
ENDROOT
BRANCH   1   3
ATOM      3  C   UNL     1      45.199   4.457   9.274  0.00  0.00    +0.000 A 
ATOM      4  N   UNL     1      46.004   4.974   8.324  0.00  0.00    +0.000 NA
ATOM      5  C   UNL     1      46.684   4.117   7.514  0.00  0.00    +0.000 A 
ATOM      6  C   UNL     1      46.635   2.740   7.618  0.00  0.00    +0.000 A 
ATOM      7  C   UNL     1      45.783   2.214   8.585  0.00  0.00    +0.000 A 
ATOM      8  C   UNL     1      45.036   3.068   9.414  0.00  0.00    +0.000 A 
ATOM      9  C   UNL     1      44.026   2.460  10.346  0.00  0.00    +0.000 C 
BRANCH   6  10
ATOM     10  C   UNL     1      47.428   1.806   6.779  0.00  0.00    +0.000 C 
ATOM     11  N   UNL     1      48.537   2.275   6.131  0.00  0.00    +0.000 N 
ATOM     12  O   UNL     1      47.104   0.633   6.658  0.00  0.00    +0.000 OA
ATOM     13  H   UNL     1      48.873   3.223   6.133  0.00  0.00    +0.000 HD
ATOM     14  H   UNL     1      49.054   1.598   5.581  0.00  0.00    +0.000 HD
ENDBRANCH   6  10
ENDBRANCH   1   3
BRANCH   1  15
ATOM     15  C   UNL     1      45.371   6.284  10.908  0.00  0.00    +0.000 C 
ATOM     16  C   UNL     1      44.485   7.506  11.207  0.00  0.00    +0.000 C 
BRANCH  15  20
ATOM     17  C   UNL     1      46.895   4.410  14.419  0.00  0.00    +0.000 A 
ATOM     18  C   UNL     1      47.619   5.478  13.909  0.00  0.00    +0.000 A 
ATOM     19  C   UNL     1      47.112   6.164  12.804  0.00  0.00    +0.000 A 
ATOM     20  C   UNL     1      45.896   5.769  12.237  0.00  0.00    +0.000 A 
ATOM     21  C   UNL     1      45.224   4.722  12.871  0.00  0.00    +0.000 A 
ATOM     22  N   UNL     1      45.692   4.033  13.939  0.00  0.00    +0.000 NA
BRANCH  17  24
ATOM     23  C   UNL     1      47.162   4.179  16.734  0.00  0.00    +0.000 C 
ATOM     24  O   UNL     1      47.488   3.688  15.435  0.00  0.00    +0.000 OA
ENDBRANCH  17  24
ENDBRANCH  15  20
ENDBRANCH   1  15
TORSDOF 5
ENDMDL
MODEL 2
REMARK VINA RESULT:    -7.091      1.364      2.229
REMARK INTER + INTRA:          -9.856
REMARK INTER:                  -9.500
REMARK INTRA:                  -0.357
REMARK UNBOUND:                -0.692
REMARK  Name = 
REMARK  8 active torsions:
REMARK  status: ('A' for Active; 'I' for Inactive)
REMARK    1  A    between atoms: C_1  and  O_2
REMARK    2  A    between atoms: O_2  and  C_3
REMARK    3  A    between atoms: C_6  and  C_7
REMARK    4  A    between atoms: C_7  and  C_8
REMARK    5  A    between atoms: C_7  and  N_9
REMARK    6  A    between atoms: N_9  and  C_10
REMARK    7  A    between atoms: C_13  and  C_14
REMARK    8  A    between atoms: C_18  and  C_19
REMARK                            x       y       z     vdW  Elec       q    Type
REMARK                         _______ _______ _______ _____ _____    ______ ____
ROOT
ATOM      1  N   UNL     1      43.634   4.352  10.216  0.00  0.00    +0.000 N 
ATOM      2  H   UNL     1      43.729   5.345  10.033  0.00  0.00    +0.000 HD
ENDROOT
BRANCH   1   3
ATOM      3  C   UNL     1      44.601   3.683   9.450  0.00  0.00    +0.000 A 
ATOM      4  N   UNL     1      44.484   2.359   9.230  0.00  0.00    +0.000 NA
ATOM      5  C   UNL     1      45.393   1.753   8.418  0.00  0.00    +0.000 A 
ATOM      6  C   UNL     1      46.419   2.411   7.768  0.00  0.00    +0.000 A 
ATOM      7  C   UNL     1      46.549   3.774   8.020  0.00  0.00    +0.000 A 
ATOM      8  C   UNL     1      45.652   4.426   8.883  0.00  0.00    +0.000 A 
ATOM      9  C   UNL     1      45.912   5.863   9.236  0.00  0.00    +0.000 C 
BRANCH   6  10
ATOM     10  C   UNL     1      47.370   1.763   6.830  0.00  0.00    +0.000 C 
ATOM     11  N   UNL     1      48.438   2.481   6.366  0.00  0.00    +0.000 N 
ATOM     12  O   UNL     1      47.213   0.606   6.467  0.00  0.00    +0.000 OA
ATOM     13  H   UNL     1      48.643   3.444   6.571  0.00  0.00    +0.000 HD
ATOM     14  H   UNL     1      49.067   1.992   5.739  0.00  0.00    +0.000 HD
ENDBRANCH   6  10
ENDBRANCH   1   3
BRANCH   1  15
ATOM     15  C   UNL     1      43.600   4.079  11.659  0.00  0.00    +0.000 C 
ATOM     16  C   UNL     1      43.276   2.586  11.838  0.00  0.00    +0.000 C 
BRANCH  15  20
ATOM     17  C   UNL     1      47.036   4.993  14.009  0.00  0.00    +0.000 A 
ATOM     18  C   UNL     1      46.855   3.666  13.643  0.00  0.00    +0.000 A 
ATOM     19  C   UNL     1      45.784   3.341  12.812  0.00  0.00    +0.000 A 
ATOM     20  C   UNL     1      44.919   4.345  12.365  0.00  0.00    +0.000 A 
ATOM     21  C   UNL     1      45.232   5.652  12.744  0.00  0.00    +0.000 A 
ATOM     22  N   UNL     1      46.261   5.999  13.554  0.00  0.00    +0.000 NA
BRANCH  17  24
ATOM     23  C   UNL     1      47.782   4.681  16.206  0.00  0.00    +0.000 C 
ATOM     24  O   UNL     1      48.035   5.253  14.924  0.00  0.00    +0.000 OA
ENDBRANCH  17  24
ENDBRANCH  15  20
ENDBRANCH   1  15
TORSDOF 5
ENDMDL
MODEL 3
REMARK VINA RESULT:    -6.888      1.822      6.958
REMARK INTER + INTRA:          -9.594
REMARK INTER:                  -8.923
REMARK INTRA:                  -0.671
REMARK UNBOUND:                -0.692
REMARK  Name = 
REMARK  8 active torsions:
REMARK  status: ('A' for Active; 'I' for Inactive)
REMARK    1  A    between atoms: C_1  and  O_2
REMARK    2  A    between atoms: O_2  and  C_3
REMARK    3  A    between atoms: C_6  and  C_7
REMARK    4  A    between atoms: C_7  and  C_8
REMARK    5  A    between atoms: C_7  and  N_9
REMARK    6  A    between atoms: N_9  and  C_10
REMARK    7  A    between atoms: C_13  and  C_14
REMARK    8  A    between atoms: C_18  and  C_19
REMARK                            x       y       z     vdW  Elec       q    Type
REMARK                         _______ _______ _______ _____ _____    ______ ____
ROOT
ATOM      1  N   UNL     1      44.593   4.707  12.177  0.00  0.00    +0.000 N 
ATOM      2  H   UNL     1      43.716   4.805  12.678  0.00  0.00    +0.000 HD
ENDROOT
BRANCH   1   3
ATOM      3  C   UNL     1      45.622   5.125  13.035  0.00  0.00    +0.000 A 
ATOM      4  N   UNL     1      46.047   4.309  14.020  0.00  0.00    +0.000 NA
ATOM      5  C   UNL     1      47.100   4.708  14.784  0.00  0.00    +0.000 A 
ATOM      6  C   UNL     1      47.795   5.888  14.600  0.00  0.00    +0.000 A 
ATOM      7  C   UNL     1      47.335   6.737  13.597  0.00  0.00    +0.000 A 
ATOM      8  C   UNL     1      46.227   6.375  12.813  0.00  0.00    +0.000 A 
ATOM      9  C   UNL     1      45.679   7.379  11.839  0.00  0.00    +0.000 C 
BRANCH   6  10
ATOM     10  C   UNL     1      48.985   6.293  15.390  0.00  0.00    +0.000 C 
ATOM     11  N   UNL     1      49.601   7.480  15.102  0.00  0.00    +0.000 N 
ATOM     12  O   UNL     1      49.420   5.586  16.288  0.00  0.00    +0.000 OA
ATOM     13  H   UNL     1      49.350   8.119  14.367  0.00  0.00    +0.000 HD
ATOM     14  H   UNL     1      50.400   7.720  15.677  0.00  0.00    +0.000 HD
ENDBRANCH   6  10
ENDBRANCH   1   3
BRANCH   1  15
ATOM     15  C   UNL     1      44.711   3.375  11.571  0.00  0.00    +0.000 C 
ATOM     16  C   UNL     1      43.356   2.667  11.746  0.00  0.00    +0.000 C 
BRANCH  15  20
ATOM     17  C   UNL     1      46.001   3.649   7.519  0.00  0.00    +0.000 A 
ATOM     18  C   UNL     1      45.730   2.380   8.011  0.00  0.00    +0.000 A 
ATOM     19  C   UNL     1      45.234   2.257   9.309  0.00  0.00    +0.000 A 
ATOM     20  C   UNL     1      45.020   3.401  10.084  0.00  0.00    +0.000 A 
ATOM     21  C   UNL     1      45.269   4.629   9.466  0.00  0.00    +0.000 A 
ATOM     22  N   UNL     1      45.755   4.781   8.211  0.00  0.00    +0.000 NA
BRANCH  17  24
ATOM     23  C   UNL     1      47.321   2.534   5.938  0.00  0.00    +0.000 C 
ATOM     24  O   UNL     1      46.600   3.718   6.277  0.00  0.00    +0.000 OA
ENDBRANCH  17  24
ENDBRANCH  15  20
ENDBRANCH   1  15
TORSDOF 5
ENDMDL
MODEL 4
REMARK VINA RESULT:    -6.379      2.153      7.703
REMARK INTER + INTRA:          -8.936
REMARK INTER:                  -8.325
REMARK INTRA:                  -0.611
REMARK UNBOUND:                -0.692
REMARK  Name = 
REMARK  8 active torsions:
REMARK  status: ('A' for Active; 'I' for Inactive)
REMARK    1  A    between atoms: C_1  and  O_2
REMARK    2  A    between atoms: O_2  and  C_3
REMARK    3  A    between atoms: C_6  and  C_7
REMARK    4  A    between atoms: C_7  and  C_8
REMARK    5  A    between atoms: C_7  and  N_9
REMARK    6  A    between atoms: N_9  and  C_10
REMARK    7  A    between atoms: C_13  and  C_14
REMARK    8  A    between atoms: C_18  and  C_19
REMARK                            x       y       z     vdW  Elec       q    Type
REMARK                         _______ _______ _______ _____ _____    ______ ____
ROOT
ATOM      1  N   UNL     1      46.923   5.213  13.096  0.00  0.00    +0.000 N 
ATOM      2  H   UNL     1      47.354   6.074  12.776  0.00  0.00    +0.000 HD
ENDROOT
BRANCH   1   3
ATOM      3  C   UNL     1      47.260   5.044  14.448  0.00  0.00    +0.000 A 
ATOM      4  N   UNL     1      46.797   3.975  15.125  0.00  0.00    +0.000 NA
ATOM      5  C   UNL     1      47.206   3.795  16.411  0.00  0.00    +0.000 A 
ATOM      6  C   UNL     1      48.099   4.620  17.069  0.00  0.00    +0.000 A 
ATOM      7  C   UNL     1      48.552   5.736  16.370  0.00  0.00    +0.000 A 
ATOM      8  C   UNL     1      48.122   5.974  15.055  0.00  0.00    +0.000 A 
ATOM      9  C   UNL     1      48.526   7.260  14.390  0.00  0.00    +0.000 C 
BRANCH   6  10
ATOM     10  C   UNL     1      48.596   4.388  18.448  0.00  0.00    +0.000 C 
ATOM     11  N   UNL     1      48.292   3.211  19.074  0.00  0.00    +0.000 N 
ATOM     12  O   UNL     1      49.266   5.230  19.030  0.00  0.00    +0.000 OA
ATOM     13  H   UNL     1      47.723   2.469  18.704  0.00  0.00    +0.000 HD
ATOM     14  H   UNL     1      48.665   3.092  20.009  0.00  0.00    +0.000 HD
ENDBRANCH   6  10
ENDBRANCH   1   3
BRANCH   1  15
ATOM     15  C   UNL     1      45.499   5.168  12.739  0.00  0.00    +0.000 C 
ATOM     16  C   UNL     1      44.944   6.597  12.877  0.00  0.00    +0.000 C 
BRANCH  15  20
ATOM     17  C   UNL     1      45.242   3.903   8.678  0.00  0.00    +0.000 A 
ATOM     18  C   UNL     1      44.719   3.049   9.639  0.00  0.00    +0.000 A 
ATOM     19  C   UNL     1      44.718   3.462  10.972  0.00  0.00    +0.000 A 
ATOM     20  C   UNL     1      45.236   4.716  11.313  0.00  0.00    +0.000 A 
ATOM     21  C   UNL     1      45.678   5.516  10.257  0.00  0.00    +0.000 A 
ATOM     22  N   UNL     1      45.698   5.142   8.955  0.00  0.00    +0.000 NA
BRANCH  17  24
ATOM     23  C   UNL     1      46.671   3.359   6.904  0.00  0.00    +0.000 C 
ATOM     24  O   UNL     1      45.332   3.408   7.393  0.00  0.00    +0.000 OA
ENDBRANCH  17  24
ENDBRANCH  15  20
ENDBRANCH   1  15
TORSDOF 5
ENDMDL
MODEL 5
REMARK VINA RESULT:    -6.364      1.700      7.146
REMARK INTER + INTRA:          -8.917
REMARK INTER:                  -8.365
REMARK INTRA:                  -0.552
REMARK UNBOUND:                -0.692
REMARK  Name = 
REMARK  8 active torsions:
REMARK  status: ('A' for Active; 'I' for Inactive)
REMARK    1  A    between atoms: C_1  and  O_2
REMARK    2  A    between atoms: O_2  and  C_3
REMARK    3  A    between atoms: C_6  and  C_7
REMARK    4  A    between atoms: C_7  and  C_8
REMARK    5  A    between atoms: C_7  and  N_9
REMARK    6  A    between atoms: N_9  and  C_10
REMARK    7  A    between atoms: C_13  and  C_14
REMARK    8  A    between atoms: C_18  and  C_19
REMARK                            x       y       z     vdW  Elec       q    Type
REMARK                         _______ _______ _______ _____ _____    ______ ____
ROOT
ATOM      1  N   UNL     1      45.976   5.768  11.937  0.00  0.00    +0.000 N 
ATOM      2  H   UNL     1      45.719   6.748  11.884  0.00  0.00    +0.000 HD
ENDROOT
BRANCH   1   3
ATOM      3  C   UNL     1      46.554   5.547  13.197  0.00  0.00    +0.000 A 
ATOM      4  N   UNL     1      46.202   4.462  13.915  0.00  0.00    +0.000 NA
ATOM      5  C   UNL     1      46.838   4.232  15.097  0.00  0.00    +0.000 A 
ATOM      6  C   UNL     1      47.854   5.021  15.603  0.00  0.00    +0.000 A 
ATOM      7  C   UNL     1      48.194   6.153  14.867  0.00  0.00    +0.000 A 
ATOM      8  C   UNL     1      47.533   6.443  13.662  0.00  0.00    +0.000 A 
ATOM      9  C   UNL     1      47.833   7.745  12.975  0.00  0.00    +0.000 C 
BRANCH   6  10
ATOM     10  C   UNL     1      48.593   4.734  16.858  0.00  0.00    +0.000 C 
ATOM     11  N   UNL     1      47.890   4.388  17.978  0.00  0.00    +0.000 N 
ATOM     12  O   UNL     1      49.813   4.805  16.904  0.00  0.00    +0.000 OA
ATOM     13  H   UNL     1      46.889   4.334  18.060  0.00  0.00    +0.000 HD
ATOM     14  H   UNL     1      48.438   4.188  18.807  0.00  0.00    +0.000 HD
ENDBRANCH   6  10
ENDBRANCH   1   3
BRANCH   1  15
ATOM     15  C   UNL     1      44.855   4.904  11.543  0.00  0.00    +0.000 C 
ATOM     16  C   UNL     1      43.606   5.794  11.426  0.00  0.00    +0.000 C 
BRANCH  15  20
ATOM     17  C   UNL     1      45.875   3.075   7.831  0.00  0.00    +0.000 A 
ATOM     18  C   UNL     1      45.269   2.270   8.786  0.00  0.00    +0.000 A 
ATOM     19  C   UNL     1      44.853   2.851   9.984  0.00  0.00    +0.000 A 
ATOM     20  C   UNL     1      45.051   4.219  10.201  0.00  0.00    +0.000 A 
ATOM     21  C   UNL     1      45.613   4.942   9.147  0.00  0.00    +0.000 A 
ATOM     22  N   UNL     1      46.032   4.406   7.975  0.00  0.00    +0.000 NA
BRANCH  17  24
ATOM     23  C   UNL     1      47.255   1.361   7.029  0.00  0.00    +0.000 C 
ATOM     24  O   UNL     1      46.376   2.439   6.713  0.00  0.00    +0.000 OA
ENDBRANCH  17  24
ENDBRANCH  15  20
ENDBRANCH   1  15
TORSDOF 5
ENDMDL
MODEL 6
REMARK VINA RESULT:    -5.935      2.603      4.683
REMARK INTER + INTRA:          -8.363
REMARK INTER:                  -7.709
REMARK INTRA:                  -0.654
REMARK UNBOUND:                -0.692
REMARK  Name = 
REMARK  8 active torsions:
REMARK  status: ('A' for Active; 'I' for Inactive)
REMARK    1  A    between atoms: C_1  and  O_2
REMARK    2  A    between atoms: O_2  and  C_3
REMARK    3  A    between atoms: C_6  and  C_7
REMARK    4  A    between atoms: C_7  and  C_8
REMARK    5  A    between atoms: C_7  and  N_9
REMARK    6  A    between atoms: N_9  and  C_10
REMARK    7  A    between atoms: C_13  and  C_14
REMARK    8  A    between atoms: C_18  and  C_19
REMARK                            x       y       z     vdW  Elec       q    Type
REMARK                         _______ _______ _______ _____ _____    ______ ____
ROOT
ATOM      1  N   UNL     1      46.521   5.876  14.254  0.00  0.00    +0.000 N 
ATOM      2  H   UNL     1      46.270   6.857  14.184  0.00  0.00    +0.000 HD
ENDROOT
BRANCH   1   3
ATOM      3  C   UNL     1      46.053   5.234  13.097  0.00  0.00    +0.000 A 
ATOM      4  N   UNL     1      45.781   3.915  13.126  0.00  0.00    +0.000 NA
ATOM      5  C   UNL     1      45.254   3.336  12.013  0.00  0.00    +0.000 A 
ATOM      6  C   UNL     1      44.941   4.018  10.852  0.00  0.00    +0.000 A 
ATOM      7  C   UNL     1      45.249   5.376  10.821  0.00  0.00    +0.000 A 
ATOM      8  C   UNL     1      45.829   5.999  11.939  0.00  0.00    +0.000 A 
ATOM      9  C   UNL     1      46.272   7.429  11.813  0.00  0.00    +0.000 C 
BRANCH   6  10
ATOM     10  C   UNL     1      44.305   3.401   9.661  0.00  0.00    +0.000 C 
ATOM     11  N   UNL     1      44.136   4.156   8.533  0.00  0.00    +0.000 N 
ATOM     12  O   UNL     1      43.931   2.237   9.675  0.00  0.00    +0.000 OA
ATOM     13  H   UNL     1      44.373   5.127   8.425  0.00  0.00    +0.000 HD
ATOM     14  H   UNL     1      43.709   3.687   7.742  0.00  0.00    +0.000 HD
ENDBRANCH   6  10
ENDBRANCH   1   3
BRANCH   1  15
ATOM     15  C   UNL     1      47.940   5.714  14.597  0.00  0.00    +0.000 C 
ATOM     16  C   UNL     1      48.561   7.120  14.663  0.00  0.00    +0.000 C 
BRANCH  15  20
ATOM     17  C   UNL     1      48.468   4.271  18.572  0.00  0.00    +0.000 A 
ATOM     18  C   UNL     1      47.535   3.615  17.780  0.00  0.00    +0.000 A 
ATOM     19  C   UNL     1      47.388   4.011  16.451  0.00  0.00    +0.000 A 
ATOM     20  C   UNL     1      48.175   5.050  15.943  0.00  0.00    +0.000 A 
ATOM     21  C   UNL     1      49.124   5.596  16.810  0.00  0.00    +0.000 A 
ATOM     22  N   UNL     1      49.286   5.237  18.106  0.00  0.00    +0.000 NA
BRANCH  17  24
ATOM     23  C   UNL     1      48.399   5.056  20.777  0.00  0.00    +0.000 C 
ATOM     24  O   UNL     1      48.497   3.928  19.908  0.00  0.00    +0.000 OA
ENDBRANCH  17  24
ENDBRANCH  15  20
ENDBRANCH   1  15
TORSDOF 5
ENDMDL
MODEL 7
REMARK VINA RESULT:    -5.803      2.602      7.590
REMARK INTER + INTRA:          -8.192
REMARK INTER:                  -7.528
REMARK INTRA:                  -0.665
REMARK UNBOUND:                -0.692
REMARK  Name = 
REMARK  8 active torsions:
REMARK  status: ('A' for Active; 'I' for Inactive)
REMARK    1  A    between atoms: C_1  and  O_2
REMARK    2  A    between atoms: O_2  and  C_3
REMARK    3  A    between atoms: C_6  and  C_7
REMARK    4  A    between atoms: C_7  and  C_8
REMARK    5  A    between atoms: C_7  and  N_9
REMARK    6  A    between atoms: N_9  and  C_10
REMARK    7  A    between atoms: C_13  and  C_14
REMARK    8  A    between atoms: C_18  and  C_19
REMARK                            x       y       z     vdW  Elec       q    Type
REMARK                         _______ _______ _______ _____ _____    ______ ____
ROOT
ATOM      1  N   UNL     1      47.680   6.204  13.447  0.00  0.00    +0.000 N 
ATOM      2  H   UNL     1      48.385   6.905  13.245  0.00  0.00    +0.000 HD
ENDROOT
BRANCH   1   3
ATOM      3  C   UNL     1      47.918   5.721  14.743  0.00  0.00    +0.000 A 
ATOM      4  N   UNL     1      47.466   4.502  15.098  0.00  0.00    +0.000 NA
ATOM      5  C   UNL     1      47.781   4.027  16.333  0.00  0.00    +0.000 A 
ATOM      6  C   UNL     1      48.570   4.698  17.249  0.00  0.00    +0.000 A 
ATOM      7  C   UNL     1      49.013   5.966  16.885  0.00  0.00    +0.000 A 
ATOM      8  C   UNL     1      48.675   6.504  15.632  0.00  0.00    +0.000 A 
ATOM      9  C   UNL     1      49.055   7.928  15.337  0.00  0.00    +0.000 C 
BRANCH   6  10
ATOM     10  C   UNL     1      48.969   4.152  18.571  0.00  0.00    +0.000 C 
ATOM     11  N   UNL     1      48.249   3.122  19.110  0.00  0.00    +0.000 N 
ATOM     12  O   UNL     1      49.926   4.609  19.182  0.00  0.00    +0.000 OA
ATOM     13  H   UNL     1      47.429   2.697  18.712  0.00  0.00    +0.000 HD
ATOM     14  H   UNL     1      48.567   2.775  20.007  0.00  0.00    +0.000 HD
ENDBRANCH   6  10
ENDBRANCH   1   3
BRANCH   1  15
ATOM     15  C   UNL     1      46.333   6.705  13.145  0.00  0.00    +0.000 C 
ATOM     16  C   UNL     1      46.493   7.957  12.265  0.00  0.00    +0.000 C 
BRANCH  15  20
ATOM     17  C   UNL     1      44.318   3.716  10.871  0.00  0.00    +0.000 A 
ATOM     18  C   UNL     1      44.007   3.799  12.221  0.00  0.00    +0.000 A 
ATOM     19  C   UNL     1      44.591   4.812  12.981  0.00  0.00    +0.000 A 
ATOM     20  C   UNL     1      45.468   5.719  12.377  0.00  0.00    +0.000 A 
ATOM     21  C   UNL     1      45.659   5.580  11.001  0.00  0.00    +0.000 A 
ATOM     22  N   UNL     1      45.112   4.604  10.237  0.00  0.00    +0.000 NA
BRANCH  17  24
ATOM     23  C   UNL     1      44.623   2.245   9.075  0.00  0.00    +0.000 C 
ATOM     24  O   UNL     1      43.813   2.631  10.184  0.00  0.00    +0.000 OA
ENDBRANCH  17  24
ENDBRANCH  15  20
ENDBRANCH   1  15
TORSDOF 5
ENDMDL
MODEL 8
REMARK VINA RESULT:    -5.581      3.743      5.231
REMARK INTER + INTRA:          -7.904
REMARK INTER:                  -7.099
REMARK INTRA:                  -0.805
REMARK UNBOUND:                -0.692
REMARK  Name = 
REMARK  8 active torsions:
REMARK  status: ('A' for Active; 'I' for Inactive)
REMARK    1  A    between atoms: C_1  and  O_2
REMARK    2  A    between atoms: O_2  and  C_3
REMARK    3  A    between atoms: C_6  and  C_7
REMARK    4  A    between atoms: C_7  and  C_8
REMARK    5  A    between atoms: C_7  and  N_9
REMARK    6  A    between atoms: N_9  and  C_10
REMARK    7  A    between atoms: C_13  and  C_14
REMARK    8  A    between atoms: C_18  and  C_19
REMARK                            x       y       z     vdW  Elec       q    Type
REMARK                         _______ _______ _______ _____ _____    ______ ____
ROOT
ATOM      1  N   UNL     1      45.917   7.814  13.041  0.00  0.00    +0.000 N 
ATOM      2  H   UNL     1      45.198   8.332  13.536  0.00  0.00    +0.000 HD
ENDROOT
BRANCH   1   3
ATOM      3  C   UNL     1      45.352   6.601  12.617  0.00  0.00    +0.000 A 
ATOM      4  N   UNL     1      44.257   6.610  11.831  0.00  0.00    +0.000 NA
ATOM      5  C   UNL     1      43.779   5.423  11.369  0.00  0.00    +0.000 A 
ATOM      6  C   UNL     1      44.363   4.195  11.623  0.00  0.00    +0.000 A 
ATOM      7  C   UNL     1      45.478   4.192  12.456  0.00  0.00    +0.000 A 
ATOM      8  C   UNL     1      45.976   5.395  12.981  0.00  0.00    +0.000 A 
ATOM      9  C   UNL     1      47.093   5.332  13.985  0.00  0.00    +0.000 C 
BRANCH   6  10
ATOM     10  C   UNL     1      43.881   2.906  11.066  0.00  0.00    +0.000 C 
ATOM     11  N   UNL     1      44.523   2.369   9.985  0.00  0.00    +0.000 N 
ATOM     12  O   UNL     1      42.924   2.323  11.555  0.00  0.00    +0.000 OA
ATOM     13  H   UNL     1      45.295   2.778   9.485  0.00  0.00    +0.000 HD
ATOM     14  H   UNL     1      44.167   1.481   9.649  0.00  0.00    +0.000 HD
ENDBRANCH   6  10
ENDBRANCH   1   3
BRANCH   1  15
ATOM     15  C   UNL     1      46.571   8.651  12.027  0.00  0.00    +0.000 C 
ATOM     16  C   UNL     1      46.026  10.081  12.190  0.00  0.00    +0.000 C 
BRANCH  15  20
ATOM     17  C   UNL     1      50.746   8.695  12.882  0.00  0.00    +0.000 A 
ATOM     18  C   UNL     1      50.320   7.867  11.852  0.00  0.00    +0.000 A 
ATOM     19  C   UNL     1      48.972   7.882  11.495  0.00  0.00    +0.000 A 
ATOM     20  C   UNL     1      48.081   8.722  12.171  0.00  0.00    +0.000 A 
ATOM     21  C   UNL     1      48.630   9.557  13.146  0.00  0.00    +0.000 A 
ATOM     22  N   UNL     1      49.933   9.561  13.520  0.00  0.00    +0.000 NA
BRANCH  17  24
ATOM     23  C   UNL     1      52.981   8.594  12.192  0.00  0.00    +0.000 C 
ATOM     24  O   UNL     1      52.060   8.562  13.281  0.00  0.00    +0.000 OA
ENDBRANCH  17  24
ENDBRANCH  15  20
ENDBRANCH   1  15
TORSDOF 5
ENDMDL
MODEL 9
REMARK VINA RESULT:    -5.492      4.351      6.264
REMARK INTER + INTRA:          -7.789
REMARK INTER:                  -7.102
REMARK INTRA:                  -0.687
REMARK UNBOUND:                -0.692
REMARK  Name = 
REMARK  8 active torsions:
REMARK  status: ('A' for Active; 'I' for Inactive)
REMARK    1  A    between atoms: C_1  and  O_2
REMARK    2  A    between atoms: O_2  and  C_3
REMARK    3  A    between atoms: C_6  and  C_7
REMARK    4  A    between atoms: C_7  and  C_8
REMARK    5  A    between atoms: C_7  and  N_9
REMARK    6  A    between atoms: N_9  and  C_10
REMARK    7  A    between atoms: C_13  and  C_14
REMARK    8  A    between atoms: C_18  and  C_19
REMARK                            x       y       z     vdW  Elec       q    Type
REMARK                         _______ _______ _______ _____ _____    ______ ____
ROOT
ATOM      1  N   UNL     1      47.622   4.602  14.787  0.00  0.00    +0.000 N 
ATOM      2  H   UNL     1      48.209   3.916  14.324  0.00  0.00    +0.000 HD
ENDROOT
BRANCH   1   3
ATOM      3  C   UNL     1      46.570   4.920  13.914  0.00  0.00    +0.000 A 
ATOM      4  N   UNL     1      45.562   4.044  13.731  0.00  0.00    +0.000 NA
ATOM      5  C   UNL     1      44.516   4.413  12.943  0.00  0.00    +0.000 A 
ATOM      6  C   UNL     1      44.394   5.648  12.336  0.00  0.00    +0.000 A 
ATOM      7  C   UNL     1      45.451   6.539  12.509  0.00  0.00    +0.000 A 
ATOM      8  C   UNL     1      46.564   6.178  13.285  0.00  0.00    +0.000 A 
ATOM      9  C   UNL     1      47.740   7.112  13.330  0.00  0.00    +0.000 C 
BRANCH   6  10
ATOM     10  C   UNL     1      43.223   6.075  11.529  0.00  0.00    +0.000 C 
ATOM     11  N   UNL     1      43.147   7.373  11.104  0.00  0.00    +0.000 N 
ATOM     12  O   UNL     1      42.330   5.290  11.244  0.00  0.00    +0.000 OA
ATOM     13  H   UNL     1      43.804   8.107  11.309  0.00  0.00    +0.000 HD
ATOM     14  H   UNL     1      42.337   7.614  10.545  0.00  0.00    +0.000 HD
ENDBRANCH   6  10
ENDBRANCH   1   3
BRANCH   1  15
ATOM     15  C   UNL     1      47.272   4.170  16.146  0.00  0.00    +0.000 C 
ATOM     16  C   UNL     1      47.975   2.825  16.397  0.00  0.00    +0.000 C 
BRANCH  15  20
ATOM     17  C   UNL     1      48.388   7.216  18.908  0.00  0.00    +0.000 A 
ATOM     18  C   UNL     1      47.464   6.277  19.344  0.00  0.00    +0.000 A 
ATOM     19  C   UNL     1      47.131   5.222  18.494  0.00  0.00    +0.000 A 
ATOM     20  C   UNL     1      47.727   5.129  17.232  0.00  0.00    +0.000 A 
ATOM     21  C   UNL     1      48.687   6.094  16.924  0.00  0.00    +0.000 A 
ATOM     22  N   UNL     1      49.028   7.133  17.724  0.00  0.00    +0.000 NA
BRANCH  17  24
ATOM     23  C   UNL     1      47.392   8.845  20.265  0.00  0.00    +0.000 C 
ATOM     24  O   UNL     1      48.599   8.305  19.731  0.00  0.00    +0.000 OA
ENDBRANCH  17  24
ENDBRANCH  15  20
ENDBRANCH   1  15
TORSDOF 5
ENDMDL
