MODEL 1
REMARK VINA RESULT:    -8.988      0.000      0.000
REMARK INTER + INTRA:         -13.202
REMARK INTER:                 -12.665
REMARK INTRA:                  -0.536
REMARK UNBOUND:                -0.536
REMARK  Name = 
REMARK  8 active torsions:
REMARK  status: ('A' for Active; 'I' for Inactive)
REMARK    1  A    between atoms: C_1  and  C_2
REMARK    2  A    between atoms: C_4  and  O_5
REMARK    3  A    between atoms: O_5  and  C_6
REMARK    4  A    between atoms: C_6  and  C_7
REMARK    5  A    between atoms: C_11  and  C_12
REMARK    6  A    between atoms: C_16  and  O_17
REMARK    7  A    between atoms: O_17  and  C_18
REMARK    8  A    between atoms: C_26  and  C_27
REMARK                            x       y       z     vdW  Elec       q    Type
REMARK                         _______ _______ _______ _____ _____    ______ ____
ROOT
ATOM      1  C   UNL     1      45.060   5.054  11.678  0.00  0.00    +0.000 A 
ATOM      2  C   UNL     1      45.435   6.342  11.282  0.00  0.00    +0.000 A 
ATOM      3  C   UNL     1      46.421   7.031  11.982  0.00  0.00    +0.000 A 
ATOM      4  C   UNL     1      47.033   6.442  13.092  0.00  0.00    +0.000 A 
ATOM      5  C   UNL     1      46.684   5.150  13.527  0.00  0.00    +0.000 A 
ATOM      6  C   UNL     1      45.709   4.462  12.777  0.00  0.00    +0.000 A 
ENDROOT
BRANCH   5   7
ATOM      7  C   UNL     1      47.274   4.564  14.748  0.00  0.00    +0.000 A 
ATOM      8  N   UNL     1      47.444   3.229  14.795  0.00  0.00    +0.000 NA
ATOM      9  C   UNL     1      47.954   2.729  15.931  0.00  0.00    +0.000 A 
ATOM     10  C   UNL     1      48.292   3.499  17.018  0.00  0.00    +0.000 A 
ATOM     11  C   UNL     1      48.039   4.847  16.900  0.00  0.00    +0.000 A 
ATOM     12  N   UNL     1      47.560   5.394  15.772  0.00  0.00    +0.000 NA
BRANCH  11  13
ATOM     13  O   UNL     1      48.362   5.775  17.835  0.00  0.00    +0.000 OA
BRANCH  13  14
ATOM     14  C   UNL     1      47.581   5.818  19.012  0.00  0.00    +0.000 C 
ATOM     15  F   UNL     1      47.968   4.955  19.977  0.00  0.00    +0.000 F 
ATOM     16  F   UNL     1      47.644   7.069  19.522  0.00  0.00    +0.000 F 
ATOM     17  F   UNL     1      46.291   5.554  18.709  0.00  0.00    +0.000 F 
ENDBRANCH  13  14
ENDBRANCH  11  13
ENDBRANCH   5   7
BRANCH   1  18
ATOM     18  C   UNL     1      43.927   4.339  10.983  0.00  0.00    +0.000 C 
BRANCH  18  19
ATOM     19  O   UNL     1      44.280   2.983  10.693  0.00  0.00    +0.000 OA
BRANCH  19  23
ATOM     20  C   UNL     1      46.751   0.248   7.694  0.00  0.00    +0.000 C 
ATOM     21  C   UNL     1      46.261   1.627   8.018  0.00  0.00    +0.000 A 
ATOM     22  N   UNL     1      45.522   1.701   9.157  0.00  0.00    +0.000 NA
ATOM     23  C   UNL     1      45.029   2.898   9.536  0.00  0.00    +0.000 A 
ATOM     24  C   UNL     1      45.237   4.056   8.814  0.00  0.00    +0.000 A 
ATOM     25  C   UNL     1      45.991   3.982   7.641  0.00  0.00    +0.000 A 
ATOM     26  C   UNL     1      46.512   2.748   7.218  0.00  0.00    +0.000 A 
BRANCH  26  27
ATOM     27  C   UNL     1      47.329   2.651   5.979  0.00  0.00    +0.000 C 
ATOM     28  N   UNL     1      48.676   2.457   6.114  0.00  0.00    +0.000 N 
ATOM     29  O   UNL     1      46.844   2.757   4.862  0.00  0.00    +0.000 OA
ATOM     30  H   UNL     1      49.169   2.563   6.991  0.00  0.00    +0.000 HD
ATOM     31  H   UNL     1      49.225   2.491   5.260  0.00  0.00    +0.000 HD
ENDBRANCH  26  27
ENDBRANCH  19  23
ENDBRANCH  18  19
ENDBRANCH   1  18
TORSDOF 7
ENDMDL
MODEL 2
REMARK VINA RESULT:    -8.779      1.321      1.795
REMARK INTER + INTRA:         -12.907
REMARK INTER:                 -12.152
REMARK INTRA:                  -0.755
REMARK UNBOUND:                -0.536
REMARK  Name = 
REMARK  8 active torsions:
REMARK  status: ('A' for Active; 'I' for Inactive)
REMARK    1  A    between atoms: C_1  and  C_2
REMARK    2  A    between atoms: C_4  and  O_5
REMARK    3  A    between atoms: O_5  and  C_6
REMARK    4  A    between atoms: C_6  and  C_7
REMARK    5  A    between atoms: C_11  and  C_12
REMARK    6  A    between atoms: C_16  and  O_17
REMARK    7  A    between atoms: O_17  and  C_18
REMARK    8  A    between atoms: C_26  and  C_27
REMARK                            x       y       z     vdW  Elec       q    Type
REMARK                         _______ _______ _______ _____ _____    ______ ____
ROOT
ATOM      1  C   UNL     1      44.855   4.413  11.879  0.00  0.00    +0.000 A 
ATOM      2  C   UNL     1      44.157   5.541  11.435  0.00  0.00    +0.000 A 
ATOM      3  C   UNL     1      44.521   6.809  11.879  0.00  0.00    +0.000 A 
ATOM      4  C   UNL     1      45.579   6.959  12.780  0.00  0.00    +0.000 A 
ATOM      5  C   UNL     1      46.306   5.851  13.254  0.00  0.00    +0.000 A 
ATOM      6  C   UNL     1      45.939   4.583  12.759  0.00  0.00    +0.000 A 
ENDROOT
BRANCH   5   7
ATOM      7  C   UNL     1      47.370   6.006  14.268  0.00  0.00    +0.000 A 
ATOM      8  N   UNL     1      48.064   7.159  14.290  0.00  0.00    +0.000 NA
ATOM      9  C   UNL     1      49.044   7.252  15.203  0.00  0.00    +0.000 A 
ATOM     10  C   UNL     1      49.360   6.246  16.084  0.00  0.00    +0.000 A 
ATOM     11  C   UNL     1      48.632   5.085  15.958  0.00  0.00    +0.000 A 
ATOM     12  N   UNL     1      47.623   4.960  15.080  0.00  0.00    +0.000 NA
BRANCH  11  13
ATOM     13  O   UNL     1      48.752   4.009  16.773  0.00  0.00    +0.000 OA
BRANCH  13  14
ATOM     14  C   UNL     1      47.803   3.863  17.810  0.00  0.00    +0.000 C 
ATOM     15  F   UNL     1      48.298   3.350  18.958  0.00  0.00    +0.000 F 
ATOM     16  F   UNL     1      47.283   5.080  18.088  0.00  0.00    +0.000 F 
ATOM     17  F   UNL     1      46.798   3.063  17.395  0.00  0.00    +0.000 F 
ENDBRANCH  13  14
ENDBRANCH  11  13
ENDBRANCH   5   7
BRANCH   1  18
ATOM     18  C   UNL     1      44.407   3.028  11.477  0.00  0.00    +0.000 C 
BRANCH  18  19
ATOM     19  O   UNL     1      43.790   3.047  10.186  0.00  0.00    +0.000 OA
BRANCH  19  23
ATOM     20  C   UNL     1      46.710   0.203   7.743  0.00  0.00    +0.000 C 
ATOM     21  C   UNL     1      46.190   1.595   7.939  0.00  0.00    +0.000 A 
ATOM     22  N   UNL     1      45.264   1.710   8.928  0.00  0.00    +0.000 NA
ATOM     23  C   UNL     1      44.729   2.922   9.181  0.00  0.00    +0.000 A 
ATOM     24  C   UNL     1      45.078   4.056   8.477  0.00  0.00    +0.000 A 
ATOM     25  C   UNL     1      46.024   3.941   7.457  0.00  0.00    +0.000 A 
ATOM     26  C   UNL     1      46.594   2.690   7.166  0.00  0.00    +0.000 A 
BRANCH  26  27
ATOM     27  C   UNL     1      47.615   2.550   6.093  0.00  0.00    +0.000 C 
ATOM     28  N   UNL     1      48.931   2.516   6.463  0.00  0.00    +0.000 N 
ATOM     29  O   UNL     1      47.319   2.485   4.909  0.00  0.00    +0.000 OA
ATOM     30  H   UNL     1      49.257   2.766   7.387  0.00  0.00    +0.000 HD
ATOM     31  H   UNL     1      49.612   2.517   5.708  0.00  0.00    +0.000 HD
ENDBRANCH  26  27
ENDBRANCH  19  23
ENDBRANCH  18  19
ENDBRANCH   1  18
TORSDOF 7
ENDMDL
MODEL 3
REMARK VINA RESULT:    -8.600      3.935      4.820
REMARK INTER + INTRA:         -12.656
REMARK INTER:                 -11.809
REMARK INTRA:                  -0.846
REMARK UNBOUND:                -0.536
REMARK  Name = 
REMARK  8 active torsions:
REMARK  status: ('A' for Active; 'I' for Inactive)
REMARK    1  A    between atoms: C_1  and  C_2
REMARK    2  A    between atoms: C_4  and  O_5
REMARK    3  A    between atoms: O_5  and  C_6
REMARK    4  A    between atoms: C_6  and  C_7
REMARK    5  A    between atoms: C_11  and  C_12
REMARK    6  A    between atoms: C_16  and  O_17
REMARK    7  A    between atoms: O_17  and  C_18
REMARK    8  A    between atoms: C_26  and  C_27
REMARK                            x       y       z     vdW  Elec       q    Type
REMARK                         _______ _______ _______ _____ _____    ______ ____
ROOT
ATOM      1  C   UNL     1      44.812   4.532  11.677  0.00  0.00    +0.000 A 
ATOM      2  C   UNL     1      45.272   3.514  12.517  0.00  0.00    +0.000 A 
ATOM      3  C   UNL     1      46.365   3.734  13.351  0.00  0.00    +0.000 A 
ATOM      4  C   UNL     1      47.014   4.972  13.341  0.00  0.00    +0.000 A 
ATOM      5  C   UNL     1      46.586   6.023  12.509  0.00  0.00    +0.000 A 
ATOM      6  C   UNL     1      45.454   5.783  11.703  0.00  0.00    +0.000 A 
ENDROOT
BRANCH   5   7
ATOM      7  C   UNL     1      47.323   7.302  12.442  0.00  0.00    +0.000 A 
ATOM      8  N   UNL     1      46.615   8.437  12.298  0.00  0.00    +0.000 NA
ATOM      9  C   UNL     1      47.320   9.577  12.210  0.00  0.00    +0.000 A 
ATOM     10  C   UNL     1      48.692   9.627  12.252  0.00  0.00    +0.000 A 
ATOM     11  C   UNL     1      49.336   8.415  12.352  0.00  0.00    +0.000 A 
ATOM     12  N   UNL     1      48.670   7.255  12.475  0.00  0.00    +0.000 NA
BRANCH  11  13
ATOM     13  O   UNL     1      50.677   8.263  12.473  0.00  0.00    +0.000 OA
BRANCH  13  14
ATOM     14  C   UNL     1      51.443   8.238  11.285  0.00  0.00    +0.000 C 
ATOM     15  F   UNL     1      52.772   8.084  11.475  0.00  0.00    +0.000 F 
ATOM     16  F   UNL     1      51.010   7.211  10.519  0.00  0.00    +0.000 F 
ATOM     17  F   UNL     1      51.249   9.384  10.598  0.00  0.00    +0.000 F 
ENDBRANCH  13  14
ENDBRANCH  11  13
ENDBRANCH   5   7
BRANCH   1  18
ATOM     18  C   UNL     1      43.687   4.270  10.703  0.00  0.00    +0.000 C 
BRANCH  18  19
ATOM     19  O   UNL     1      43.763   2.939  10.183  0.00  0.00    +0.000 OA
BRANCH  19  23
ATOM     20  C   UNL     1      46.743   0.210   7.683  0.00  0.00    +0.000 C 
ATOM     21  C   UNL     1      46.180   1.582   7.896  0.00  0.00    +0.000 A 
ATOM     22  N   UNL     1      45.263   1.659   8.897  0.00  0.00    +0.000 NA
ATOM     23  C   UNL     1      44.692   2.851   9.166  0.00  0.00    +0.000 A 
ATOM     24  C   UNL     1      44.994   4.002   8.465  0.00  0.00    +0.000 A 
ATOM     25  C   UNL     1      45.930   3.924   7.432  0.00  0.00    +0.000 A 
ATOM     26  C   UNL     1      46.537   2.695   7.125  0.00  0.00    +0.000 A 
BRANCH  26  27
ATOM     27  C   UNL     1      47.548   2.596   6.038  0.00  0.00    +0.000 C 
ATOM     28  N   UNL     1      48.868   2.566   6.393  0.00  0.00    +0.000 N 
ATOM     29  O   UNL     1      47.240   2.560   4.856  0.00  0.00    +0.000 OA
ATOM     30  H   UNL     1      49.201   2.794   7.320  0.00  0.00    +0.000 HD
ATOM     31  H   UNL     1      49.541   2.595   5.632  0.00  0.00    +0.000 HD
ENDBRANCH  26  27
ENDBRANCH  19  23
ENDBRANCH  18  19
ENDBRANCH   1  18
TORSDOF 7
ENDMDL
MODEL 4
REMARK VINA RESULT:    -8.389      4.377      9.167
REMARK INTER + INTRA:         -12.359
REMARK INTER:                 -11.270
REMARK INTRA:                  -1.089
REMARK UNBOUND:                -0.536
REMARK  Name = 
REMARK  8 active torsions:
REMARK  status: ('A' for Active; 'I' for Inactive)
REMARK    1  A    between atoms: C_1  and  C_2
REMARK    2  A    between atoms: C_4  and  O_5
REMARK    3  A    between atoms: O_5  and  C_6
REMARK    4  A    between atoms: C_6  and  C_7
REMARK    5  A    between atoms: C_11  and  C_12
REMARK    6  A    between atoms: C_16  and  O_17
REMARK    7  A    between atoms: O_17  and  C_18
REMARK    8  A    between atoms: C_26  and  C_27
REMARK                            x       y       z     vdW  Elec       q    Type
REMARK                         _______ _______ _______ _____ _____    ______ ____
ROOT
ATOM      1  C   UNL     1      46.991   7.588  13.010  0.00  0.00    +0.000 A 
ATOM      2  C   UNL     1      46.281   8.769  12.777  0.00  0.00    +0.000 A 
ATOM      3  C   UNL     1      45.141   8.755  11.977  0.00  0.00    +0.000 A 
ATOM      4  C   UNL     1      44.711   7.560  11.393  0.00  0.00    +0.000 A 
ATOM      5  C   UNL     1      45.398   6.349  11.599  0.00  0.00    +0.000 A 
ATOM      6  C   UNL     1      46.526   6.387  12.444  0.00  0.00    +0.000 A 
ENDROOT
BRANCH   5   7
ATOM      7  C   UNL     1      44.987   5.105  10.916  0.00  0.00    +0.000 A 
ATOM      8  N   UNL     1      44.426   4.130  11.655  0.00  0.00    +0.000 NA
ATOM      9  C   UNL     1      44.094   3.002  11.006  0.00  0.00    +0.000 A 
ATOM     10  C   UNL     1      44.304   2.807   9.663  0.00  0.00    +0.000 A 
ATOM     11  C   UNL     1      44.927   3.838   8.996  0.00  0.00    +0.000 A 
ATOM     12  N   UNL     1      45.247   4.995   9.598  0.00  0.00    +0.000 NA
BRANCH  11  13
ATOM     13  O   UNL     1      45.161   3.860   7.661  0.00  0.00    +0.000 OA
BRANCH  13  14
ATOM     14  C   UNL     1      46.397   3.351   7.204  0.00  0.00    +0.000 C 
ATOM     15  F   UNL     1      46.855   2.282   7.892  0.00  0.00    +0.000 F 
ATOM     16  F   UNL     1      46.257   2.984   5.910  0.00  0.00    +0.000 F 
ATOM     17  F   UNL     1      47.336   4.320   7.265  0.00  0.00    +0.000 F 
ENDBRANCH  13  14
ENDBRANCH  11  13
ENDBRANCH   5   7
BRANCH   1  18
ATOM     18  C   UNL     1      48.279   7.613  13.799  0.00  0.00    +0.000 C 
BRANCH  18  19
ATOM     19  O   UNL     1      48.723   6.285  14.094  0.00  0.00    +0.000 OA
BRANCH  19  23
ATOM     20  C   UNL     1      47.227   3.251  17.431  0.00  0.00    +0.000 C 
ATOM     21  C   UNL     1      47.878   4.568  17.136  0.00  0.00    +0.000 A 
ATOM     22  N   UNL     1      48.009   4.840  15.810  0.00  0.00    +0.000 NA
ATOM     23  C   UNL     1      48.589   6.000  15.438  0.00  0.00    +0.000 A 
ATOM     24  C   UNL     1      49.061   6.926  16.346  0.00  0.00    +0.000 A 
ATOM     25  C   UNL     1      48.933   6.647  17.708  0.00  0.00    +0.000 A 
ATOM     26  C   UNL     1      48.339   5.444  18.126  0.00  0.00    +0.000 A 
BRANCH  26  27
ATOM     27  C   UNL     1      48.181   5.136  19.572  0.00  0.00    +0.000 C 
ATOM     28  N   UNL     1      47.080   5.630  20.215  0.00  0.00    +0.000 N 
ATOM     29  O   UNL     1      49.002   4.480  20.198  0.00  0.00    +0.000 OA
ATOM     30  H   UNL     1      46.476   6.339  19.820  0.00  0.00    +0.000 HD
ATOM     31  H   UNL     1      47.043   5.489  21.221  0.00  0.00    +0.000 HD
ENDBRANCH  26  27
ENDBRANCH  19  23
ENDBRANCH  18  19
ENDBRANCH   1  18
TORSDOF 7
ENDMDL
MODEL 5
REMARK VINA RESULT:    -7.877      4.819      9.220
REMARK INTER + INTRA:         -11.637
REMARK INTER:                 -10.685
REMARK INTRA:                  -0.952
REMARK UNBOUND:                -0.536
REMARK  Name = 
REMARK  8 active torsions:
REMARK  status: ('A' for Active; 'I' for Inactive)
REMARK    1  A    between atoms: C_1  and  C_2
REMARK    2  A    between atoms: C_4  and  O_5
REMARK    3  A    between atoms: O_5  and  C_6
REMARK    4  A    between atoms: C_6  and  C_7
REMARK    5  A    between atoms: C_11  and  C_12
REMARK    6  A    between atoms: C_16  and  O_17
REMARK    7  A    between atoms: O_17  and  C_18
REMARK    8  A    between atoms: C_26  and  C_27
REMARK                            x       y       z     vdW  Elec       q    Type
REMARK                         _______ _______ _______ _____ _____    ______ ____
ROOT
ATOM      1  C   UNL     1      47.821   5.026  15.553  0.00  0.00    +0.000 A 
ATOM      2  C   UNL     1      48.462   6.202  15.151  0.00  0.00    +0.000 A 
ATOM      3  C   UNL     1      48.087   6.836  13.970  0.00  0.00    +0.000 A 
ATOM      4  C   UNL     1      47.075   6.291  13.175  0.00  0.00    +0.000 A 
ATOM      5  C   UNL     1      46.406   5.108  13.539  0.00  0.00    +0.000 A 
ATOM      6  C   UNL     1      46.782   4.509  14.759  0.00  0.00    +0.000 A 
ENDROOT
BRANCH   5   7
ATOM      7  C   UNL     1      45.394   4.492  12.656  0.00  0.00    +0.000 A 
ATOM      8  N   UNL     1      44.468   3.690  13.213  0.00  0.00    +0.000 NA
ATOM      9  C   UNL     1      43.584   3.123  12.377  0.00  0.00    +0.000 A 
ATOM     10  C   UNL     1      43.591   3.317  11.017  0.00  0.00    +0.000 A 
ATOM     11  C   UNL     1      44.603   4.112  10.529  0.00  0.00    +0.000 A 
ATOM     12  N   UNL     1      45.489   4.724  11.331  0.00  0.00    +0.000 NA
BRANCH  11  13
ATOM     13  O   UNL     1      44.740   4.472   9.229  0.00  0.00    +0.000 OA
BRANCH  13  14
ATOM     14  C   UNL     1      45.406   3.572   8.367  0.00  0.00    +0.000 C 
ATOM     15  F   UNL     1      45.729   2.387   8.929  0.00  0.00    +0.000 F 
ATOM     16  F   UNL     1      44.607   3.325   7.305  0.00  0.00    +0.000 F 
ATOM     17  F   UNL     1      46.544   4.141   7.911  0.00  0.00    +0.000 F 
ENDBRANCH  13  14
ENDBRANCH  11  13
ENDBRANCH   5   7
BRANCH   1  18
ATOM     18  C   UNL     1      48.286   4.283  16.783  0.00  0.00    +0.000 C 
BRANCH  18  19
ATOM     19  O   UNL     1      49.563   4.761  17.215  0.00  0.00    +0.000 OA
BRANCH  19  23
ATOM     20  C   UNL     1      54.008   3.399  18.200  0.00  0.00    +0.000 C 
ATOM     21  C   UNL     1      52.618   2.972  17.836  0.00  0.00    +0.000 A 
ATOM     22  N   UNL     1      51.740   4.001  17.691  0.00  0.00    +0.000 NA
ATOM     23  C   UNL     1      50.461   3.723  17.368  0.00  0.00    +0.000 A 
ATOM     24  C   UNL     1      49.997   2.436  17.182  0.00  0.00    +0.000 A 
ATOM     25  C   UNL     1      50.895   1.377  17.337  0.00  0.00    +0.000 A 
ATOM     26  C   UNL     1      52.233   1.636  17.678  0.00  0.00    +0.000 A 
BRANCH  26  27
ATOM     27  C   UNL     1      53.207   0.523  17.833  0.00  0.00    +0.000 C 
ATOM     28  N   UNL     1      53.631  -0.119  16.703  0.00  0.00    +0.000 N 
ATOM     29  O   UNL     1      53.620   0.158  18.925  0.00  0.00    +0.000 OA
ATOM     30  H   UNL     1      53.186  -0.011  15.800  0.00  0.00    +0.000 HD
ATOM     31  H   UNL     1      54.220  -0.936  16.840  0.00  0.00    +0.000 HD
ENDBRANCH  26  27
ENDBRANCH  19  23
ENDBRANCH  18  19
ENDBRANCH   1  18
TORSDOF 7
ENDMDL
MODEL 6
REMARK VINA RESULT:    -7.689      4.598      9.263
REMARK INTER + INTRA:         -11.372
REMARK INTER:                 -10.485
REMARK INTRA:                  -0.887
REMARK UNBOUND:                -0.536
REMARK  Name = 
REMARK  8 active torsions:
REMARK  status: ('A' for Active; 'I' for Inactive)
REMARK    1  A    between atoms: C_1  and  C_2
REMARK    2  A    between atoms: C_4  and  O_5
REMARK    3  A    between atoms: O_5  and  C_6
REMARK    4  A    between atoms: C_6  and  C_7
REMARK    5  A    between atoms: C_11  and  C_12
REMARK    6  A    between atoms: C_16  and  O_17
REMARK    7  A    between atoms: O_17  and  C_18
REMARK    8  A    between atoms: C_26  and  C_27
REMARK                            x       y       z     vdW  Elec       q    Type
REMARK                         _______ _______ _______ _____ _____    ______ ____
ROOT
ATOM      1  C   UNL     1      47.269   7.078  12.943  0.00  0.00    +0.000 A 
ATOM      2  C   UNL     1      46.559   8.280  12.871  0.00  0.00    +0.000 A 
ATOM      3  C   UNL     1      45.372   8.349  12.147  0.00  0.00    +0.000 A 
ATOM      4  C   UNL     1      44.893   7.219  11.479  0.00  0.00    +0.000 A 
ATOM      5  C   UNL     1      45.578   5.991  11.522  0.00  0.00    +0.000 A 
ATOM      6  C   UNL     1      46.756   5.940  12.294  0.00  0.00    +0.000 A 
ENDROOT
BRANCH   5   7
ATOM      7  C   UNL     1      45.111   4.821  10.749  0.00  0.00    +0.000 A 
ATOM      8  N   UNL     1      44.480   3.832  11.409  0.00  0.00    +0.000 NA
ATOM      9  C   UNL     1      44.098   2.772  10.680  0.00  0.00    +0.000 A 
ATOM     10  C   UNL     1      44.324   2.656   9.330  0.00  0.00    +0.000 A 
ATOM     11  C   UNL     1      45.019   3.691   8.746  0.00  0.00    +0.000 A 
ATOM     12  N   UNL     1      45.392   4.784   9.430  0.00  0.00    +0.000 NA
BRANCH  11  13
ATOM     13  O   UNL     1      45.282   3.789   7.420  0.00  0.00    +0.000 OA
BRANCH  13  14
ATOM     14  C   UNL     1      46.600   3.518   6.991  0.00  0.00    +0.000 C 
ATOM     15  F   UNL     1      47.486   4.510   7.230  0.00  0.00    +0.000 F 
ATOM     16  F   UNL     1      47.037   2.407   7.627  0.00  0.00    +0.000 F 
ATOM     17  F   UNL     1      46.602   3.268   5.664  0.00  0.00    +0.000 F 
ENDBRANCH  13  14
ENDBRANCH  11  13
ENDBRANCH   5   7
BRANCH   1  18
ATOM     18  C   UNL     1      48.604   7.019  13.648  0.00  0.00    +0.000 C 
BRANCH  18  19
ATOM     19  O   UNL     1      48.476   7.413  15.017  0.00  0.00    +0.000 OA
BRANCH  19  23
ATOM     20  C   UNL     1      52.682   6.024  16.736  0.00  0.00    +0.000 C 
ATOM     21  C   UNL     1      51.198   5.817  16.737  0.00  0.00    +0.000 A 
ATOM     22  N   UNL     1      50.517   6.662  15.917  0.00  0.00    +0.000 NA
ATOM     23  C   UNL     1      49.174   6.561  15.850  0.00  0.00    +0.000 A 
ATOM     24  C   UNL     1      48.454   5.639  16.582  0.00  0.00    +0.000 A 
ATOM     25  C   UNL     1      49.150   4.774  17.429  0.00  0.00    +0.000 A 
ATOM     26  C   UNL     1      50.549   4.859  17.525  0.00  0.00    +0.000 A 
BRANCH  26  27
ATOM     27  C   UNL     1      51.309   3.937  18.411  0.00  0.00    +0.000 C 
ATOM     28  N   UNL     1      51.548   2.669  17.960  0.00  0.00    +0.000 N 
ATOM     29  O   UNL     1      51.703   4.267  19.520  0.00  0.00    +0.000 OA
ATOM     30  H   UNL     1      51.085   2.266  17.155  0.00  0.00    +0.000 HD
ATOM     31  H   UNL     1      51.983   2.029  18.619  0.00  0.00    +0.000 HD
ENDBRANCH  26  27
ENDBRANCH  19  23
ENDBRANCH  18  19
ENDBRANCH   1  18
TORSDOF 7
ENDMDL
MODEL 7
REMARK VINA RESULT:    -7.603      4.592      9.060
REMARK INTER + INTRA:         -11.250
REMARK INTER:                 -10.384
REMARK INTRA:                  -0.866
REMARK UNBOUND:                -0.536
REMARK  Name = 
REMARK  8 active torsions:
REMARK  status: ('A' for Active; 'I' for Inactive)
REMARK    1  A    between atoms: C_1  and  C_2
REMARK    2  A    between atoms: C_4  and  O_5
REMARK    3  A    between atoms: O_5  and  C_6
REMARK    4  A    between atoms: C_6  and  C_7
REMARK    5  A    between atoms: C_11  and  C_12
REMARK    6  A    between atoms: C_16  and  O_17
REMARK    7  A    between atoms: O_17  and  C_18
REMARK    8  A    between atoms: C_26  and  C_27
REMARK                            x       y       z     vdW  Elec       q    Type
REMARK                         _______ _______ _______ _____ _____    ______ ____
ROOT
ATOM      1  C   UNL     1      48.069   6.540  14.389  0.00  0.00    +0.000 A 
ATOM      2  C   UNL     1      48.628   7.472  13.509  0.00  0.00    +0.000 A 
ATOM      3  C   UNL     1      48.153   7.575  12.204  0.00  0.00    +0.000 A 
ATOM      4  C   UNL     1      47.124   6.737  11.766  0.00  0.00    +0.000 A 
ATOM      5  C   UNL     1      46.536   5.783  12.617  0.00  0.00    +0.000 A 
ATOM      6  C   UNL     1      47.011   5.728  13.943  0.00  0.00    +0.000 A 
ENDROOT
BRANCH   5   7
ATOM      7  C   UNL     1      45.505   4.846  12.126  0.00  0.00    +0.000 A 
ATOM      8  N   UNL     1      44.863   4.078  13.027  0.00  0.00    +0.000 NA
ATOM      9  C   UNL     1      43.955   3.216  12.543  0.00  0.00    +0.000 A 
ATOM     10  C   UNL     1      43.669   3.085  11.205  0.00  0.00    +0.000 A 
ATOM     11  C   UNL     1      44.407   3.874  10.352  0.00  0.00    +0.000 A 
ATOM     12  N   UNL     1      45.302   4.772  10.796  0.00  0.00    +0.000 NA
BRANCH  11  13
ATOM     13  O   UNL     1      44.226   3.934   9.010  0.00  0.00    +0.000 OA
BRANCH  13  14
ATOM     14  C   UNL     1      45.294   3.513   8.186  0.00  0.00    +0.000 C 
ATOM     15  F   UNL     1      46.289   4.416   8.047  0.00  0.00    +0.000 F 
ATOM     16  F   UNL     1      45.824   2.387   8.714  0.00  0.00    +0.000 F 
ATOM     17  F   UNL     1      44.824   3.216   6.954  0.00  0.00    +0.000 F 
ENDBRANCH  13  14
ENDBRANCH  11  13
ENDBRANCH   5   7
BRANCH   1  18
ATOM     18  C   UNL     1      48.641   6.358  15.775  0.00  0.00    +0.000 C 
BRANCH  18  19
ATOM     19  O   UNL     1      48.287   5.079  16.309  0.00  0.00    +0.000 OA
BRANCH  19  23
ATOM     20  C   UNL     1      52.863   5.270  17.575  0.00  0.00    +0.000 C 
ATOM     21  C   UNL     1      51.642   4.416  17.412  0.00  0.00    +0.000 A 
ATOM     22  N   UNL     1      50.551   5.086  16.954  0.00  0.00    +0.000 NA
ATOM     23  C   UNL     1      49.399   4.408  16.778  0.00  0.00    +0.000 A 
ATOM     24  C   UNL     1      49.274   3.060  17.047  0.00  0.00    +0.000 A 
ATOM     25  C   UNL     1      50.391   2.371  17.524  0.00  0.00    +0.000 A 
ATOM     26  C   UNL     1      51.604   3.052  17.723  0.00  0.00    +0.000 A 
BRANCH  26  27
ATOM     27  C   UNL     1      52.808   2.332  18.216  0.00  0.00    +0.000 C 
ATOM     28  N   UNL     1      53.164   2.504  19.525  0.00  0.00    +0.000 N 
ATOM     29  O   UNL     1      53.488   1.618  17.495  0.00  0.00    +0.000 OA
ATOM     30  H   UNL     1      52.777   3.227  20.118  0.00  0.00    +0.000 HD
ATOM     31  H   UNL     1      54.043   2.081  19.814  0.00  0.00    +0.000 HD
ENDBRANCH  26  27
ENDBRANCH  19  23
ENDBRANCH  18  19
ENDBRANCH   1  18
TORSDOF 7
ENDMDL
MODEL 8
REMARK VINA RESULT:    -6.892      5.206      9.004
REMARK INTER + INTRA:         -10.248
REMARK INTER:                  -9.302
REMARK INTRA:                  -0.946
REMARK UNBOUND:                -0.536
REMARK  Name = 
REMARK  8 active torsions:
REMARK  status: ('A' for Active; 'I' for Inactive)
REMARK    1  A    between atoms: C_1  and  C_2
REMARK    2  A    between atoms: C_4  and  O_5
REMARK    3  A    between atoms: O_5  and  C_6
REMARK    4  A    between atoms: C_6  and  C_7
REMARK    5  A    between atoms: C_11  and  C_12
REMARK    6  A    between atoms: C_16  and  O_17
REMARK    7  A    between atoms: O_17  and  C_18
REMARK    8  A    between atoms: C_26  and  C_27
REMARK                            x       y       z     vdW  Elec       q    Type
REMARK                         _______ _______ _______ _____ _____    ______ ____
ROOT
ATOM      1  C   UNL     1      46.148   4.447  12.970  0.00  0.00    +0.000 A 
ATOM      2  C   UNL     1      45.199   3.675  12.295  0.00  0.00    +0.000 A 
ATOM      3  C   UNL     1      44.298   4.278  11.420  0.00  0.00    +0.000 A 
ATOM      4  C   UNL     1      44.334   5.661  11.225  0.00  0.00    +0.000 A 
ATOM      5  C   UNL     1      45.270   6.477  11.887  0.00  0.00    +0.000 A 
ATOM      6  C   UNL     1      46.193   5.834  12.737  0.00  0.00    +0.000 A 
ENDROOT
BRANCH   5   7
ATOM      7  C   UNL     1      45.252   7.947  11.739  0.00  0.00    +0.000 A 
ATOM      8  N   UNL     1      46.211   8.660  12.358  0.00  0.00    +0.000 NA
ATOM      9  C   UNL     1      46.145   9.995  12.227  0.00  0.00    +0.000 A 
ATOM     10  C   UNL     1      45.163  10.642  11.516  0.00  0.00    +0.000 A 
ATOM     11  C   UNL     1      44.196   9.837  10.957  0.00  0.00    +0.000 A 
ATOM     12  N   UNL     1      44.241   8.497  11.036  0.00  0.00    +0.000 NA
BRANCH  11  13
ATOM     13  O   UNL     1      43.187  10.281  10.169  0.00  0.00    +0.000 OA
BRANCH  13  14
ATOM     14  C   UNL     1      41.938  10.530  10.781  0.00  0.00    +0.000 C 
ATOM     15  F   UNL     1      42.010  11.168  11.969  0.00  0.00    +0.000 F 
ATOM     16  F   UNL     1      41.195  11.289   9.944  0.00  0.00    +0.000 F 
ATOM     17  F   UNL     1      41.288   9.361  10.974  0.00  0.00    +0.000 F 
ENDBRANCH  13  14
ENDBRANCH  11  13
ENDBRANCH   5   7
BRANCH   1  18
ATOM     18  C   UNL     1      47.065   3.814  13.990  0.00  0.00    +0.000 C 
BRANCH  18  19
ATOM     19  O   UNL     1      46.509   3.911  15.304  0.00  0.00    +0.000 OA
BRANCH  19  23
ATOM     20  C   UNL     1      50.345   6.290  16.791  0.00  0.00    +0.000 C 
ATOM     21  C   UNL     1      49.389   5.165  17.051  0.00  0.00    +0.000 A 
ATOM     22  N   UNL     1      48.415   5.034  16.112  0.00  0.00    +0.000 NA
ATOM     23  C   UNL     1      47.500   4.054  16.256  0.00  0.00    +0.000 A 
ATOM     24  C   UNL     1      47.504   3.176  17.322  0.00  0.00    +0.000 A 
ATOM     25  C   UNL     1      48.499   3.313  18.292  0.00  0.00    +0.000 A 
ATOM     26  C   UNL     1      49.462   4.329  18.171  0.00  0.00    +0.000 A 
BRANCH  26  27
ATOM     27  C   UNL     1      50.538   4.481  19.186  0.00  0.00    +0.000 C 
ATOM     28  N   UNL     1      51.678   3.743  19.026  0.00  0.00    +0.000 N 
ATOM     29  O   UNL     1      50.429   5.220  20.154  0.00  0.00    +0.000 OA
ATOM     30  H   UNL     1      51.756   2.972  18.375  0.00  0.00    +0.000 HD
ATOM     31  H   UNL     1      52.357   3.790  19.781  0.00  0.00    +0.000 HD
ENDBRANCH  26  27
ENDBRANCH  19  23
ENDBRANCH  18  19
ENDBRANCH   1  18
TORSDOF 7
ENDMDL
MODEL 9
REMARK VINA RESULT:    -6.889      4.443      9.269
REMARK INTER + INTRA:         -10.245
REMARK INTER:                  -9.105
REMARK INTRA:                  -1.140
REMARK UNBOUND:                -0.536
REMARK  Name = 
REMARK  8 active torsions:
REMARK  status: ('A' for Active; 'I' for Inactive)
REMARK    1  A    between atoms: C_1  and  C_2
REMARK    2  A    between atoms: C_4  and  O_5
REMARK    3  A    between atoms: O_5  and  C_6
REMARK    4  A    between atoms: C_6  and  C_7
REMARK    5  A    between atoms: C_11  and  C_12
REMARK    6  A    between atoms: C_16  and  O_17
REMARK    7  A    between atoms: O_17  and  C_18
REMARK    8  A    between atoms: C_26  and  C_27
REMARK                            x       y       z     vdW  Elec       q    Type
REMARK                         _______ _______ _______ _____ _____    ______ ____
ROOT
ATOM      1  C   UNL     1      48.208   8.330  13.913  0.00  0.00    +0.000 A 
ATOM      2  C   UNL     1      49.154   8.564  12.910  0.00  0.00    +0.000 A 
ATOM      3  C   UNL     1      49.019   7.958  11.664  0.00  0.00    +0.000 A 
ATOM      4  C   UNL     1      47.943   7.103  11.415  0.00  0.00    +0.000 A 
ATOM      5  C   UNL     1      46.970   6.836  12.396  0.00  0.00    +0.000 A 
ATOM      6  C   UNL     1      47.112   7.493  13.636  0.00  0.00    +0.000 A 
ENDROOT
BRANCH   5   7
ATOM      7  C   UNL     1      45.879   5.869  12.156  0.00  0.00    +0.000 A 
ATOM      8  N   UNL     1      45.303   5.283  13.222  0.00  0.00    +0.000 NA
ATOM      9  C   UNL     1      44.336   4.387  12.965  0.00  0.00    +0.000 A 
ATOM     10  C   UNL     1      43.930   4.050  11.697  0.00  0.00    +0.000 A 
ATOM     11  C   UNL     1      44.607   4.661  10.666  0.00  0.00    +0.000 A 
ATOM     12  N   UNL     1      45.557   5.586  10.878  0.00  0.00    +0.000 NA
BRANCH  11  13
ATOM     13  O   UNL     1      44.310   4.508   9.352  0.00  0.00    +0.000 OA
BRANCH  13  14
ATOM     14  C   UNL     1      45.154   3.677   8.582  0.00  0.00    +0.000 C 
ATOM     15  F   UNL     1      45.627   2.594   9.236  0.00  0.00    +0.000 F 
ATOM     16  F   UNL     1      44.460   3.244   7.505  0.00  0.00    +0.000 F 
ATOM     17  F   UNL     1      46.211   4.393   8.139  0.00  0.00    +0.000 F 
ENDBRANCH  13  14
ENDBRANCH  11  13
ENDBRANCH   5   7
BRANCH   1  18
ATOM     18  C   UNL     1      48.399   8.908  15.295  0.00  0.00    +0.000 C 
BRANCH  18  19
ATOM     19  O   UNL     1      49.654   8.502  15.849  0.00  0.00    +0.000 OA
BRANCH  19  23
ATOM     20  C   UNL     1      51.119   4.357  17.652  0.00  0.00    +0.000 C 
ATOM     21  C   UNL     1      50.139   5.487  17.743  0.00  0.00    +0.000 A 
ATOM     22  N   UNL     1      50.314   6.454  16.803  0.00  0.00    +0.000 NA
ATOM     23  C   UNL     1      49.485   7.518  16.802  0.00  0.00    +0.000 A 
ATOM     24  C   UNL     1      48.466   7.675  17.719  0.00  0.00    +0.000 A 
ATOM     25  C   UNL     1      48.288   6.687  18.690  0.00  0.00    +0.000 A 
ATOM     26  C   UNL     1      49.139   5.569  18.720  0.00  0.00    +0.000 A 
BRANCH  26  27
ATOM     27  C   UNL     1      48.956   4.500  19.737  0.00  0.00    +0.000 C 
ATOM     28  N   UNL     1      48.269   3.377  19.368  0.00  0.00    +0.000 N 
ATOM     29  O   UNL     1      49.377   4.601  20.880  0.00  0.00    +0.000 OA
ATOM     30  H   UNL     1      47.723   3.311  18.518  0.00  0.00    +0.000 HD
ATOM     31  H   UNL     1      48.073   2.704  20.104  0.00  0.00    +0.000 HD
ENDBRANCH  26  27
ENDBRANCH  19  23
ENDBRANCH  18  19
ENDBRANCH   1  18
TORSDOF 7
ENDMDL
