MODEL 1
REMARK VINA RESULT:    -7.345      0.000      0.000
REMARK INTER + INTRA:          -9.856
REMARK INTER:                  -9.278
REMARK INTRA:                  -0.578
REMARK UNBOUND:                -0.578
REMARK  Name = 
REMARK  5 active torsions:
REMARK  status: ('A' for Active; 'I' for Inactive)
REMARK    1  A    between atoms: N_1  and  C_2
REMARK    2  A    between atoms: C_2  and  C_3
REMARK    3  A    between atoms: C_6  and  C_7
REMARK    4  A    between atoms: C_7  and  N_8
REMARK    5  A    between atoms: C_13  and  C_14
REMARK                            x       y       z     vdW  Elec       q    Type
REMARK                         _______ _______ _______ _____ _____    ______ ____
ROOT
ATOM      1  N   UNL     1      44.358   4.647  10.486  0.00  0.00    +0.000 N 
ATOM      2  C   UNL     1      43.658   3.576  10.972  0.00  0.00    +0.000 A 
ATOM      3  N   UNL     1      44.004   2.460  10.378  0.00  0.00    +0.000 NA
ATOM      4  C   UNL     1      44.928   2.830   9.435  0.00  0.00    +0.000 A 
ATOM      5  C   UNL     1      45.604   2.026   8.508  0.00  0.00    +0.000 A 
ATOM      6  C   UNL     1      46.470   2.639   7.592  0.00  0.00    +0.000 A 
ATOM      7  C   UNL     1      46.677   4.029   7.639  0.00  0.00    +0.000 A 
ATOM      8  C   UNL     1      46.034   4.841   8.585  0.00  0.00    +0.000 A 
ATOM      9  C   UNL     1      45.157   4.202   9.463  0.00  0.00    +0.000 A 
ENDROOT
BRANCH   6  10
ATOM     10  C   UNL     1      47.181   1.862   6.531  0.00  0.00    +0.000 C 
ATOM     11  N   UNL     1      47.877   2.554   5.579  0.00  0.00    +0.000 N 
ATOM     12  O   UNL     1      47.150   0.641   6.514  0.00  0.00    +0.000 OA
ATOM     13  H   UNL     1      47.981   3.549   5.535  0.00  0.00    +0.000 HD
ATOM     14  H   UNL     1      48.367   1.992   4.894  0.00  0.00    +0.000 HD
ENDBRANCH   6  10
BRANCH   1  15
ATOM     15  C   UNL     1      44.314   5.995  11.015  0.00  0.00    +0.000 C 
BRANCH  15  19
ATOM     16  C   UNL     1      47.297   8.060  12.348  0.00  0.00    +0.000 C 
ATOM     17  C   UNL     1      47.362   6.641  11.763  0.00  0.00    +0.000 C 
ATOM     18  C   UNL     1      46.405   5.685  12.472  0.00  0.00    +0.000 C 
ATOM     19  C   UNL     1      44.942   6.155  12.413  0.00  0.00    +0.000 C 
ATOM     20  C   UNL     1      44.807   7.617  12.886  0.00  0.00    +0.000 C 
ATOM     21  C   UNL     1      45.844   8.571  12.285  0.00  0.00    +0.000 C 
BRANCH  16  22
ATOM     22  C   UNL     1      47.888   8.146  13.773  0.00  0.00    +0.000 C 
BRANCH  22  23
ATOM     23  N   UNL     1      47.235   9.168  14.584  0.00  0.00    +0.000 NA
ATOM     24  H   UNL     1      47.021   9.980  14.003  0.00  0.00    +0.000 HD
ATOM     25  H   UNL     1      47.869   9.504  15.309  0.00  0.00    +0.000 HD
ENDBRANCH  22  23
ENDBRANCH  16  22
ENDBRANCH  15  19
ENDBRANCH   1  15
TORSDOF 5
ENDMDL
MODEL 2
REMARK VINA RESULT:    -6.856      2.616      6.833
REMARK INTER + INTRA:          -9.238
REMARK INTER:                  -8.620
REMARK INTRA:                  -0.618
REMARK UNBOUND:                -0.578
REMARK  Name = 
REMARK  5 active torsions:
REMARK  status: ('A' for Active; 'I' for Inactive)
REMARK    1  A    between atoms: N_1  and  C_2
REMARK    2  A    between atoms: C_2  and  C_3
REMARK    3  A    between atoms: C_6  and  C_7
REMARK    4  A    between atoms: C_7  and  N_8
REMARK    5  A    between atoms: C_13  and  C_14
REMARK                            x       y       z     vdW  Elec       q    Type
REMARK                         _______ _______ _______ _____ _____    ______ ____
ROOT
ATOM      1  N   UNL     1      44.308   4.115  10.849  0.00  0.00    +0.000 N 
ATOM      2  C   UNL     1      42.979   4.419  10.967  0.00  0.00    +0.000 A 
ATOM      3  N   UNL     1      42.797   5.648  11.383  0.00  0.00    +0.000 NA
ATOM      4  C   UNL     1      44.058   6.145  11.590  0.00  0.00    +0.000 A 
ATOM      5  C   UNL     1      44.436   7.411  12.056  0.00  0.00    +0.000 A 
ATOM      6  C   UNL     1      45.799   7.678  12.246  0.00  0.00    +0.000 A 
ATOM      7  C   UNL     1      46.760   6.699  11.934  0.00  0.00    +0.000 A 
ATOM      8  C   UNL     1      46.397   5.440  11.433  0.00  0.00    +0.000 A 
ATOM      9  C   UNL     1      45.030   5.198  11.283  0.00  0.00    +0.000 A 
ENDROOT
BRANCH   6  10
ATOM     10  C   UNL     1      46.282   8.980  12.799  0.00  0.00    +0.000 C 
ATOM     11  N   UNL     1      46.741   9.006  14.087  0.00  0.00    +0.000 N 
ATOM     12  O   UNL     1      46.276   9.996  12.121  0.00  0.00    +0.000 OA
ATOM     13  H   UNL     1      46.810   8.218  14.701  0.00  0.00    +0.000 HD
ATOM     14  H   UNL     1      47.085   9.899  14.416  0.00  0.00    +0.000 HD
ENDBRANCH   6  10
BRANCH   1  15
ATOM     15  C   UNL     1      44.848   2.892  10.290  0.00  0.00    +0.000 C 
BRANCH  15  19
ATOM     16  C   UNL     1      47.155   2.994   7.191  0.00  0.00    +0.000 C 
ATOM     17  C   UNL     1      46.441   4.193   7.832  0.00  0.00    +0.000 C 
ATOM     18  C   UNL     1      44.937   3.963   7.958  0.00  0.00    +0.000 C 
ATOM     19  C   UNL     1      44.593   2.711   8.781  0.00  0.00    +0.000 C 
ATOM     20  C   UNL     1      45.358   1.476   8.263  0.00  0.00    +0.000 C 
ATOM     21  C   UNL     1      46.848   1.722   8.005  0.00  0.00    +0.000 C 
BRANCH  16  22
ATOM     22  C   UNL     1      46.815   2.829   5.692  0.00  0.00    +0.000 C 
BRANCH  22  23
ATOM     23  N   UNL     1      47.985   2.481   4.893  0.00  0.00    +0.000 NA
ATOM     24  H   UNL     1      48.822   2.886   5.317  0.00  0.00    +0.000 HD
ATOM     25  H   UNL     1      47.916   2.898   3.964  0.00  0.00    +0.000 HD
ENDBRANCH  22  23
ENDBRANCH  16  22
ENDBRANCH  15  19
ENDBRANCH   1  15
TORSDOF 5
ENDMDL
MODEL 3
REMARK VINA RESULT:    -5.856      4.843      8.407
REMARK INTER + INTRA:          -7.975
REMARK INTER:                  -7.516
REMARK INTRA:                  -0.459
REMARK UNBOUND:                -0.578
REMARK  Name = 
REMARK  5 active torsions:
REMARK  status: ('A' for Active; 'I' for Inactive)
REMARK    1  A    between atoms: N_1  and  C_2
REMARK    2  A    between atoms: C_2  and  C_3
REMARK    3  A    between atoms: C_6  and  C_7
REMARK    4  A    between atoms: C_7  and  N_8
REMARK    5  A    between atoms: C_13  and  C_14
REMARK                            x       y       z     vdW  Elec       q    Type
REMARK                         _______ _______ _______ _____ _____    ______ ____
ROOT
ATOM      1  N   UNL     1      48.205   6.363  14.407  0.00  0.00    +0.000 N 
ATOM      2  C   UNL     1      48.918   7.520  14.571  0.00  0.00    +0.000 A 
ATOM      3  N   UNL     1      49.435   7.605  15.772  0.00  0.00    +0.000 NA
ATOM      4  C   UNL     1      48.998   6.484  16.429  0.00  0.00    +0.000 A 
ATOM      5  C   UNL     1      49.242   6.091  17.751  0.00  0.00    +0.000 A 
ATOM      6  C   UNL     1      48.636   4.920  18.228  0.00  0.00    +0.000 A 
ATOM      7  C   UNL     1      47.833   4.144  17.373  0.00  0.00    +0.000 A 
ATOM      8  C   UNL     1      47.610   4.506  16.037  0.00  0.00    +0.000 A 
ATOM      9  C   UNL     1      48.204   5.693  15.604  0.00  0.00    +0.000 A 
ENDROOT
BRANCH   6  10
ATOM     10  C   UNL     1      48.794   4.465  19.643  0.00  0.00    +0.000 C 
ATOM     11  N   UNL     1      48.382   3.202  19.967  0.00  0.00    +0.000 N 
ATOM     12  O   UNL     1      49.283   5.196  20.491  0.00  0.00    +0.000 OA
ATOM     13  H   UNL     1      48.001   2.528  19.331  0.00  0.00    +0.000 HD
ATOM     14  H   UNL     1      48.531   2.921  20.927  0.00  0.00    +0.000 HD
ENDBRANCH   6  10
BRANCH   1  15
ATOM     15  C   UNL     1      47.622   5.901  13.164  0.00  0.00    +0.000 C 
BRANCH  15  19
ATOM     16  C   UNL     1      44.956   4.477  10.755  0.00  0.00    +0.000 C 
ATOM     17  C   UNL     1      45.754   5.775  10.563  0.00  0.00    +0.000 C 
ATOM     18  C   UNL     1      45.626   6.708  11.765  0.00  0.00    +0.000 C 
ATOM     19  C   UNL     1      46.091   6.056  13.077  0.00  0.00    +0.000 C 
ATOM     20  C   UNL     1      45.411   4.687  13.291  0.00  0.00    +0.000 C 
ATOM     21  C   UNL     1      45.413   3.784  12.054  0.00  0.00    +0.000 C 
BRANCH  16  22
ATOM     22  C   UNL     1      43.428   4.704  10.717  0.00  0.00    +0.000 C 
BRANCH  22  23
ATOM     23  N   UNL     1      42.692   3.643  11.397  0.00  0.00    +0.000 NA
ATOM     24  H   UNL     1      43.300   2.831  11.522  0.00  0.00    +0.000 HD
ATOM     25  H   UNL     1      41.916   3.322  10.818  0.00  0.00    +0.000 HD
ENDBRANCH  22  23
ENDBRANCH  16  22
ENDBRANCH  15  19
ENDBRANCH   1  15
TORSDOF 5
ENDMDL
MODEL 4
REMARK VINA RESULT:    -5.819      1.966      2.521
REMARK INTER + INTRA:          -7.927
REMARK INTER:                  -7.269
REMARK INTRA:                  -0.659
REMARK UNBOUND:                -0.578
REMARK  Name = 
REMARK  5 active torsions:
REMARK  status: ('A' for Active; 'I' for Inactive)
REMARK    1  A    between atoms: N_1  and  C_2
REMARK    2  A    between atoms: C_2  and  C_3
REMARK    3  A    between atoms: C_6  and  C_7
REMARK    4  A    between atoms: C_7  and  N_8
REMARK    5  A    between atoms: C_13  and  C_14
REMARK                            x       y       z     vdW  Elec       q    Type
REMARK                         _______ _______ _______ _____ _____    ______ ____
ROOT
ATOM      1  N   UNL     1      44.683   6.366  11.996  0.00  0.00    +0.000 N 
ATOM      2  C   UNL     1      43.970   5.738  12.981  0.00  0.00    +0.000 A 
ATOM      3  N   UNL     1      43.852   4.453  12.751  0.00  0.00    +0.000 NA
ATOM      4  C   UNL     1      44.469   4.249  11.544  0.00  0.00    +0.000 A 
ATOM      5  C   UNL     1      44.612   3.057  10.823  0.00  0.00    +0.000 A 
ATOM      6  C   UNL     1      45.238   3.099   9.569  0.00  0.00    +0.000 A 
ATOM      7  C   UNL     1      45.742   4.316   9.074  0.00  0.00    +0.000 A 
ATOM      8  C   UNL     1      45.637   5.510   9.802  0.00  0.00    +0.000 A 
ATOM      9  C   UNL     1      44.984   5.437  11.033  0.00  0.00    +0.000 A 
ENDROOT
BRANCH   6  10
ATOM     10  C   UNL     1      45.374   1.885   8.709  0.00  0.00    +0.000 C 
ATOM     11  N   UNL     1      46.459   1.796   7.881  0.00  0.00    +0.000 N 
ATOM     12  O   UNL     1      44.544   0.989   8.744  0.00  0.00    +0.000 OA
ATOM     13  H   UNL     1      47.200   2.466   7.812  0.00  0.00    +0.000 HD
ATOM     14  H   UNL     1      46.531   0.947   7.335  0.00  0.00    +0.000 HD
ENDBRANCH   6  10
BRANCH   1  15
ATOM     15  C   UNL     1      45.106   7.752  12.014  0.00  0.00    +0.000 C 
BRANCH  15  19
ATOM     16  C   UNL     1      48.888   8.524  11.816  0.00  0.00    +0.000 C 
ATOM     17  C   UNL     1      48.250   7.133  11.944  0.00  0.00    +0.000 C 
ATOM     18  C   UNL     1      47.303   7.046  13.139  0.00  0.00    +0.000 C 
ATOM     19  C   UNL     1      46.170   8.083  13.078  0.00  0.00    +0.000 C 
ATOM     20  C   UNL     1      46.726   9.502  12.842  0.00  0.00    +0.000 C 
ATOM     21  C   UNL     1      47.777   9.589  11.731  0.00  0.00    +0.000 C 
BRANCH  16  22
ATOM     22  C   UNL     1      49.902   8.821  12.944  0.00  0.00    +0.000 C 
BRANCH  22  23
ATOM     23  N   UNL     1      50.941   7.801  13.038  0.00  0.00    +0.000 NA
ATOM     24  H   UNL     1      50.551   6.953  13.454  0.00  0.00    +0.000 HD
ATOM     25  H   UNL     1      51.680   8.106  13.672  0.00  0.00    +0.000 HD
ENDBRANCH  22  23
ENDBRANCH  16  22
ENDBRANCH  15  19
ENDBRANCH   1  15
TORSDOF 5
ENDMDL
MODEL 5
REMARK VINA RESULT:    -5.708      3.047      4.794
REMARK INTER + INTRA:          -7.788
REMARK INTER:                  -7.229
REMARK INTRA:                  -0.559
REMARK UNBOUND:                -0.578
REMARK  Name = 
REMARK  5 active torsions:
REMARK  status: ('A' for Active; 'I' for Inactive)
REMARK    1  A    between atoms: N_1  and  C_2
REMARK    2  A    between atoms: C_2  and  C_3
REMARK    3  A    between atoms: C_6  and  C_7
REMARK    4  A    between atoms: C_7  and  N_8
REMARK    5  A    between atoms: C_13  and  C_14
REMARK                            x       y       z     vdW  Elec       q    Type
REMARK                         _______ _______ _______ _____ _____    ______ ____
ROOT
ATOM      1  N   UNL     1      47.457   6.117  14.002  0.00  0.00    +0.000 N 
ATOM      2  C   UNL     1      47.450   5.078  14.893  0.00  0.00    +0.000 A 
ATOM      3  N   UNL     1      46.771   4.053  14.438  0.00  0.00    +0.000 NA
ATOM      4  C   UNL     1      46.277   4.462  13.227  0.00  0.00    +0.000 A 
ATOM      5  C   UNL     1      45.464   3.759  12.329  0.00  0.00    +0.000 A 
ATOM      6  C   UNL     1      45.029   4.407  11.164  0.00  0.00    +0.000 A 
ATOM      7  C   UNL     1      45.440   5.726  10.897  0.00  0.00    +0.000 A 
ATOM      8  C   UNL     1      46.282   6.429  11.770  0.00  0.00    +0.000 A 
ATOM      9  C   UNL     1      46.673   5.763  12.933  0.00  0.00    +0.000 A 
ENDROOT
BRANCH   6  10
ATOM     10  C   UNL     1      44.110   3.749  10.187  0.00  0.00    +0.000 C 
ATOM     11  N   UNL     1      43.961   4.321   8.953  0.00  0.00    +0.000 N 
ATOM     12  O   UNL     1      43.511   2.725  10.474  0.00  0.00    +0.000 OA
ATOM     13  H   UNL     1      44.435   5.139   8.624  0.00  0.00    +0.000 HD
ATOM     14  H   UNL     1      43.352   3.831   8.310  0.00  0.00    +0.000 HD
ENDBRANCH   6  10
BRANCH   1  15
ATOM     15  C   UNL     1      48.222   7.339  14.138  0.00  0.00    +0.000 C 
BRANCH  15  19
ATOM     16  C   UNL     1      50.404   9.939  12.288  0.00  0.00    +0.000 C 
ATOM     17  C   UNL     1      49.376   8.994  11.648  0.00  0.00    +0.000 C 
ATOM     18  C   UNL     1      49.640   7.534  12.006  0.00  0.00    +0.000 C 
ATOM     19  C   UNL     1      49.634   7.282  13.523  0.00  0.00    +0.000 C 
ATOM     20  C   UNL     1      50.567   8.269  14.255  0.00  0.00    +0.000 C 
ATOM     21  C   UNL     1      50.409   9.727  13.815  0.00  0.00    +0.000 C 
BRANCH  16  22
ATOM     22  C   UNL     1      51.813   9.794  11.670  0.00  0.00    +0.000 C 
BRANCH  22  23
ATOM     23  N   UNL     1      51.803   9.964  10.221  0.00  0.00    +0.000 NA
ATOM     24  H   UNL     1      51.584  10.935   9.991  0.00  0.00    +0.000 HD
ATOM     25  H   UNL     1      51.058   9.405   9.804  0.00  0.00    +0.000 HD
ENDBRANCH  22  23
ENDBRANCH  16  22
ENDBRANCH  15  19
ENDBRANCH   1  15
TORSDOF 5
ENDMDL
MODEL 6
REMARK VINA RESULT:    -5.693      4.138      6.037
REMARK INTER + INTRA:          -7.768
REMARK INTER:                  -7.212
REMARK INTRA:                  -0.556
REMARK UNBOUND:                -0.578
REMARK  Name = 
REMARK  5 active torsions:
REMARK  status: ('A' for Active; 'I' for Inactive)
REMARK    1  A    between atoms: N_1  and  C_2
REMARK    2  A    between atoms: C_2  and  C_3
REMARK    3  A    between atoms: C_6  and  C_7
REMARK    4  A    between atoms: C_7  and  N_8
REMARK    5  A    between atoms: C_13  and  C_14
REMARK                            x       y       z     vdW  Elec       q    Type
REMARK                         _______ _______ _______ _____ _____    ______ ____
ROOT
ATOM      1  N   UNL     1      47.776   6.289  14.033  0.00  0.00    +0.000 N 
ATOM      2  C   UNL     1      47.693   7.559  13.529  0.00  0.00    +0.000 A 
ATOM      3  N   UNL     1      46.745   7.663  12.631  0.00  0.00    +0.000 NA
ATOM      4  C   UNL     1      46.225   6.400  12.512  0.00  0.00    +0.000 A 
ATOM      5  C   UNL     1      45.199   5.949  11.672  0.00  0.00    +0.000 A 
ATOM      6  C   UNL     1      44.872   4.586  11.681  0.00  0.00    +0.000 A 
ATOM      7  C   UNL     1      45.543   3.706  12.550  0.00  0.00    +0.000 A 
ATOM      8  C   UNL     1      46.547   4.151  13.422  0.00  0.00    +0.000 A 
ATOM      9  C   UNL     1      46.867   5.508  13.366  0.00  0.00    +0.000 A 
ENDROOT
BRANCH   6  10
ATOM     10  C   UNL     1      43.834   4.014  10.771  0.00  0.00    +0.000 C 
ATOM     11  N   UNL     1      43.798   4.449   9.475  0.00  0.00    +0.000 N 
ATOM     12  O   UNL     1      43.040   3.175  11.167  0.00  0.00    +0.000 OA
ATOM     13  H   UNL     1      44.428   5.107   9.060  0.00  0.00    +0.000 HD
ATOM     14  H   UNL     1      43.100   4.018   8.883  0.00  0.00    +0.000 HD
ENDBRANCH   6  10
BRANCH   1  15
ATOM     15  C   UNL     1      48.624   5.872  15.132  0.00  0.00    +0.000 C 
BRANCH  15  19
ATOM     16  C   UNL     1      49.631   4.504  18.604  0.00  0.00    +0.000 C 
ATOM     17  C   UNL     1      48.861   3.742  17.515  0.00  0.00    +0.000 C 
ATOM     18  C   UNL     1      47.618   4.502  17.056  0.00  0.00    +0.000 C 
ATOM     19  C   UNL     1      47.943   5.903  16.514  0.00  0.00    +0.000 C 
ATOM     20  C   UNL     1      48.811   6.699  17.510  0.00  0.00    +0.000 C 
ATOM     21  C   UNL     1      49.992   5.910  18.084  0.00  0.00    +0.000 C 
BRANCH  16  22
ATOM     22  C   UNL     1      48.873   4.552  19.949  0.00  0.00    +0.000 C 
BRANCH  22  23
ATOM     23  N   UNL     1      48.356   3.245  20.341  0.00  0.00    +0.000 NA
ATOM     24  H   UNL     1      47.793   3.341  21.190  0.00  0.00    +0.000 HD
ATOM     25  H   UNL     1      49.123   2.619  20.586  0.00  0.00    +0.000 HD
ENDBRANCH  22  23
ENDBRANCH  16  22
ENDBRANCH  15  19
ENDBRANCH   1  15
TORSDOF 5
ENDMDL
MODEL 7
REMARK VINA RESULT:    -5.561      3.152      4.698
REMARK INTER + INTRA:          -7.602
REMARK INTER:                  -6.952
REMARK INTRA:                  -0.651
REMARK UNBOUND:                -0.578
REMARK  Name = 
REMARK  5 active torsions:
REMARK  status: ('A' for Active; 'I' for Inactive)
REMARK    1  A    between atoms: N_1  and  C_2
REMARK    2  A    between atoms: C_2  and  C_3
REMARK    3  A    between atoms: C_6  and  C_7
REMARK    4  A    between atoms: C_7  and  N_8
REMARK    5  A    between atoms: C_13  and  C_14
REMARK                            x       y       z     vdW  Elec       q    Type
REMARK                         _______ _______ _______ _____ _____    ______ ____
ROOT
ATOM      1  N   UNL     1      45.533   8.002  12.442  0.00  0.00    +0.000 N 
ATOM      2  C   UNL     1      44.651   8.684  11.648  0.00  0.00    +0.000 A 
ATOM      3  N   UNL     1      43.826   7.873  11.032  0.00  0.00    +0.000 NA
ATOM      4  C   UNL     1      44.221   6.614  11.402  0.00  0.00    +0.000 A 
ATOM      5  C   UNL     1      43.690   5.378  11.011  0.00  0.00    +0.000 A 
ATOM      6  C   UNL     1      44.300   4.205  11.477  0.00  0.00    +0.000 A 
ATOM      7  C   UNL     1      45.400   4.283  12.351  0.00  0.00    +0.000 A 
ATOM      8  C   UNL     1      45.920   5.513  12.778  0.00  0.00    +0.000 A 
ATOM      9  C   UNL     1      45.306   6.660  12.272  0.00  0.00    +0.000 A 
ENDROOT
BRANCH   6  10
ATOM     10  C   UNL     1      43.835   2.848  11.058  0.00  0.00    +0.000 C 
ATOM     11  N   UNL     1      44.455   2.251   9.995  0.00  0.00    +0.000 N 
ATOM     12  O   UNL     1      42.929   2.281  11.649  0.00  0.00    +0.000 OA
ATOM     13  H   UNL     1      45.222   2.629   9.476  0.00  0.00    +0.000 HD
ATOM     14  H   UNL     1      44.130   1.322   9.759  0.00  0.00    +0.000 HD
ENDBRANCH   6  10
BRANCH   1  15
ATOM     15  C   UNL     1      46.483   8.603  13.357  0.00  0.00    +0.000 C 
BRANCH  15  19
ATOM     16  C   UNL     1      50.283   7.917  13.529  0.00  0.00    +0.000 C 
ATOM     17  C   UNL     1      49.483   8.842  14.458  0.00  0.00    +0.000 C 
ATOM     18  C   UNL     1      48.684   9.884  13.677  0.00  0.00    +0.000 C 
ATOM     19  C   UNL     1      47.702   9.255  12.676  0.00  0.00    +0.000 C 
ATOM     20  C   UNL     1      48.412   8.226  11.771  0.00  0.00    +0.000 C 
ATOM     21  C   UNL     1      49.323   7.251  12.523  0.00  0.00    +0.000 C 
BRANCH  16  22
ATOM     22  C   UNL     1      51.456   8.641  12.830  0.00  0.00    +0.000 C 
BRANCH  22  23
ATOM     23  N   UNL     1      52.084   7.816  11.803  0.00  0.00    +0.000 NA
ATOM     24  H   UNL     1      51.926   6.829  12.013  0.00  0.00    +0.000 HD
ATOM     25  H   UNL     1      53.097   7.943  11.817  0.00  0.00    +0.000 HD
ENDBRANCH  22  23
ENDBRANCH  16  22
ENDBRANCH  15  19
ENDBRANCH   1  15
TORSDOF 5
ENDMDL
MODEL 8
REMARK VINA RESULT:    -5.267      5.845      8.337
REMARK INTER + INTRA:          -7.231
REMARK INTER:                  -6.746
REMARK INTRA:                  -0.485
REMARK UNBOUND:                -0.578
REMARK  Name = 
REMARK  5 active torsions:
REMARK  status: ('A' for Active; 'I' for Inactive)
REMARK    1  A    between atoms: N_1  and  C_2
REMARK    2  A    between atoms: C_2  and  C_3
REMARK    3  A    between atoms: C_6  and  C_7
REMARK    4  A    between atoms: C_7  and  N_8
REMARK    5  A    between atoms: C_13  and  C_14
REMARK                            x       y       z     vdW  Elec       q    Type
REMARK                         _______ _______ _______ _____ _____    ______ ____
ROOT
ATOM      1  N   UNL     1      48.077   4.802  16.288  0.00  0.00    +0.000 N 
ATOM      2  C   UNL     1      48.524   5.994  16.789  0.00  0.00    +0.000 A 
ATOM      3  N   UNL     1      49.694   5.870  17.367  0.00  0.00    +0.000 NA
ATOM      4  C   UNL     1      49.994   4.535  17.281  0.00  0.00    +0.000 A 
ATOM      5  C   UNL     1      51.122   3.857  17.760  0.00  0.00    +0.000 A 
ATOM      6  C   UNL     1      51.187   2.465  17.606  0.00  0.00    +0.000 A 
ATOM      7  C   UNL     1      50.150   1.780  16.946  0.00  0.00    +0.000 A 
ATOM      8  C   UNL     1      49.032   2.451  16.430  0.00  0.00    +0.000 A 
ATOM      9  C   UNL     1      48.987   3.832  16.626  0.00  0.00    +0.000 A 
ENDROOT
BRANCH   6  10
ATOM     10  C   UNL     1      52.324   1.659  18.145  0.00  0.00    +0.000 C 
ATOM     11  N   UNL     1      52.343   0.316  17.892  0.00  0.00    +0.000 N 
ATOM     12  O   UNL     1      53.220   2.183  18.789  0.00  0.00    +0.000 OA
ATOM     13  H   UNL     1      51.670  -0.189  17.348  0.00  0.00    +0.000 HD
ATOM     14  H   UNL     1      53.143  -0.191  18.249  0.00  0.00    +0.000 HD
ENDBRANCH   6  10
BRANCH   1  15
ATOM     15  C   UNL     1      46.890   4.620  15.478  0.00  0.00    +0.000 C 
BRANCH  15  19
ATOM     16  C   UNL     1      45.015   5.784  12.305  0.00  0.00    +0.000 C 
ATOM     17  C   UNL     1      44.772   4.478  13.076  0.00  0.00    +0.000 C 
ATOM     18  C   UNL     1      46.055   3.667  13.245  0.00  0.00    +0.000 C 
ATOM     19  C   UNL     1      47.162   4.447  13.971  0.00  0.00    +0.000 C 
ATOM     20  C   UNL     1      47.393   5.825  13.317  0.00  0.00    +0.000 C 
ATOM     21  C   UNL     1      46.108   6.603  13.019  0.00  0.00    +0.000 C 
BRANCH  16  22
ATOM     22  C   UNL     1      45.341   5.544  10.813  0.00  0.00    +0.000 C 
BRANCH  22  23
ATOM     23  N   UNL     1      44.169   5.133  10.048  0.00  0.00    +0.000 NA
ATOM     24  H   UNL     1      44.206   4.125   9.881  0.00  0.00    +0.000 HD
ATOM     25  H   UNL     1      44.178   5.568   9.125  0.00  0.00    +0.000 HD
ENDBRANCH  22  23
ENDBRANCH  16  22
ENDBRANCH  15  19
ENDBRANCH   1  15
TORSDOF 5
ENDMDL
MODEL 9
REMARK VINA RESULT:    -4.865      4.503      6.573
REMARK INTER + INTRA:          -6.722
REMARK INTER:                  -6.065
REMARK INTRA:                  -0.657
REMARK UNBOUND:                -0.578
REMARK  Name = 
REMARK  5 active torsions:
REMARK  status: ('A' for Active; 'I' for Inactive)
REMARK    1  A    between atoms: N_1  and  C_2
REMARK    2  A    between atoms: C_2  and  C_3
REMARK    3  A    between atoms: C_6  and  C_7
REMARK    4  A    between atoms: C_7  and  N_8
REMARK    5  A    between atoms: C_13  and  C_14
REMARK                            x       y       z     vdW  Elec       q    Type
REMARK                         _______ _______ _______ _____ _____    ______ ____
ROOT
ATOM      1  N   UNL     1      48.348   7.643  13.212  0.00  0.00    +0.000 N 
ATOM      2  C   UNL     1      47.918   8.804  12.627  0.00  0.00    +0.000 A 
ATOM      3  N   UNL     1      46.637   8.764  12.354  0.00  0.00    +0.000 NA
ATOM      4  C   UNL     1      46.231   7.510  12.731  0.00  0.00    +0.000 A 
ATOM      5  C   UNL     1      44.957   6.936  12.637  0.00  0.00    +0.000 A 
ATOM      6  C   UNL     1      44.788   5.602  13.036  0.00  0.00    +0.000 A 
ATOM      7  C   UNL     1      45.878   4.879  13.556  0.00  0.00    +0.000 A 
ATOM      8  C   UNL     1      47.150   5.453  13.688  0.00  0.00    +0.000 A 
ATOM      9  C   UNL     1      47.289   6.773  13.255  0.00  0.00    +0.000 A 
ENDROOT
BRANCH   6  10
ATOM     10  C   UNL     1      43.477   4.896  12.910  0.00  0.00    +0.000 C 
ATOM     11  N   UNL     1      42.453   5.542  12.273  0.00  0.00    +0.000 N 
ATOM     12  O   UNL     1      43.320   3.770  13.356  0.00  0.00    +0.000 OA
ATOM     13  H   UNL     1      42.503   6.449  11.852  0.00  0.00    +0.000 HD
ATOM     14  H   UNL     1      41.590   5.021  12.183  0.00  0.00    +0.000 HD
ENDBRANCH   6  10
BRANCH   1  15
ATOM     15  C   UNL     1      49.671   7.413  13.756  0.00  0.00    +0.000 C 
BRANCH  15  19
ATOM     16  C   UNL     1      50.388   6.324  17.394  0.00  0.00    +0.000 C 
ATOM     17  C   UNL     1      49.006   6.594  16.782  0.00  0.00    +0.000 C 
ATOM     18  C   UNL     1      48.922   7.980  16.146  0.00  0.00    +0.000 C 
ATOM     19  C   UNL     1      49.977   8.195  15.048  0.00  0.00    +0.000 C 
ATOM     20  C   UNL     1      51.390   7.840  15.555  0.00  0.00    +0.000 C 
ATOM     21  C   UNL     1      51.470   6.512  16.313  0.00  0.00    +0.000 C 
BRANCH  16  22
ATOM     22  C   UNL     1      50.661   7.180  18.652  0.00  0.00    +0.000 C 
BRANCH  22  23
ATOM     23  N   UNL     1      51.723   6.622  19.483  0.00  0.00    +0.000 NA
ATOM     24  H   UNL     1      52.622   7.014  19.198  0.00  0.00    +0.000 HD
ATOM     25  H   UNL     1      51.799   5.615  19.333  0.00  0.00    +0.000 HD
ENDBRANCH  22  23
ENDBRANCH  16  22
ENDBRANCH  15  19
ENDBRANCH   1  15
TORSDOF 5
ENDMDL
