MODEL 1
REMARK VINA RESULT:    -7.797      0.000      0.000
REMARK INTER + INTRA:         -12.117
REMARK INTER:                 -10.987
REMARK INTRA:                  -1.130
REMARK UNBOUND:                -1.130
REMARK  Name = 
REMARK  7 active torsions:
REMARK  status: ('A' for Active; 'I' for Inactive)
REMARK    1  A    between atoms: C_2  and  C_3
REMARK    2  A    between atoms: C_7  and  C_8
REMARK    3  A    between atoms: C_8  and  C_9
REMARK    4  A    between atoms: C_9  and  C_10
REMARK    5  A    between atoms: C_12  and  C_13
REMARK    6  A    between atoms: C_17  and  O_18
REMARK    7  A    between atoms: O_18  and  C_19
REMARK                            x       y       z     vdW  Elec       q    Type
REMARK                         _______ _______ _______ _____ _____    ______ ____
ROOT
ATOM      1  C   UNL     1      45.377   4.575  12.099  0.00  0.00    +0.000 A 
ATOM      2  C   UNL     1      45.980   5.793  11.776  0.00  0.00    +0.000 A 
ATOM      3  C   UNL     1      47.076   6.278  12.505  0.00  0.00    +0.000 A 
ATOM      4  C   UNL     1      47.518   5.499  13.578  0.00  0.00    +0.000 A 
ATOM      5  C   UNL     1      46.883   4.300  13.848  0.00  0.00    +0.000 A 
ATOM      6  N   UNL     1      45.849   3.826  13.128  0.00  0.00    +0.000 NA
ENDROOT
BRANCH   3   7
ATOM      7  C   UNL     1      47.707   7.569  12.171  0.00  0.00    +0.000 A 
ATOM      8  C   UNL     1      46.974   8.760  12.179  0.00  0.00    +0.000 A 
ATOM      9  N   UNL     1      47.473   9.980  11.879  0.00  0.00    +0.000 NA
ATOM     10  C   UNL     1      48.781  10.028  11.541  0.00  0.00    +0.000 A 
ATOM     11  C   UNL     1      49.620   8.924  11.512  0.00  0.00    +0.000 A 
ATOM     12  C   UNL     1      49.067   7.680  11.816  0.00  0.00    +0.000 A 
BRANCH  11  13
ATOM     13  O   UNL     1      50.911   9.171  11.151  0.00  0.00    +0.000 OA
BRANCH  13  14
ATOM     14  C   UNL     1      51.769   8.046  11.087  0.00  0.00    +0.000 C 
ATOM     15  F   UNL     1      51.688   7.509   9.845  0.00  0.00    +0.000 F 
ATOM     16  F   UNL     1      53.036   8.502  11.238  0.00  0.00    +0.000 F 
ENDBRANCH  13  14
ENDBRANCH  11  13
ENDBRANCH   3   7
BRANCH   1  17
ATOM     17  C   UNL     1      44.117   4.093  11.374  0.00  0.00    +0.000 C 
ATOM     18  C   UNL     1      43.373   2.895  11.955  0.00  0.00    +0.000 C 
ATOM     19  C   UNL     1      42.806   4.268  12.134  0.00  0.00    +0.000 C 
BRANCH  17  20
ATOM     20  C   UNL     1      44.030   4.361   9.880  0.00  0.00    +0.000 C 
BRANCH  20  25
ATOM     21  C   UNL     1      46.341   1.986   7.992  0.00  0.00    +0.000 A 
ATOM     22  C   UNL     1      46.977   2.918   7.186  0.00  0.00    +0.000 A 
ATOM     23  N   UNL     1      46.774   4.252   7.282  0.00  0.00    +0.000 NA
ATOM     24  C   UNL     1      45.865   4.664   8.195  0.00  0.00    +0.000 A 
ATOM     25  C   UNL     1      45.159   3.813   9.046  0.00  0.00    +0.000 A 
ATOM     26  C   UNL     1      45.432   2.444   8.947  0.00  0.00    +0.000 A 
BRANCH  21  28
ATOM     27  N   UNL     1      46.766  -0.540   7.636  0.00  0.00    +0.000 NA
ATOM     28  C   UNL     1      46.566   0.591   7.803  0.00  0.00    +0.000 C 
ENDBRANCH  21  28
ENDBRANCH  20  25
ENDBRANCH  17  20
ENDBRANCH   1  17
TORSDOF 7
ENDMDL
MODEL 2
REMARK VINA RESULT:    -7.483      2.882      3.361
REMARK INTER + INTRA:         -11.675
REMARK INTER:                 -10.533
REMARK INTRA:                  -1.142
REMARK UNBOUND:                -1.130
REMARK  Name = 
REMARK  7 active torsions:
REMARK  status: ('A' for Active; 'I' for Inactive)
REMARK    1  A    between atoms: C_2  and  C_3
REMARK    2  A    between atoms: C_7  and  C_8
REMARK    3  A    between atoms: C_8  and  C_9
REMARK    4  A    between atoms: C_9  and  C_10
REMARK    5  A    between atoms: C_12  and  C_13
REMARK    6  A    between atoms: C_17  and  O_18
REMARK    7  A    between atoms: O_18  and  C_19
REMARK                            x       y       z     vdW  Elec       q    Type
REMARK                         _______ _______ _______ _____ _____    ______ ____
ROOT
ATOM      1  C   UNL     1      44.799   5.751  11.856  0.00  0.00    +0.000 A 
ATOM      2  C   UNL     1      46.028   5.989  12.476  0.00  0.00    +0.000 A 
ATOM      3  C   UNL     1      46.538   7.290  12.605  0.00  0.00    +0.000 A 
ATOM      4  C   UNL     1      45.772   8.327  12.066  0.00  0.00    +0.000 A 
ATOM      5  C   UNL     1      44.562   8.030  11.466  0.00  0.00    +0.000 A 
ATOM      6  N   UNL     1      44.063   6.783  11.370  0.00  0.00    +0.000 NA
ENDROOT
BRANCH   3   7
ATOM      7  C   UNL     1      47.842   7.541  13.250  0.00  0.00    +0.000 A 
ATOM      8  C   UNL     1      48.670   8.588  12.833  0.00  0.00    +0.000 A 
ATOM      9  N   UNL     1      49.878   8.880  13.364  0.00  0.00    +0.000 NA
ATOM     10  C   UNL     1      50.301   8.081  14.369  0.00  0.00    +0.000 A 
ATOM     11  C   UNL     1      49.569   7.023  14.886  0.00  0.00    +0.000 A 
ATOM     12  C   UNL     1      48.332   6.744  14.304  0.00  0.00    +0.000 A 
BRANCH  11  13
ATOM     13  O   UNL     1      50.161   6.334  15.902  0.00  0.00    +0.000 OA
BRANCH  13  14
ATOM     14  C   UNL     1      49.290   5.784  16.875  0.00  0.00    +0.000 C 
ATOM     15  F   UNL     1      49.640   4.492  17.088  0.00  0.00    +0.000 F 
ATOM     16  F   UNL     1      49.516   6.450  18.034  0.00  0.00    +0.000 F 
ENDBRANCH  13  14
ENDBRANCH  11  13
ENDBRANCH   3   7
BRANCH   1  17
ATOM     17  C   UNL     1      44.288   4.327  11.621  0.00  0.00    +0.000 C 
ATOM     18  C   UNL     1      44.781   3.228  12.559  0.00  0.00    +0.000 C 
ATOM     19  C   UNL     1      43.390   3.756  12.715  0.00  0.00    +0.000 C 
BRANCH  17  20
ATOM     20  C   UNL     1      43.882   3.959  10.203  0.00  0.00    +0.000 C 
BRANCH  20  25
ATOM     21  C   UNL     1      46.262   1.903   8.046  0.00  0.00    +0.000 A 
ATOM     22  C   UNL     1      46.782   2.934   7.278  0.00  0.00    +0.000 A 
ATOM     23  N   UNL     1      46.486   4.239   7.478  0.00  0.00    +0.000 NA
ATOM     24  C   UNL     1      45.598   4.517   8.460  0.00  0.00    +0.000 A 
ATOM     25  C   UNL     1      45.003   3.558   9.280  0.00  0.00    +0.000 A 
ATOM     26  C   UNL     1      45.372   2.224   9.072  0.00  0.00    +0.000 A 
BRANCH  21  28
ATOM     27  N   UNL     1      46.817  -0.563   7.500  0.00  0.00    +0.000 NA
ATOM     28  C   UNL     1      46.580   0.546   7.748  0.00  0.00    +0.000 C 
ENDBRANCH  21  28
ENDBRANCH  20  25
ENDBRANCH  17  20
ENDBRANCH   1  17
TORSDOF 7
ENDMDL
MODEL 3
REMARK VINA RESULT:    -7.320      3.542      7.520
REMARK INTER + INTRA:         -11.444
REMARK INTER:                 -10.231
REMARK INTRA:                  -1.213
REMARK UNBOUND:                -1.130
REMARK  Name = 
REMARK  7 active torsions:
REMARK  status: ('A' for Active; 'I' for Inactive)
REMARK    1  A    between atoms: C_2  and  C_3
REMARK    2  A    between atoms: C_7  and  C_8
REMARK    3  A    between atoms: C_8  and  C_9
REMARK    4  A    between atoms: C_9  and  C_10
REMARK    5  A    between atoms: C_12  and  C_13
REMARK    6  A    between atoms: C_17  and  O_18
REMARK    7  A    between atoms: O_18  and  C_19
REMARK                            x       y       z     vdW  Elec       q    Type
REMARK                         _______ _______ _______ _____ _____    ______ ____
ROOT
ATOM      1  C   UNL     1      47.476   7.781  12.408  0.00  0.00    +0.000 A 
ATOM      2  C   UNL     1      47.087   6.660  11.669  0.00  0.00    +0.000 A 
ATOM      3  C   UNL     1      45.740   6.433  11.350  0.00  0.00    +0.000 A 
ATOM      4  C   UNL     1      44.810   7.364  11.821  0.00  0.00    +0.000 A 
ATOM      5  C   UNL     1      45.256   8.455  12.545  0.00  0.00    +0.000 A 
ATOM      6  N   UNL     1      46.553   8.684  12.826  0.00  0.00    +0.000 NA
ENDROOT
BRANCH   3   7
ATOM      7  C   UNL     1      45.327   5.244  10.579  0.00  0.00    +0.000 A 
ATOM      8  C   UNL     1      44.629   4.193  11.182  0.00  0.00    +0.000 A 
ATOM      9  N   UNL     1      44.222   3.069  10.551  0.00  0.00    +0.000 NA
ATOM     10  C   UNL     1      44.529   2.973   9.239  0.00  0.00    +0.000 A 
ATOM     11  C   UNL     1      45.200   3.951   8.520  0.00  0.00    +0.000 A 
ATOM     12  C   UNL     1      45.615   5.091   9.208  0.00  0.00    +0.000 A 
BRANCH  11  13
ATOM     13  O   UNL     1      45.415   3.674   7.203  0.00  0.00    +0.000 OA
BRANCH  13  14
ATOM     14  C   UNL     1      46.760   3.443   6.824  0.00  0.00    +0.000 C 
ATOM     15  F   UNL     1      47.236   2.393   7.538  0.00  0.00    +0.000 F 
ATOM     16  F   UNL     1      46.749   3.063   5.523  0.00  0.00    +0.000 F 
ENDBRANCH  13  14
ENDBRANCH  11  13
ENDBRANCH   3   7
BRANCH   1  17
ATOM     17  C   UNL     1      48.930   7.978  12.848  0.00  0.00    +0.000 C 
ATOM     18  C   UNL     1      50.006   7.154  12.148  0.00  0.00    +0.000 C 
ATOM     19  C   UNL     1      49.857   8.603  11.811  0.00  0.00    +0.000 C 
BRANCH  17  20
ATOM     20  C   UNL     1      49.167   8.438  14.278  0.00  0.00    +0.000 C 
BRANCH  20  25
ATOM     21  C   UNL     1      48.561   5.344  16.424  0.00  0.00    +0.000 A 
ATOM     22  C   UNL     1      49.857   5.157  16.880  0.00  0.00    +0.000 A 
ATOM     23  N   UNL     1      50.874   6.009  16.617  0.00  0.00    +0.000 NA
ATOM     24  C   UNL     1      50.588   7.070  15.827  0.00  0.00    +0.000 A 
ATOM     25  C   UNL     1      49.325   7.346  15.303  0.00  0.00    +0.000 A 
ATOM     26  C   UNL     1      48.290   6.465  15.638  0.00  0.00    +0.000 A 
BRANCH  21  28
ATOM     27  N   UNL     1      46.739   3.579  16.928  0.00  0.00    +0.000 NA
ATOM     28  C   UNL     1      47.548   4.380  16.699  0.00  0.00    +0.000 C 
ENDBRANCH  21  28
ENDBRANCH  20  25
ENDBRANCH  17  20
ENDBRANCH   1  17
TORSDOF 7
ENDMDL
MODEL 4
REMARK VINA RESULT:    -7.136      3.852      7.748
REMARK INTER + INTRA:         -11.186
REMARK INTER:                  -9.963
REMARK INTRA:                  -1.223
REMARK UNBOUND:                -1.130
REMARK  Name = 
REMARK  7 active torsions:
REMARK  status: ('A' for Active; 'I' for Inactive)
REMARK    1  A    between atoms: C_2  and  C_3
REMARK    2  A    between atoms: C_7  and  C_8
REMARK    3  A    between atoms: C_8  and  C_9
REMARK    4  A    between atoms: C_9  and  C_10
REMARK    5  A    between atoms: C_12  and  C_13
REMARK    6  A    between atoms: C_17  and  O_18
REMARK    7  A    between atoms: O_18  and  C_19
REMARK                            x       y       z     vdW  Elec       q    Type
REMARK                         _______ _______ _______ _____ _____    ______ ____
ROOT
ATOM      1  C   UNL     1      47.396   7.887  12.411  0.00  0.00    +0.000 A 
ATOM      2  C   UNL     1      46.802   6.631  12.271  0.00  0.00    +0.000 A 
ATOM      3  C   UNL     1      45.439   6.502  11.962  0.00  0.00    +0.000 A 
ATOM      4  C   UNL     1      44.706   7.683  11.823  0.00  0.00    +0.000 A 
ATOM      5  C   UNL     1      45.351   8.898  11.969  0.00  0.00    +0.000 A 
ATOM      6  N   UNL     1      46.665   9.017  12.239  0.00  0.00    +0.000 NA
ENDROOT
BRANCH   3   7
ATOM      7  C   UNL     1      44.808   5.175  11.825  0.00  0.00    +0.000 A 
ATOM      8  C   UNL     1      44.104   4.592  12.883  0.00  0.00    +0.000 A 
ATOM      9  N   UNL     1      43.505   3.381  12.843  0.00  0.00    +0.000 NA
ATOM     10  C   UNL     1      43.613   2.696  11.683  0.00  0.00    +0.000 A 
ATOM     11  C   UNL     1      44.267   3.169  10.555  0.00  0.00    +0.000 A 
ATOM     12  C   UNL     1      44.884   4.418  10.639  0.00  0.00    +0.000 A 
BRANCH  11  13
ATOM     13  O   UNL     1      44.267   2.335   9.477  0.00  0.00    +0.000 OA
BRANCH  13  14
ATOM     14  C   UNL     1      45.494   2.213   8.780  0.00  0.00    +0.000 C 
ATOM     15  F   UNL     1      45.675   0.913   8.447  0.00  0.00    +0.000 F 
ATOM     16  F   UNL     1      45.365   2.904   7.621  0.00  0.00    +0.000 F 
ENDBRANCH  13  14
ENDBRANCH  11  13
ENDBRANCH   3   7
BRANCH   1  17
ATOM     17  C   UNL     1      48.856   8.033  12.850  0.00  0.00    +0.000 C 
ATOM     18  C   UNL     1      49.900   7.163  12.157  0.00  0.00    +0.000 C 
ATOM     19  C   UNL     1      49.807   8.614  11.809  0.00  0.00    +0.000 C 
BRANCH  17  20
ATOM     20  C   UNL     1      49.110   8.495  14.276  0.00  0.00    +0.000 C 
BRANCH  20  25
ATOM     21  C   UNL     1      48.589   5.401  16.446  0.00  0.00    +0.000 A 
ATOM     22  C   UNL     1      49.901   5.217  16.855  0.00  0.00    +0.000 A 
ATOM     23  N   UNL     1      50.906   6.070  16.554  0.00  0.00    +0.000 NA
ATOM     24  C   UNL     1      50.589   7.130  15.775  0.00  0.00    +0.000 A 
ATOM     25  C   UNL     1      49.307   7.403  15.297  0.00  0.00    +0.000 A 
ATOM     26  C   UNL     1      48.288   6.521  15.669  0.00  0.00    +0.000 A 
BRANCH  21  28
ATOM     27  N   UNL     1      46.784   3.634  16.998  0.00  0.00    +0.000 NA
ATOM     28  C   UNL     1      47.589   4.435  16.759  0.00  0.00    +0.000 C 
ENDBRANCH  21  28
ENDBRANCH  20  25
ENDBRANCH  17  20
ENDBRANCH   1  17
TORSDOF 7
ENDMDL
MODEL 5
REMARK VINA RESULT:    -6.864      2.008      2.202
REMARK INTER + INTRA:         -10.802
REMARK INTER:                 -10.271
REMARK INTRA:                  -0.531
REMARK UNBOUND:                -1.130
REMARK  Name = 
REMARK  7 active torsions:
REMARK  status: ('A' for Active; 'I' for Inactive)
REMARK    1  A    between atoms: C_2  and  C_3
REMARK    2  A    between atoms: C_7  and  C_8
REMARK    3  A    between atoms: C_8  and  C_9
REMARK    4  A    between atoms: C_9  and  C_10
REMARK    5  A    between atoms: C_12  and  C_13
REMARK    6  A    between atoms: C_17  and  O_18
REMARK    7  A    between atoms: O_18  and  C_19
REMARK                            x       y       z     vdW  Elec       q    Type
REMARK                         _______ _______ _______ _____ _____    ______ ____
ROOT
ATOM      1  C   UNL     1      45.204   4.712  12.342  0.00  0.00    +0.000 A 
ATOM      2  C   UNL     1      46.071   5.804  12.246  0.00  0.00    +0.000 A 
ATOM      3  C   UNL     1      47.292   5.826  12.937  0.00  0.00    +0.000 A 
ATOM      4  C   UNL     1      47.587   4.720  13.738  0.00  0.00    +0.000 A 
ATOM      5  C   UNL     1      46.692   3.668  13.791  0.00  0.00    +0.000 A 
ATOM      6  N   UNL     1      45.533   3.639  13.104  0.00  0.00    +0.000 NA
ENDROOT
BRANCH   3   7
ATOM      7  C   UNL     1      48.202   6.984  12.844  0.00  0.00    +0.000 A 
ATOM      8  C   UNL     1      48.214   7.811  11.716  0.00  0.00    +0.000 A 
ATOM      9  N   UNL     1      49.020   8.883  11.550  0.00  0.00    +0.000 NA
ATOM     10  C   UNL     1      49.876   9.154  12.560  0.00  0.00    +0.000 A 
ATOM     11  C   UNL     1      49.951   8.424  13.736  0.00  0.00    +0.000 A 
ATOM     12  C   UNL     1      49.112   7.316  13.867  0.00  0.00    +0.000 A 
BRANCH  11  13
ATOM     13  O   UNL     1      50.876   8.852  14.641  0.00  0.00    +0.000 OA
BRANCH  13  14
ATOM     14  C   UNL     1      51.048   8.043  15.791  0.00  0.00    +0.000 C 
ATOM     15  F   UNL     1      51.790   6.961  15.452  0.00  0.00    +0.000 F 
ATOM     16  F   UNL     1      51.779   8.760  16.679  0.00  0.00    +0.000 F 
ENDBRANCH  13  14
ENDBRANCH  11  13
ENDBRANCH   3   7
BRANCH   1  17
ATOM     17  C   UNL     1      43.826   4.728  11.675  0.00  0.00    +0.000 C 
ATOM     18  C   UNL     1      42.649   5.272  12.480  0.00  0.00    +0.000 C 
ATOM     19  C   UNL     1      43.243   6.109  11.392  0.00  0.00    +0.000 C 
BRANCH  17  20
ATOM     20  C   UNL     1      43.565   3.690  10.595  0.00  0.00    +0.000 C 
BRANCH  20  25
ATOM     21  C   UNL     1      46.070   2.042   8.238  0.00  0.00    +0.000 A 
ATOM     22  C   UNL     1      46.428   3.164   7.506  0.00  0.00    +0.000 A 
ATOM     23  N   UNL     1      45.988   4.412   7.785  0.00  0.00    +0.000 NA
ATOM     24  C   UNL     1      45.119   4.533   8.816  0.00  0.00    +0.000 A 
ATOM     25  C   UNL     1      44.682   3.472   9.608  0.00  0.00    +0.000 A 
ATOM     26  C   UNL     1      45.197   2.204   9.315  0.00  0.00    +0.000 A 
BRANCH  21  28
ATOM     27  N   UNL     1      46.892  -0.307   7.534  0.00  0.00    +0.000 NA
ATOM     28  C   UNL     1      46.533   0.749   7.857  0.00  0.00    +0.000 C 
ENDBRANCH  21  28
ENDBRANCH  20  25
ENDBRANCH  17  20
ENDBRANCH   1  17
TORSDOF 7
ENDMDL
MODEL 6
REMARK VINA RESULT:    -6.690      4.769      8.124
REMARK INTER + INTRA:         -10.557
REMARK INTER:                  -9.455
REMARK INTRA:                  -1.102
REMARK UNBOUND:                -1.130
REMARK  Name = 
REMARK  7 active torsions:
REMARK  status: ('A' for Active; 'I' for Inactive)
REMARK    1  A    between atoms: C_2  and  C_3
REMARK    2  A    between atoms: C_7  and  C_8
REMARK    3  A    between atoms: C_8  and  C_9
REMARK    4  A    between atoms: C_9  and  C_10
REMARK    5  A    between atoms: C_12  and  C_13
REMARK    6  A    between atoms: C_17  and  O_18
REMARK    7  A    between atoms: O_18  and  C_19
REMARK                            x       y       z     vdW  Elec       q    Type
REMARK                         _______ _______ _______ _____ _____    ______ ____
ROOT
ATOM      1  C   UNL     1      48.652   6.417  15.121  0.00  0.00    +0.000 A 
ATOM      2  C   UNL     1      47.513   5.777  14.623  0.00  0.00    +0.000 A 
ATOM      3  C   UNL     1      47.200   5.811  13.256  0.00  0.00    +0.000 A 
ATOM      4  C   UNL     1      48.063   6.530  12.425  0.00  0.00    +0.000 A 
ATOM      5  C   UNL     1      49.176   7.139  12.975  0.00  0.00    +0.000 A 
ATOM      6  N   UNL     1      49.489   7.080  14.284  0.00  0.00    +0.000 NA
ENDROOT
BRANCH   3   7
ATOM      7  C   UNL     1      45.992   5.146  12.732  0.00  0.00    +0.000 A 
ATOM      8  C   UNL     1      45.058   4.553  13.588  0.00  0.00    +0.000 A 
ATOM      9  N   UNL     1      43.933   3.919  13.189  0.00  0.00    +0.000 NA
ATOM     10  C   UNL     1      43.718   3.859  11.856  0.00  0.00    +0.000 A 
ATOM     11  C   UNL     1      44.556   4.420  10.904  0.00  0.00    +0.000 A 
ATOM     12  C   UNL     1      45.713   5.056  11.353  0.00  0.00    +0.000 A 
BRANCH  11  13
ATOM     13  O   UNL     1      44.169   4.259   9.607  0.00  0.00    +0.000 OA
BRANCH  13  14
ATOM     14  C   UNL     1      45.051   3.521   8.779  0.00  0.00    +0.000 C 
ATOM     15  F   UNL     1      45.113   2.248   9.239  0.00  0.00    +0.000 F 
ATOM     16  F   UNL     1      44.490   3.467   7.546  0.00  0.00    +0.000 F 
ENDBRANCH  13  14
ENDBRANCH  11  13
ENDBRANCH   3   7
BRANCH   1  17
ATOM     17  C   UNL     1      48.942   6.470  16.623  0.00  0.00    +0.000 C 
ATOM     18  C   UNL     1      50.053   7.399  17.103  0.00  0.00    +0.000 C 
ATOM     19  C   UNL     1      48.626   7.794  17.312  0.00  0.00    +0.000 C 
BRANCH  17  20
ATOM     20  C   UNL     1      48.613   5.230  17.439  0.00  0.00    +0.000 C 
BRANCH  20  25
ATOM     21  C   UNL     1      51.427   2.663  17.624  0.00  0.00    +0.000 A 
ATOM     22  C   UNL     1      50.790   1.616  16.976  0.00  0.00    +0.000 A 
ATOM     23  N   UNL     1      49.566   1.720  16.411  0.00  0.00    +0.000 NA
ATOM     24  C   UNL     1      48.937   2.911  16.539  0.00  0.00    +0.000 A 
ATOM     25  C   UNL     1      49.479   4.024  17.182  0.00  0.00    +0.000 A 
ATOM     26  C   UNL     1      50.766   3.889  17.712  0.00  0.00    +0.000 A 
BRANCH  21  28
ATOM     27  N   UNL     1      53.723   2.307  18.761  0.00  0.00    +0.000 NA
ATOM     28  C   UNL     1      52.698   2.469  18.240  0.00  0.00    +0.000 C 
ENDBRANCH  21  28
ENDBRANCH  20  25
ENDBRANCH  17  20
ENDBRANCH   1  17
TORSDOF 7
ENDMDL
MODEL 7
REMARK VINA RESULT:    -6.309      4.198      8.125
REMARK INTER + INTRA:         -10.020
REMARK INTER:                  -8.931
REMARK INTRA:                  -1.089
REMARK UNBOUND:                -1.130
REMARK  Name = 
REMARK  7 active torsions:
REMARK  status: ('A' for Active; 'I' for Inactive)
REMARK    1  A    between atoms: C_2  and  C_3
REMARK    2  A    between atoms: C_7  and  C_8
REMARK    3  A    between atoms: C_8  and  C_9
REMARK    4  A    between atoms: C_9  and  C_10
REMARK    5  A    between atoms: C_12  and  C_13
REMARK    6  A    between atoms: C_17  and  O_18
REMARK    7  A    between atoms: O_18  and  C_19
REMARK                            x       y       z     vdW  Elec       q    Type
REMARK                         _______ _______ _______ _____ _____    ______ ____
ROOT
ATOM      1  C   UNL     1      47.568   8.559  12.189  0.00  0.00    +0.000 A 
ATOM      2  C   UNL     1      46.892   7.361  11.944  0.00  0.00    +0.000 A 
ATOM      3  C   UNL     1      45.509   7.340  11.713  0.00  0.00    +0.000 A 
ATOM      4  C   UNL     1      44.840   8.566  11.760  0.00  0.00    +0.000 A 
ATOM      5  C   UNL     1      45.563   9.720  12.004  0.00  0.00    +0.000 A 
ATOM      6  N   UNL     1      46.895   9.738  12.198  0.00  0.00    +0.000 NA
ENDROOT
BRANCH   3   7
ATOM      7  C   UNL     1      44.793   6.074  11.465  0.00  0.00    +0.000 A 
ATOM      8  C   UNL     1      43.434   5.936  11.766  0.00  0.00    +0.000 A 
ATOM      9  N   UNL     1      42.709   4.811  11.577  0.00  0.00    +0.000 NA
ATOM     10  C   UNL     1      43.369   3.749  11.064  0.00  0.00    +0.000 A 
ATOM     11  C   UNL     1      44.709   3.761  10.708  0.00  0.00    +0.000 A 
ATOM     12  C   UNL     1      45.429   4.936  10.929  0.00  0.00    +0.000 A 
BRANCH  11  13
ATOM     13  O   UNL     1      45.198   2.593  10.203  0.00  0.00    +0.000 OA
BRANCH  13  14
ATOM     14  C   UNL     1      44.567   2.107   9.032  0.00  0.00    +0.000 C 
ATOM     15  F   UNL     1      44.696   3.035   8.053  0.00  0.00    +0.000 F 
ATOM     16  F   UNL     1      45.260   1.012   8.631  0.00  0.00    +0.000 F 
ENDBRANCH  13  14
ENDBRANCH  11  13
ENDBRANCH   3   7
BRANCH   1  17
ATOM     17  C   UNL     1      49.057   8.575  12.545  0.00  0.00    +0.000 C 
ATOM     18  C   UNL     1      49.999   7.710  11.714  0.00  0.00    +0.000 C 
ATOM     19  C   UNL     1      49.982   9.190  11.498  0.00  0.00    +0.000 C 
BRANCH  17  20
ATOM     20  C   UNL     1      49.424   8.891  13.986  0.00  0.00    +0.000 C 
BRANCH  20  25
ATOM     21  C   UNL     1      51.358   6.539  16.282  0.00  0.00    +0.000 A 
ATOM     22  C   UNL     1      50.298   5.752  16.708  0.00  0.00    +0.000 A 
ATOM     23  N   UNL     1      49.038   5.875  16.233  0.00  0.00    +0.000 NA
ATOM     24  C   UNL     1      48.824   6.856  15.325  0.00  0.00    +0.000 A 
ATOM     25  C   UNL     1      49.813   7.711  14.840  0.00  0.00    +0.000 A 
ATOM     26  C   UNL     1      51.112   7.521  15.322  0.00  0.00    +0.000 A 
BRANCH  21  28
ATOM     27  N   UNL     1      53.712   6.253  17.316  0.00  0.00    +0.000 NA
ATOM     28  C   UNL     1      52.652   6.387  16.862  0.00  0.00    +0.000 C 
ENDBRANCH  21  28
ENDBRANCH  20  25
ENDBRANCH  17  20
ENDBRANCH   1  17
TORSDOF 7
ENDMDL
MODEL 8
REMARK VINA RESULT:    -6.172      3.481      7.902
REMARK INTER + INTRA:          -9.828
REMARK INTER:                  -8.839
REMARK INTRA:                  -0.988
REMARK UNBOUND:                -1.130
REMARK  Name = 
REMARK  7 active torsions:
REMARK  status: ('A' for Active; 'I' for Inactive)
REMARK    1  A    between atoms: C_2  and  C_3
REMARK    2  A    between atoms: C_7  and  C_8
REMARK    3  A    between atoms: C_8  and  C_9
REMARK    4  A    between atoms: C_9  and  C_10
REMARK    5  A    between atoms: C_12  and  C_13
REMARK    6  A    between atoms: C_17  and  O_18
REMARK    7  A    between atoms: O_18  and  C_19
REMARK                            x       y       z     vdW  Elec       q    Type
REMARK                         _______ _______ _______ _____ _____    ______ ____
ROOT
ATOM      1  C   UNL     1      47.137   7.448  12.624  0.00  0.00    +0.000 A 
ATOM      2  C   UNL     1      46.787   6.308  11.896  0.00  0.00    +0.000 A 
ATOM      3  C   UNL     1      45.541   6.206  11.260  0.00  0.00    +0.000 A 
ATOM      4  C   UNL     1      44.664   7.284  11.408  0.00  0.00    +0.000 A 
ATOM      5  C   UNL     1      45.068   8.386  12.138  0.00  0.00    +0.000 A 
ATOM      6  N   UNL     1      46.276   8.492  12.724  0.00  0.00    +0.000 NA
ENDROOT
BRANCH   3   7
ATOM      7  C   UNL     1      45.167   4.999  10.499  0.00  0.00    +0.000 A 
ATOM      8  C   UNL     1      44.450   3.956  11.096  0.00  0.00    +0.000 A 
ATOM      9  N   UNL     1      44.075   2.817  10.474  0.00  0.00    +0.000 NA
ATOM     10  C   UNL     1      44.438   2.693   9.178  0.00  0.00    +0.000 A 
ATOM     11  C   UNL     1      45.134   3.659   8.466  0.00  0.00    +0.000 A 
ATOM     12  C   UNL     1      45.514   4.817   9.145  0.00  0.00    +0.000 A 
BRANCH  11  13
ATOM     13  O   UNL     1      45.406   3.355   7.166  0.00  0.00    +0.000 OA
BRANCH  13  14
ATOM     14  C   UNL     1      46.775   3.334   6.802  0.00  0.00    +0.000 C 
ATOM     15  F   UNL     1      47.373   2.290   7.427  0.00  0.00    +0.000 F 
ATOM     16  F   UNL     1      46.831   3.081   5.471  0.00  0.00    +0.000 F 
ENDBRANCH  13  14
ENDBRANCH  11  13
ENDBRANCH   3   7
BRANCH   1  17
ATOM     17  C   UNL     1      48.453   7.521  13.406  0.00  0.00    +0.000 C 
ATOM     18  C   UNL     1      48.452   8.269  14.735  0.00  0.00    +0.000 C 
ATOM     19  C   UNL     1      48.475   6.773  14.735  0.00  0.00    +0.000 C 
BRANCH  17  20
ATOM     20  C   UNL     1      49.742   7.440  12.604  0.00  0.00    +0.000 C 
BRANCH  20  25
ATOM     21  C   UNL     1      52.368  10.197  12.371  0.00  0.00    +0.000 A 
ATOM     22  C   UNL     1      51.739  10.997  11.429  0.00  0.00    +0.000 A 
ATOM     23  N   UNL     1      50.500  10.752  10.946  0.00  0.00    +0.000 NA
ATOM     24  C   UNL     1      49.883   9.634  11.395  0.00  0.00    +0.000 A 
ATOM     25  C   UNL     1      50.429   8.753  12.329  0.00  0.00    +0.000 A 
ATOM     26  C   UNL     1      51.693   9.067  12.838  0.00  0.00    +0.000 A 
BRANCH  21  28
ATOM     27  N   UNL     1      54.784  10.727  13.127  0.00  0.00    +0.000 NA
ATOM     28  C   UNL     1      53.696  10.487  12.799  0.00  0.00    +0.000 C 
ENDBRANCH  21  28
ENDBRANCH  20  25
ENDBRANCH  17  20
ENDBRANCH   1  17
TORSDOF 7
ENDMDL
MODEL 9
REMARK VINA RESULT:    -6.149      4.868      8.149
REMARK INTER + INTRA:          -9.795
REMARK INTER:                  -8.879
REMARK INTRA:                  -0.917
REMARK UNBOUND:                -1.130
REMARK  Name = 
REMARK  7 active torsions:
REMARK  status: ('A' for Active; 'I' for Inactive)
REMARK    1  A    between atoms: C_2  and  C_3
REMARK    2  A    between atoms: C_7  and  C_8
REMARK    3  A    between atoms: C_8  and  C_9
REMARK    4  A    between atoms: C_9  and  C_10
REMARK    5  A    between atoms: C_12  and  C_13
REMARK    6  A    between atoms: C_17  and  O_18
REMARK    7  A    between atoms: O_18  and  C_19
REMARK                            x       y       z     vdW  Elec       q    Type
REMARK                         _______ _______ _______ _____ _____    ______ ____
ROOT
ATOM      1  C   UNL     1      49.483   7.895  15.855  0.00  0.00    +0.000 A 
ATOM      2  C   UNL     1      48.469   7.257  15.137  0.00  0.00    +0.000 A 
ATOM      3  C   UNL     1      48.577   7.051  13.753  0.00  0.00    +0.000 A 
ATOM      4  C   UNL     1      49.730   7.532  13.129  0.00  0.00    +0.000 A 
ATOM      5  C   UNL     1      50.701   8.154  13.893  0.00  0.00    +0.000 A 
ATOM      6  N   UNL     1      50.606   8.324  15.225  0.00  0.00    +0.000 NA
ENDROOT
BRANCH   3   7
ATOM      7  C   UNL     1      47.501   6.386  12.992  0.00  0.00    +0.000 A 
ATOM      8  C   UNL     1      47.123   6.836  11.724  0.00  0.00    +0.000 A 
ATOM      9  N   UNL     1      46.146   6.290  10.966  0.00  0.00    +0.000 NA
ATOM     10  C   UNL     1      45.493   5.233  11.498  0.00  0.00    +0.000 A 
ATOM     11  C   UNL     1      45.783   4.680  12.737  0.00  0.00    +0.000 A 
ATOM     12  C   UNL     1      46.790   5.278  13.495  0.00  0.00    +0.000 A 
BRANCH  11  13
ATOM     13  O   UNL     1      45.018   3.613  13.102  0.00  0.00    +0.000 OA
BRANCH  13  14
ATOM     14  C   UNL     1      43.719   3.554  12.540  0.00  0.00    +0.000 C 
ATOM     15  F   UNL     1      43.324   2.258  12.498  0.00  0.00    +0.000 F 
ATOM     16  F   UNL     1      42.884   4.192  13.396  0.00  0.00    +0.000 F 
ENDBRANCH  13  14
ENDBRANCH  11  13
ENDBRANCH   3   7
BRANCH   1  17
ATOM     17  C   UNL     1      49.324   8.215  17.344  0.00  0.00    +0.000 C 
ATOM     18  C   UNL     1      49.579   9.649  17.798  0.00  0.00    +0.000 C 
ATOM     19  C   UNL     1      48.172   9.150  17.702  0.00  0.00    +0.000 C 
BRANCH  17  20
ATOM     20  C   UNL     1      49.553   7.078  18.327  0.00  0.00    +0.000 C 
BRANCH  20  25
ATOM     21  C   UNL     1      49.244   3.393  17.396  0.00  0.00    +0.000 A 
ATOM     22  C   UNL     1      47.883   3.242  17.613  0.00  0.00    +0.000 A 
ATOM     23  N   UNL     1      47.060   4.263  17.943  0.00  0.00    +0.000 NA
ATOM     24  C   UNL     1      47.634   5.478  18.105  0.00  0.00    +0.000 A 
ATOM     25  C   UNL     1      48.993   5.738  17.927  0.00  0.00    +0.000 A 
ATOM     26  C   UNL     1      49.802   4.664  17.539  0.00  0.00    +0.000 A 
BRANCH  21  28
ATOM     27  N   UNL     1      50.716   1.332  16.872  0.00  0.00    +0.000 NA
ATOM     28  C   UNL     1      50.060   2.263  17.097  0.00  0.00    +0.000 C 
ENDBRANCH  21  28
ENDBRANCH  20  25
ENDBRANCH  17  20
ENDBRANCH   1  17
TORSDOF 7
ENDMDL
