MODEL 1
REMARK VINA RESULT:    -8.243      0.000      0.000
REMARK INTER + INTRA:         -11.097
REMARK INTER:                 -10.652
REMARK INTRA:                  -0.445
REMARK UNBOUND:                -0.445
REMARK  Name = 
REMARK  6 active torsions:
REMARK  status: ('A' for Active; 'I' for Inactive)
REMARK    1  A    between atoms: C_1  and  N_2
REMARK    2  A    between atoms: N_2  and  C_3
REMARK    3  A    between atoms: C_3  and  C_4
REMARK    4  A    between atoms: C_7  and  C_8
REMARK    5  A    between atoms: C_8  and  N_9
REMARK    6  A    between atoms: C_16  and  C_18
REMARK                            x       y       z     vdW  Elec       q    Type
REMARK                         _______ _______ _______ _____ _____    ______ ____
ROOT
ATOM      1  C   UNL     1      45.962   8.512  12.109  0.00  0.00    +0.000 C 
ATOM      2  N   UNL     1      45.853   7.115  11.698  0.00  0.00    +0.000 N 
ATOM      3  C   UNL     1      44.535   6.655  11.461  0.00  0.00    +0.000 C 
ATOM      4  O   UNL     1      43.592   7.440  11.414  0.00  0.00    +0.000 OA
ENDROOT
BRANCH   3   5
ATOM      5  C   UNL     1      44.291   5.213  11.286  0.00  0.00    +0.000 A 
ATOM      6  C   UNL     1      43.671   4.406  12.226  0.00  0.00    +0.000 A 
ATOM      7  S   UNL     1      43.447   2.796  11.707  0.00  0.00    +0.000 S 
ATOM      8  C   UNL     1      44.314   3.082  10.273  0.00  0.00    +0.000 A 
ATOM      9  N   UNL     1      44.515   2.082   9.375  0.00  0.00    +0.000 NA
ATOM     10  C   UNL     1      45.237   2.419   8.359  0.00  0.00    +0.000 A 
ATOM     11  N   UNL     1      45.770   3.666   8.165  0.00  0.00    +0.000 N 
ATOM     12  C   UNL     1      45.558   4.727   9.019  0.00  0.00    +0.000 A 
ATOM     13  O   UNL     1      46.012   5.835   8.758  0.00  0.00    +0.000 OA
ATOM     14  C   UNL     1      44.753   4.393  10.184  0.00  0.00    +0.000 A 
ATOM     15  H   UNL     1      46.335   3.866   7.350  0.00  0.00    +0.000 HD
ENDBRANCH   3   5
BRANCH   2  16
ATOM     16  C   UNL     1      46.991   6.209  11.887  0.00  0.00    +0.000 C 
BRANCH  16  17
ATOM     17  C   UNL     1      47.194   5.585  13.236  0.00  0.00    +0.000 A 
ATOM     18  C   UNL     1      47.837   6.273  14.273  0.00  0.00    +0.000 A 
ATOM     19  C   UNL     1      48.051   5.644  15.495  0.00  0.00    +0.000 A 
ATOM     20  C   UNL     1      47.631   4.324  15.652  0.00  0.00    +0.000 A 
ATOM     21  N   UNL     1      47.000   3.642  14.661  0.00  0.00    +0.000 NA
ATOM     22  C   UNL     1      46.795   4.280  13.489  0.00  0.00    +0.000 A 
BRANCH  20  23
ATOM     23  C   UNL     1      47.795   3.614  16.969  0.00  0.00    +0.000 C 
BRANCH  23  24
ATOM     24  N   UNL     1      49.081   2.950  17.026  0.00  0.00    +0.000 N 
ATOM     25  C   UNL     1      50.165   3.277  17.789  0.00  0.00    +0.000 A 
ATOM     26  C   UNL     1      51.102   2.336  17.446  0.00  0.00    +0.000 A 
ATOM     27  N   UNL     1      50.569   1.475  16.528  0.00  0.00    +0.000 NA
ATOM     28  N   UNL     1      49.324   1.859  16.277  0.00  0.00    +0.000 NA
ENDBRANCH  23  24
ENDBRANCH  20  23
ENDBRANCH  16  17
ENDBRANCH   2  16
TORSDOF 5
ENDMDL
MODEL 2
REMARK VINA RESULT:    -8.165      1.514      2.300
REMARK INTER + INTRA:         -10.997
REMARK INTER:                  -9.981
REMARK INTRA:                  -1.016
REMARK UNBOUND:                -0.445
REMARK  Name = 
REMARK  6 active torsions:
REMARK  status: ('A' for Active; 'I' for Inactive)
REMARK    1  A    between atoms: C_1  and  N_2
REMARK    2  A    between atoms: N_2  and  C_3
REMARK    3  A    between atoms: C_3  and  C_4
REMARK    4  A    between atoms: C_7  and  C_8
REMARK    5  A    between atoms: C_8  and  N_9
REMARK    6  A    between atoms: C_16  and  C_18
REMARK                            x       y       z     vdW  Elec       q    Type
REMARK                         _______ _______ _______ _____ _____    ______ ____
ROOT
ATOM      1  C   UNL     1      46.307   8.900  12.887  0.00  0.00    +0.000 C 
ATOM      2  N   UNL     1      46.388   7.713  12.039  0.00  0.00    +0.000 N 
ATOM      3  C   UNL     1      45.184   7.354  11.384  0.00  0.00    +0.000 C 
ATOM      4  O   UNL     1      44.217   8.112  11.384  0.00  0.00    +0.000 OA
ENDROOT
BRANCH   3   5
ATOM      5  C   UNL     1      45.087   6.049  10.711  0.00  0.00    +0.000 A 
ATOM      6  C   UNL     1      45.595   5.780   9.450  0.00  0.00    +0.000 A 
ATOM      7  S   UNL     1      45.410   4.154   8.968  0.00  0.00    +0.000 S 
ATOM      8  C   UNL     1      44.502   3.790  10.359  0.00  0.00    +0.000 A 
ATOM      9  N   UNL     1      44.006   2.539  10.553  0.00  0.00    +0.000 NA
ATOM     10  C   UNL     1      43.288   2.414  11.619  0.00  0.00    +0.000 A 
ATOM     11  N   UNL     1      43.028   3.427  12.503  0.00  0.00    +0.000 N 
ATOM     12  C   UNL     1      43.546   4.699  12.380  0.00  0.00    +0.000 A 
ATOM     13  O   UNL     1      43.325   5.545  13.238  0.00  0.00    +0.000 OA
ATOM     14  C   UNL     1      44.358   4.890  11.188  0.00  0.00    +0.000 A 
ATOM     15  H   UNL     1      42.451   3.267  13.319  0.00  0.00    +0.000 HD
ENDBRANCH   3   5
BRANCH   2  16
ATOM     16  C   UNL     1      47.524   6.796  12.176  0.00  0.00    +0.000 C 
BRANCH  16  17
ATOM     17  C   UNL     1      47.583   5.901  13.379  0.00  0.00    +0.000 A 
ATOM     18  C   UNL     1      46.932   4.660  13.402  0.00  0.00    +0.000 A 
ATOM     19  C   UNL     1      46.967   3.880  14.552  0.00  0.00    +0.000 A 
ATOM     20  C   UNL     1      47.642   4.366  15.672  0.00  0.00    +0.000 A 
ATOM     21  N   UNL     1      48.284   5.563  15.667  0.00  0.00    +0.000 NA
ATOM     22  C   UNL     1      48.244   6.295  14.532  0.00  0.00    +0.000 A 
BRANCH  20  23
ATOM     23  C   UNL     1      47.752   3.540  16.925  0.00  0.00    +0.000 C 
BRANCH  23  24
ATOM     24  N   UNL     1      49.053   2.907  16.998  0.00  0.00    +0.000 N 
ATOM     25  C   UNL     1      50.121   3.262  17.770  0.00  0.00    +0.000 A 
ATOM     26  C   UNL     1      51.083   2.341  17.441  0.00  0.00    +0.000 A 
ATOM     27  N   UNL     1      50.580   1.465  16.520  0.00  0.00    +0.000 NA
ATOM     28  N   UNL     1      49.329   1.819  16.255  0.00  0.00    +0.000 NA
ENDBRANCH  23  24
ENDBRANCH  20  23
ENDBRANCH  16  17
ENDBRANCH   2  16
TORSDOF 5
ENDMDL
MODEL 3
REMARK VINA RESULT:    -7.286      1.800      2.252
REMARK INTER + INTRA:          -9.860
REMARK INTER:                  -9.124
REMARK INTRA:                  -0.737
REMARK UNBOUND:                -0.445
REMARK  Name = 
REMARK  6 active torsions:
REMARK  status: ('A' for Active; 'I' for Inactive)
REMARK    1  A    between atoms: C_1  and  N_2
REMARK    2  A    between atoms: N_2  and  C_3
REMARK    3  A    between atoms: C_3  and  C_4
REMARK    4  A    between atoms: C_7  and  C_8
REMARK    5  A    between atoms: C_8  and  N_9
REMARK    6  A    between atoms: C_16  and  C_18
REMARK                            x       y       z     vdW  Elec       q    Type
REMARK                         _______ _______ _______ _____ _____    ______ ____
ROOT
ATOM      1  C   UNL     1      46.001   8.249  12.392  0.00  0.00    +0.000 C 
ATOM      2  N   UNL     1      45.896   6.859  11.956  0.00  0.00    +0.000 N 
ATOM      3  C   UNL     1      44.598   6.443  11.569  0.00  0.00    +0.000 C 
ATOM      4  O   UNL     1      43.691   7.258  11.427  0.00  0.00    +0.000 OA
ENDROOT
BRANCH   3   5
ATOM      5  C   UNL     1      44.332   5.011  11.351  0.00  0.00    +0.000 A 
ATOM      6  C   UNL     1      43.701   4.185  12.268  0.00  0.00    +0.000 A 
ATOM      7  S   UNL     1      43.451   2.596  11.701  0.00  0.00    +0.000 S 
ATOM      8  C   UNL     1      44.320   2.911  10.274  0.00  0.00    +0.000 A 
ATOM      9  N   UNL     1      44.504   1.936   9.346  0.00  0.00    +0.000 NA
ATOM     10  C   UNL     1      45.229   2.292   8.339  0.00  0.00    +0.000 A 
ATOM     11  N   UNL     1      45.781   3.536   8.181  0.00  0.00    +0.000 N 
ATOM     12  C   UNL     1      45.586   4.574   9.067  0.00  0.00    +0.000 A 
ATOM     13  O   UNL     1      46.058   5.682   8.839  0.00  0.00    +0.000 OA
ATOM     14  C   UNL     1      44.779   4.217  10.224  0.00  0.00    +0.000 A 
ATOM     15  H   UNL     1      46.347   3.752   7.371  0.00  0.00    +0.000 HD
ENDBRANCH   3   5
BRANCH   2  16
ATOM     16  C   UNL     1      46.978   5.916  12.259  0.00  0.00    +0.000 C 
BRANCH  16  17
ATOM     17  C   UNL     1      47.223   5.543  13.692  0.00  0.00    +0.000 A 
ATOM     18  C   UNL     1      48.098   6.279  14.501  0.00  0.00    +0.000 A 
ATOM     19  C   UNL     1      48.338   5.875  15.810  0.00  0.00    +0.000 A 
ATOM     20  C   UNL     1      47.708   4.724  16.282  0.00  0.00    +0.000 A 
ATOM     21  N   UNL     1      46.852   4.001  15.515  0.00  0.00    +0.000 NA
ATOM     22  C   UNL     1      46.627   4.423  14.252  0.00  0.00    +0.000 A 
BRANCH  20  23
ATOM     23  C   UNL     1      47.896   4.270  17.705  0.00  0.00    +0.000 C 
BRANCH  23  24
ATOM     24  N   UNL     1      48.118   5.410  18.571  0.00  0.00    +0.000 N 
ATOM     25  C   UNL     1      49.298   5.852  19.096  0.00  0.00    +0.000 A 
ATOM     26  C   UNL     1      48.936   6.945  19.841  0.00  0.00    +0.000 A 
ATOM     27  N   UNL     1      47.587   7.144  19.733  0.00  0.00    +0.000 NA
ATOM     28  N   UNL     1      47.093   6.196  18.948  0.00  0.00    +0.000 NA
ENDBRANCH  23  24
ENDBRANCH  20  23
ENDBRANCH  16  17
ENDBRANCH   2  16
TORSDOF 5
ENDMDL
MODEL 4
REMARK VINA RESULT:    -6.970      3.408      7.519
REMARK INTER + INTRA:          -9.453
REMARK INTER:                  -8.370
REMARK INTRA:                  -1.083
REMARK UNBOUND:                -0.445
REMARK  Name = 
REMARK  6 active torsions:
REMARK  status: ('A' for Active; 'I' for Inactive)
REMARK    1  A    between atoms: C_1  and  N_2
REMARK    2  A    between atoms: N_2  and  C_3
REMARK    3  A    between atoms: C_3  and  C_4
REMARK    4  A    between atoms: C_7  and  C_8
REMARK    5  A    between atoms: C_8  and  N_9
REMARK    6  A    between atoms: C_16  and  C_18
REMARK                            x       y       z     vdW  Elec       q    Type
REMARK                         _______ _______ _______ _____ _____    ______ ____
ROOT
ATOM      1  C   UNL     1      49.079   8.808  15.998  0.00  0.00    +0.000 C 
ATOM      2  N   UNL     1      48.719   7.393  15.990  0.00  0.00    +0.000 N 
ATOM      3  C   UNL     1      48.666   6.774  17.264  0.00  0.00    +0.000 C 
ATOM      4  O   UNL     1      48.724   7.443  18.292  0.00  0.00    +0.000 OA
ENDROOT
BRANCH   3   5
ATOM      5  C   UNL     1      48.559   5.309  17.353  0.00  0.00    +0.000 A 
ATOM      6  C   UNL     1      47.367   4.621  17.511  0.00  0.00    +0.000 A 
ATOM      7  S   UNL     1      47.547   2.924  17.492  0.00  0.00    +0.000 S 
ATOM      8  C   UNL     1      49.241   3.051  17.435  0.00  0.00    +0.000 A 
ATOM      9  N   UNL     1      50.018   1.936  17.424  0.00  0.00    +0.000 NA
ATOM     10  C   UNL     1      51.287   2.175  17.438  0.00  0.00    +0.000 A 
ATOM     11  N   UNL     1      51.841   3.426  17.458  0.00  0.00    +0.000 N 
ATOM     12  C   UNL     1      51.101   4.589  17.422  0.00  0.00    +0.000 A 
ATOM     13  O   UNL     1      51.658   5.679  17.382  0.00  0.00    +0.000 OA
ATOM     14  C   UNL     1      49.662   4.370  17.412  0.00  0.00    +0.000 A 
ATOM     15  H   UNL     1      52.845   3.548  17.476  0.00  0.00    +0.000 HD
ENDBRANCH   3   5
BRANCH   2  16
ATOM     16  C   UNL     1      48.779   6.633  14.738  0.00  0.00    +0.000 C 
BRANCH  16  17
ATOM     17  C   UNL     1      47.505   6.392  13.983  0.00  0.00    +0.000 A 
ATOM     18  C   UNL     1      46.875   7.415  13.263  0.00  0.00    +0.000 A 
ATOM     19  C   UNL     1      45.669   7.167  12.617  0.00  0.00    +0.000 A 
ATOM     20  C   UNL     1      45.103   5.897  12.717  0.00  0.00    +0.000 A 
ATOM     21  N   UNL     1      45.702   4.890  13.404  0.00  0.00    +0.000 NA
ATOM     22  C   UNL     1      46.879   5.155  14.013  0.00  0.00    +0.000 A 
BRANCH  20  23
ATOM     23  C   UNL     1      43.825   5.562  11.996  0.00  0.00    +0.000 C 
BRANCH  23  24
ATOM     24  N   UNL     1      44.035   4.453  11.088  0.00  0.00    +0.000 N 
ATOM     25  C   UNL     1      44.865   4.396  10.005  0.00  0.00    +0.000 A 
ATOM     26  C   UNL     1      44.666   3.133   9.508  0.00  0.00    +0.000 A 
ATOM     27  N   UNL     1      43.764   2.470  10.292  0.00  0.00    +0.000 NA
ATOM     28  N   UNL     1      43.383   3.289  11.264  0.00  0.00    +0.000 NA
ENDBRANCH  23  24
ENDBRANCH  20  23
ENDBRANCH  16  17
ENDBRANCH   2  16
TORSDOF 5
ENDMDL
MODEL 5
REMARK VINA RESULT:    -6.902      3.564      7.866
REMARK INTER + INTRA:          -9.365
REMARK INTER:                  -8.423
REMARK INTRA:                  -0.942
REMARK UNBOUND:                -0.445
REMARK  Name = 
REMARK  6 active torsions:
REMARK  status: ('A' for Active; 'I' for Inactive)
REMARK    1  A    between atoms: C_1  and  N_2
REMARK    2  A    between atoms: N_2  and  C_3
REMARK    3  A    between atoms: C_3  and  C_4
REMARK    4  A    between atoms: C_7  and  C_8
REMARK    5  A    between atoms: C_8  and  N_9
REMARK    6  A    between atoms: C_16  and  C_18
REMARK                            x       y       z     vdW  Elec       q    Type
REMARK                         _______ _______ _______ _____ _____    ______ ____
ROOT
ATOM      1  C   UNL     1      49.438   7.141  12.508  0.00  0.00    +0.000 C 
ATOM      2  N   UNL     1      48.853   7.627  13.755  0.00  0.00    +0.000 N 
ATOM      3  C   UNL     1      49.727   7.638  14.870  0.00  0.00    +0.000 C 
ATOM      4  O   UNL     1      50.931   7.443  14.729  0.00  0.00    +0.000 OA
ENDROOT
BRANCH   3   5
ATOM      5  C   UNL     1      49.180   7.871  16.217  0.00  0.00    +0.000 A 
ATOM      6  C   UNL     1      49.272   9.072  16.902  0.00  0.00    +0.000 A 
ATOM      7  S   UNL     1      48.466   9.067  18.406  0.00  0.00    +0.000 S 
ATOM      8  C   UNL     1      48.103   7.412  18.266  0.00  0.00    +0.000 A 
ATOM      9  N   UNL     1      47.431   6.766  19.255  0.00  0.00    +0.000 NA
ATOM     10  C   UNL     1      47.272   5.502  19.049  0.00  0.00    +0.000 A 
ATOM     11  N   UNL     1      47.723   4.833  17.942  0.00  0.00    +0.000 N 
ATOM     12  C   UNL     1      48.367   5.447  16.889  0.00  0.00    +0.000 A 
ATOM     13  O   UNL     1      48.693   4.804  15.899  0.00  0.00    +0.000 OA
ATOM     14  C   UNL     1      48.575   6.875  17.080  0.00  0.00    +0.000 A 
ATOM     15  H   UNL     1      47.573   3.838  17.841  0.00  0.00    +0.000 HD
ENDBRANCH   3   5
BRANCH   2  16
ATOM     16  C   UNL     1      47.396   7.730  13.884  0.00  0.00    +0.000 C 
BRANCH  16  17
ATOM     17  C   UNL     1      46.535   6.881  12.995  0.00  0.00    +0.000 A 
ATOM     18  C   UNL     1      46.449   5.493  13.168  0.00  0.00    +0.000 A 
ATOM     19  C   UNL     1      45.680   4.732  12.295  0.00  0.00    +0.000 A 
ATOM     20  C   UNL     1      45.022   5.375  11.247  0.00  0.00    +0.000 A 
ATOM     21  N   UNL     1      45.088   6.719  11.066  0.00  0.00    +0.000 NA
ATOM     22  C   UNL     1      45.833   7.436  11.936  0.00  0.00    +0.000 A 
BRANCH  20  23
ATOM     23  C   UNL     1      44.138   4.605  10.303  0.00  0.00    +0.000 C 
BRANCH  23  24
ATOM     24  N   UNL     1      44.928   4.019   9.239  0.00  0.00    +0.000 N 
ATOM     25  C   UNL     1      45.090   2.697   8.940  0.00  0.00    +0.000 A 
ATOM     26  C   UNL     1      45.937   2.707   7.861  0.00  0.00    +0.000 A 
ATOM     27  N   UNL     1      46.240   3.999   7.531  0.00  0.00    +0.000 NA
ATOM     28  N   UNL     1      45.613   4.800   8.383  0.00  0.00    +0.000 NA
ENDBRANCH  23  24
ENDBRANCH  20  23
ENDBRANCH  16  17
ENDBRANCH   2  16
TORSDOF 5
ENDMDL
MODEL 6
REMARK VINA RESULT:    -6.532      3.252      4.481
REMARK INTER + INTRA:          -8.887
REMARK INTER:                  -7.778
REMARK INTRA:                  -1.109
REMARK UNBOUND:                -0.445
REMARK  Name = 
REMARK  6 active torsions:
REMARK  status: ('A' for Active; 'I' for Inactive)
REMARK    1  A    between atoms: C_1  and  N_2
REMARK    2  A    between atoms: N_2  and  C_3
REMARK    3  A    between atoms: C_3  and  C_4
REMARK    4  A    between atoms: C_7  and  C_8
REMARK    5  A    between atoms: C_8  and  N_9
REMARK    6  A    between atoms: C_16  and  C_18
REMARK                            x       y       z     vdW  Elec       q    Type
REMARK                         _______ _______ _______ _____ _____    ______ ____
ROOT
ATOM      1  C   UNL     1      51.402   9.349  13.197  0.00  0.00    +0.000 C 
ATOM      2  N   UNL     1      50.007   8.981  13.422  0.00  0.00    +0.000 N 
ATOM      3  C   UNL     1      49.239   8.774  12.250  0.00  0.00    +0.000 C 
ATOM      4  O   UNL     1      49.775   8.715  11.147  0.00  0.00    +0.000 OA
ENDROOT
BRANCH   3   5
ATOM      5  C   UNL     1      47.776   8.645  12.356  0.00  0.00    +0.000 A 
ATOM      6  C   UNL     1      46.890   9.708  12.278  0.00  0.00    +0.000 A 
ATOM      7  S   UNL     1      45.250   9.240  12.345  0.00  0.00    +0.000 S 
ATOM      8  C   UNL     1      45.670   7.620  12.643  0.00  0.00    +0.000 A 
ATOM      9  N   UNL     1      44.707   6.679  12.827  0.00  0.00    +0.000 NA
ATOM     10  C   UNL     1      45.161   5.502  13.101  0.00  0.00    +0.000 A 
ATOM     11  N   UNL     1      46.490   5.187  13.203  0.00  0.00    +0.000 N 
ATOM     12  C   UNL     1      47.507   6.091  12.979  0.00  0.00    +0.000 A 
ATOM     13  O   UNL     1      48.678   5.733  13.027  0.00  0.00    +0.000 OA
ATOM     14  C   UNL     1      47.042   7.436  12.673  0.00  0.00    +0.000 A 
ATOM     15  H   UNL     1      46.784   4.246  13.428  0.00  0.00    +0.000 HD
ENDBRANCH   3   5
BRANCH   2  16
ATOM     16  C   UNL     1      49.404   9.184  14.744  0.00  0.00    +0.000 C 
BRANCH  16  17
ATOM     17  C   UNL     1      49.386   8.033  15.707  0.00  0.00    +0.000 A 
ATOM     18  C   UNL     1      48.510   8.007  16.801  0.00  0.00    +0.000 A 
ATOM     19  C   UNL     1      48.556   6.947  17.700  0.00  0.00    +0.000 A 
ATOM     20  C   UNL     1      49.493   5.936  17.497  0.00  0.00    +0.000 A 
ATOM     21  N   UNL     1      50.346   5.940  16.440  0.00  0.00    +0.000 NA
ATOM     22  C   UNL     1      50.273   6.975  15.575  0.00  0.00    +0.000 A 
BRANCH  20  23
ATOM     23  C   UNL     1      49.552   4.743  18.413  0.00  0.00    +0.000 C 
BRANCH  23  24
ATOM     24  N   UNL     1      49.830   3.540  17.655  0.00  0.00    +0.000 N 
ATOM     25  C   UNL     1      50.931   2.736  17.723  0.00  0.00    +0.000 A 
ATOM     26  C   UNL     1      50.681   1.759  16.793  0.00  0.00    +0.000 A 
ATOM     27  N   UNL     1      49.460   1.978  16.218  0.00  0.00    +0.000 NA
ATOM     28  N   UNL     1      48.942   3.075  16.756  0.00  0.00    +0.000 NA
ENDBRANCH  23  24
ENDBRANCH  20  23
ENDBRANCH  16  17
ENDBRANCH   2  16
TORSDOF 5
ENDMDL
MODEL 7
REMARK VINA RESULT:    -6.531      3.536      7.345
REMARK INTER + INTRA:          -8.886
REMARK INTER:                  -8.379
REMARK INTRA:                  -0.507
REMARK UNBOUND:                -0.445
REMARK  Name = 
REMARK  6 active torsions:
REMARK  status: ('A' for Active; 'I' for Inactive)
REMARK    1  A    between atoms: C_1  and  N_2
REMARK    2  A    between atoms: N_2  and  C_3
REMARK    3  A    between atoms: C_3  and  C_4
REMARK    4  A    between atoms: C_7  and  C_8
REMARK    5  A    between atoms: C_8  and  N_9
REMARK    6  A    between atoms: C_16  and  C_18
REMARK                            x       y       z     vdW  Elec       q    Type
REMARK                         _______ _______ _______ _____ _____    ______ ____
ROOT
ATOM      1  C   UNL     1      47.121   4.418  14.883  0.00  0.00    +0.000 C 
ATOM      2  N   UNL     1      47.455   5.740  14.360  0.00  0.00    +0.000 N 
ATOM      3  C   UNL     1      48.528   6.396  15.012  0.00  0.00    +0.000 C 
ATOM      4  O   UNL     1      49.237   5.798  15.816  0.00  0.00    +0.000 OA
ENDROOT
BRANCH   3   5
ATOM      5  C   UNL     1      48.785   7.819  14.733  0.00  0.00    +0.000 A 
ATOM      6  C   UNL     1      48.416   8.859  15.571  0.00  0.00    +0.000 A 
ATOM      7  S   UNL     1      48.926  10.393  15.026  0.00  0.00    +0.000 S 
ATOM      8  C   UNL     1      49.516   9.739  13.572  0.00  0.00    +0.000 A 
ATOM      9  N   UNL     1      50.073  10.542  12.628  0.00  0.00    +0.000 NA
ATOM     10  C   UNL     1      50.427   9.926  11.550  0.00  0.00    +0.000 A 
ATOM     11  N   UNL     1      50.276   8.582  11.339  0.00  0.00    +0.000 N 
ATOM     12  C   UNL     1      49.763   7.715  12.280  0.00  0.00    +0.000 A 
ATOM     13  O   UNL     1      49.709   6.512  12.053  0.00  0.00    +0.000 OA
ATOM     14  C   UNL     1      49.343   8.366  13.512  0.00  0.00    +0.000 A 
ATOM     15  H   UNL     1      50.568   8.158  10.467  0.00  0.00    +0.000 HD
ENDBRANCH   3   5
BRANCH   2  16
ATOM     16  C   UNL     1      46.505   6.440  13.488  0.00  0.00    +0.000 C 
BRANCH  16  17
ATOM     17  C   UNL     1      45.947   5.709  12.302  0.00  0.00    +0.000 A 
ATOM     18  C   UNL     1      45.220   4.521  12.450  0.00  0.00    +0.000 A 
ATOM     19  C   UNL     1      44.761   3.845  11.325  0.00  0.00    +0.000 A 
ATOM     20  C   UNL     1      45.054   4.364  10.064  0.00  0.00    +0.000 A 
ATOM     21  N   UNL     1      45.752   5.518   9.901  0.00  0.00    +0.000 NA
ATOM     22  C   UNL     1      46.176   6.161  11.011  0.00  0.00    +0.000 A 
BRANCH  20  23
ATOM     23  C   UNL     1      44.540   3.698   8.816  0.00  0.00    +0.000 C 
BRANCH  23  24
ATOM     24  N   UNL     1      45.523   2.768   8.301  0.00  0.00    +0.000 N 
ATOM     25  C   UNL     1      46.516   3.007   7.394  0.00  0.00    +0.000 A 
ATOM     26  C   UNL     1      47.136   1.791   7.260  0.00  0.00    +0.000 A 
ATOM     27  N   UNL     1      46.534   0.879   8.082  0.00  0.00    +0.000 NA
ATOM     28  N   UNL     1      45.545   1.490   8.720  0.00  0.00    +0.000 NA
ENDBRANCH  23  24
ENDBRANCH  20  23
ENDBRANCH  16  17
ENDBRANCH   2  16
TORSDOF 5
ENDMDL
MODEL 8
REMARK VINA RESULT:    -6.447      3.790      7.659
REMARK INTER + INTRA:          -8.777
REMARK INTER:                  -7.484
REMARK INTRA:                  -1.294
REMARK UNBOUND:                -0.445
REMARK  Name = 
REMARK  6 active torsions:
REMARK  status: ('A' for Active; 'I' for Inactive)
REMARK    1  A    between atoms: C_1  and  N_2
REMARK    2  A    between atoms: N_2  and  C_3
REMARK    3  A    between atoms: C_3  and  C_4
REMARK    4  A    between atoms: C_7  and  C_8
REMARK    5  A    between atoms: C_8  and  N_9
REMARK    6  A    between atoms: C_16  and  C_18
REMARK                            x       y       z     vdW  Elec       q    Type
REMARK                         _______ _______ _______ _____ _____    ______ ____
ROOT
ATOM      1  C   UNL     1      47.870   9.359  17.564  0.00  0.00    +0.000 C 
ATOM      2  N   UNL     1      48.572   8.147  17.149  0.00  0.00    +0.000 N 
ATOM      3  C   UNL     1      48.954   7.278  18.200  0.00  0.00    +0.000 C 
ATOM      4  O   UNL     1      48.540   7.451  19.343  0.00  0.00    +0.000 OA
ENDROOT
BRANCH   3   5
ATOM      5  C   UNL     1      49.874   6.163  17.920  0.00  0.00    +0.000 A 
ATOM      6  C   UNL     1      51.253   6.283  17.863  0.00  0.00    +0.000 A 
ATOM      7  S   UNL     1      52.060   4.801  17.608  0.00  0.00    +0.000 S 
ATOM      8  C   UNL     1      50.590   3.974  17.405  0.00  0.00    +0.000 A 
ATOM      9  N   UNL     1      50.577   2.643  17.129  0.00  0.00    +0.000 NA
ATOM     10  C   UNL     1      49.398   2.152  16.943  0.00  0.00    +0.000 A 
ATOM     11  N   UNL     1      48.236   2.873  17.012  0.00  0.00    +0.000 N 
ATOM     12  C   UNL     1      48.188   4.213  17.335  0.00  0.00    +0.000 A 
ATOM     13  O   UNL     1      47.112   4.789  17.439  0.00  0.00    +0.000 OA
ATOM     14  C   UNL     1      49.497   4.813  17.548  0.00  0.00    +0.000 A 
ATOM     15  H   UNL     1      47.341   2.431  16.848  0.00  0.00    +0.000 HD
ENDBRANCH   3   5
BRANCH   2  16
ATOM     16  C   UNL     1      49.134   8.058  15.797  0.00  0.00    +0.000 C 
BRANCH  16  17
ATOM     17  C   UNL     1      48.251   7.581  14.682  0.00  0.00    +0.000 A 
ATOM     18  C   UNL     1      48.236   6.238  14.282  0.00  0.00    +0.000 A 
ATOM     19  C   UNL     1      47.440   5.842  13.213  0.00  0.00    +0.000 A 
ATOM     20  C   UNL     1      46.684   6.805  12.547  0.00  0.00    +0.000 A 
ATOM     21  N   UNL     1      46.680   8.110  12.923  0.00  0.00    +0.000 NA
ATOM     22  C   UNL     1      47.452   8.466  13.973  0.00  0.00    +0.000 A 
BRANCH  20  23
ATOM     23  C   UNL     1      45.769   6.422  11.415  0.00  0.00    +0.000 C 
BRANCH  23  24
ATOM     24  N   UNL     1      44.785   5.460  11.867  0.00  0.00    +0.000 N 
ATOM     25  C   UNL     1      44.599   4.178  11.435  0.00  0.00    +0.000 A 
ATOM     26  C   UNL     1      43.540   3.731  12.183  0.00  0.00    +0.000 A 
ATOM     27  N   UNL     1      43.138   4.718  13.040  0.00  0.00    +0.000 NA
ATOM     28  N   UNL     1      43.912   5.777  12.840  0.00  0.00    +0.000 NA
ENDBRANCH  23  24
ENDBRANCH  20  23
ENDBRANCH  16  17
ENDBRANCH   2  16
TORSDOF 5
ENDMDL
MODEL 9
REMARK VINA RESULT:    -6.384      3.733      7.900
REMARK INTER + INTRA:          -8.695
REMARK INTER:                  -7.759
REMARK INTRA:                  -0.937
REMARK UNBOUND:                -0.445
REMARK  Name = 
REMARK  6 active torsions:
REMARK  status: ('A' for Active; 'I' for Inactive)
REMARK    1  A    between atoms: C_1  and  N_2
REMARK    2  A    between atoms: N_2  and  C_3
REMARK    3  A    between atoms: C_3  and  C_4
REMARK    4  A    between atoms: C_7  and  C_8
REMARK    5  A    between atoms: C_8  and  N_9
REMARK    6  A    between atoms: C_16  and  C_18
REMARK                            x       y       z     vdW  Elec       q    Type
REMARK                         _______ _______ _______ _____ _____    ______ ____
ROOT
ATOM      1  C   UNL     1      48.704   8.257  11.874  0.00  0.00    +0.000 C 
ATOM      2  N   UNL     1      48.273   8.040  13.253  0.00  0.00    +0.000 N 
ATOM      3  C   UNL     1      49.311   7.745  14.172  0.00  0.00    +0.000 C 
ATOM      4  O   UNL     1      50.490   7.867  13.852  0.00  0.00    +0.000 OA
ENDROOT
BRANCH   3   5
ATOM      5  C   UNL     1      48.968   7.270  15.522  0.00  0.00    +0.000 A 
ATOM      6  C   UNL     1      48.825   5.935  15.868  0.00  0.00    +0.000 A 
ATOM      7  S   UNL     1      48.513   5.687  17.527  0.00  0.00    +0.000 S 
ATOM      8  C   UNL     1      48.400   7.359  17.811  0.00  0.00    +0.000 A 
ATOM      9  N   UNL     1      48.120   7.832  19.054  0.00  0.00    +0.000 NA
ATOM     10  C   UNL     1      48.005   9.116  19.119  0.00  0.00    +0.000 A 
ATOM     11  N   UNL     1      48.151   9.963  18.052  0.00  0.00    +0.000 N 
ATOM     12  C   UNL     1      48.482   9.541  16.782  0.00  0.00    +0.000 A 
ATOM     13  O   UNL     1      48.656  10.354  15.883  0.00  0.00    +0.000 OA
ATOM     14  C   UNL     1      48.615   8.097  16.659  0.00  0.00    +0.000 A 
ATOM     15  H   UNL     1      48.042  10.963  18.166  0.00  0.00    +0.000 HD
ENDBRANCH   3   5
BRANCH   2  16
ATOM     16  C   UNL     1      46.857   7.793  13.544  0.00  0.00    +0.000 C 
BRANCH  16  17
ATOM     17  C   UNL     1      46.113   6.806  12.693  0.00  0.00    +0.000 A 
ATOM     18  C   UNL     1      45.114   7.215  11.800  0.00  0.00    +0.000 A 
ATOM     19  C   UNL     1      44.411   6.267  11.064  0.00  0.00    +0.000 A 
ATOM     20  C   UNL     1      44.710   4.918  11.250  0.00  0.00    +0.000 A 
ATOM     21  N   UNL     1      45.679   4.502  12.106  0.00  0.00    +0.000 NA
ATOM     22  C   UNL     1      46.354   5.444  12.799  0.00  0.00    +0.000 A 
BRANCH  20  23
ATOM     23  C   UNL     1      44.013   3.855  10.443  0.00  0.00    +0.000 C 
BRANCH  23  24
ATOM     24  N   UNL     1      44.825   3.474   9.305  0.00  0.00    +0.000 N 
ATOM     25  C   UNL     1      45.343   2.245   9.012  0.00  0.00    +0.000 A 
ATOM     26  C   UNL     1      46.028   2.450   7.842  0.00  0.00    +0.000 A 
ATOM     27  N   UNL     1      45.893   3.754   7.456  0.00  0.00    +0.000 NA
ATOM     28  N   UNL     1      45.149   4.377   8.361  0.00  0.00    +0.000 NA
ENDBRANCH  23  24
ENDBRANCH  20  23
ENDBRANCH  16  17
ENDBRANCH   2  16
TORSDOF 5
ENDMDL
