MODEL 1
REMARK VINA RESULT:    -6.869      0.000      0.000
REMARK INTER + INTRA:         -10.261
REMARK INTER:                  -9.479
REMARK INTRA:                  -0.782
REMARK UNBOUND:                -0.782
REMARK  Name = 
REMARK  8 active torsions:
REMARK  status: ('A' for Active; 'I' for Inactive)
REMARK    1  A    between atoms: C_1  and  C_2
REMARK    2  A    between atoms: C_2  and  C_3
REMARK    3  A    between atoms: C_3  and  N_4
REMARK    4  A    between atoms: C_3  and  C_5
REMARK    5  A    between atoms: C_5  and  C_6
REMARK    6  A    between atoms: C_9  and  O_10
REMARK    7  A    between atoms: O_10  and  C_11
REMARK    8  A    between atoms: C_11  and  C_12
REMARK                            x       y       z     vdW  Elec       q    Type
REMARK                         _______ _______ _______ _____ _____    ______ ____
ROOT
ATOM      1  C   UNL     1      46.187   5.808  12.447  0.00  0.00    +0.000 A 
ATOM      2  C   UNL     1      45.762   6.171  11.161  0.00  0.00    +0.000 A 
ATOM      3  C   UNL     1      45.098   5.250  10.348  0.00  0.00    +0.000 A 
ATOM      4  C   UNL     1      44.877   3.949  10.802  0.00  0.00    +0.000 A 
ATOM      5  C   UNL     1      45.236   3.605  12.105  0.00  0.00    +0.000 A 
ATOM      6  C   UNL     1      45.900   4.523  12.916  0.00  0.00    +0.000 A 
ENDROOT
BRANCH   1   7
ATOM      7  C   UNL     1      46.975   6.762  13.316  0.00  0.00    +0.000 C 
BRANCH   7   8
ATOM      8  C   UNL     1      48.500   6.732  13.088  0.00  0.00    +0.000 C 
BRANCH   8   9
ATOM      9  N   UNL     1      49.157   6.594  14.398  0.00  0.00    +0.000 NA
ATOM     10  H   UNL     1      48.455   6.451  15.122  0.00  0.00    +0.000 HD
ATOM     11  H   UNL     1      49.636   7.462  14.635  0.00  0.00    +0.000 HD
ENDBRANCH   8   9
BRANCH   8  13
ATOM     12  C   UNL     1      50.146   7.719  11.393  0.00  0.00    +0.000 C 
ATOM     13  C   UNL     1      48.991   7.990  12.348  0.00  0.00    +0.000 C 
ENDBRANCH   8  13
ENDBRANCH   7   8
ENDBRANCH   1   7
BRANCH   4  14
ATOM     14  O   UNL     1      44.323   3.082   9.896  0.00  0.00    +0.000 OA
BRANCH  14  15
ATOM     15  C   UNL     1      44.594   3.422   8.532  0.00  0.00    +0.000 C 
BRANCH  15  16
ATOM     16  C   UNL     1      45.783   2.671   7.992  0.00  0.00    +0.000 A 
ATOM     17  C   UNL     1      45.964   1.304   8.219  0.00  0.00    +0.000 A 
ATOM     18  C   UNL     1      47.035   0.666   7.615  0.00  0.00    +0.000 A 
ATOM     19  N   UNL     1      47.919   1.285   6.802  0.00  0.00    +0.000 NA
ATOM     20  C   UNL     1      47.720   2.601   6.584  0.00  0.00    +0.000 A 
ATOM     21  C   UNL     1      46.681   3.327   7.144  0.00  0.00    +0.000 A 
ENDBRANCH  15  16
ENDBRANCH  14  15
ENDBRANCH   4  14
TORSDOF 7
ENDMDL
MODEL 2
REMARK VINA RESULT:    -6.860      1.908      2.668
REMARK INTER + INTRA:         -10.249
REMARK INTER:                  -9.607
REMARK INTRA:                  -0.641
REMARK UNBOUND:                -0.782
REMARK  Name = 
REMARK  8 active torsions:
REMARK  status: ('A' for Active; 'I' for Inactive)
REMARK    1  A    between atoms: C_1  and  C_2
REMARK    2  A    between atoms: C_2  and  C_3
REMARK    3  A    between atoms: C_3  and  N_4
REMARK    4  A    between atoms: C_3  and  C_5
REMARK    5  A    between atoms: C_5  and  C_6
REMARK    6  A    between atoms: C_9  and  O_10
REMARK    7  A    between atoms: O_10  and  C_11
REMARK    8  A    between atoms: C_11  and  C_12
REMARK                            x       y       z     vdW  Elec       q    Type
REMARK                         _______ _______ _______ _____ _____    ______ ____
ROOT
ATOM      1  C   UNL     1      45.620   4.912  12.876  0.00  0.00    +0.000 A 
ATOM      2  C   UNL     1      46.234   5.916  12.113  0.00  0.00    +0.000 A 
ATOM      3  C   UNL     1      46.085   5.941  10.724  0.00  0.00    +0.000 A 
ATOM      4  C   UNL     1      45.344   4.949  10.082  0.00  0.00    +0.000 A 
ATOM      5  C   UNL     1      44.675   3.989  10.842  0.00  0.00    +0.000 A 
ATOM      6  C   UNL     1      44.824   3.962  12.227  0.00  0.00    +0.000 A 
ENDROOT
BRANCH   1   7
ATOM      7  C   UNL     1      45.829   4.817  14.369  0.00  0.00    +0.000 C 
BRANCH   7   8
ATOM      8  C   UNL     1      47.237   4.357  14.796  0.00  0.00    +0.000 C 
BRANCH   8   9
ATOM      9  N   UNL     1      47.462   3.006  14.258  0.00  0.00    +0.000 NA
ATOM     10  H   UNL     1      48.140   3.046  13.498  0.00  0.00    +0.000 HD
ATOM     11  H   UNL     1      46.599   2.650  13.849  0.00  0.00    +0.000 HD
ENDBRANCH   8   9
BRANCH   8  13
ATOM     12  C   UNL     1      48.220   3.213  16.866  0.00  0.00    +0.000 C 
ATOM     13  C   UNL     1      47.406   4.382  16.327  0.00  0.00    +0.000 C 
ENDBRANCH   8  13
ENDBRANCH   7   8
ENDBRANCH   1   7
BRANCH   4  14
ATOM     14  O   UNL     1      45.348   4.987   8.712  0.00  0.00    +0.000 OA
BRANCH  14  15
ATOM     15  C   UNL     1      44.825   3.802   8.101  0.00  0.00    +0.000 C 
BRANCH  15  16
ATOM     16  C   UNL     1      45.921   2.903   7.593  0.00  0.00    +0.000 A 
ATOM     17  C   UNL     1      46.159   1.639   8.140  0.00  0.00    +0.000 A 
ATOM     18  C   UNL     1      47.127   0.835   7.560  0.00  0.00    +0.000 A 
ATOM     19  N   UNL     1      47.856   1.194   6.481  0.00  0.00    +0.000 NA
ATOM     20  C   UNL     1      47.602   2.411   5.958  0.00  0.00    +0.000 A 
ATOM     21  C   UNL     1      46.658   3.287   6.467  0.00  0.00    +0.000 A 
ENDBRANCH  15  16
ENDBRANCH  14  15
ENDBRANCH   4  14
TORSDOF 7
ENDMDL
MODEL 3
REMARK VINA RESULT:    -6.299      1.747      6.796
REMARK INTER + INTRA:          -9.475
REMARK INTER:                  -8.723
REMARK INTRA:                  -0.751
REMARK UNBOUND:                -0.782
REMARK  Name = 
REMARK  8 active torsions:
REMARK  status: ('A' for Active; 'I' for Inactive)
REMARK    1  A    between atoms: C_1  and  C_2
REMARK    2  A    between atoms: C_2  and  C_3
REMARK    3  A    between atoms: C_3  and  N_4
REMARK    4  A    between atoms: C_3  and  C_5
REMARK    5  A    between atoms: C_5  and  C_6
REMARK    6  A    between atoms: C_9  and  O_10
REMARK    7  A    between atoms: O_10  and  C_11
REMARK    8  A    between atoms: C_11  and  C_12
REMARK                            x       y       z     vdW  Elec       q    Type
REMARK                         _______ _______ _______ _____ _____    ______ ____
ROOT
ATOM      1  C   UNL     1      45.095   3.680   8.779  0.00  0.00    +0.000 A 
ATOM      2  C   UNL     1      44.438   2.930   9.765  0.00  0.00    +0.000 A 
ATOM      3  C   UNL     1      44.345   3.406  11.074  0.00  0.00    +0.000 A 
ATOM      4  C   UNL     1      44.931   4.625  11.418  0.00  0.00    +0.000 A 
ATOM      5  C   UNL     1      45.526   5.406  10.427  0.00  0.00    +0.000 A 
ATOM      6  C   UNL     1      45.620   4.930   9.121  0.00  0.00    +0.000 A 
ENDROOT
BRANCH   1   7
ATOM      7  C   UNL     1      45.277   3.152   7.376  0.00  0.00    +0.000 C 
BRANCH   7   8
ATOM      8  C   UNL     1      46.738   3.106   6.887  0.00  0.00    +0.000 C 
BRANCH   8   9
ATOM      9  N   UNL     1      46.850   3.956   5.690  0.00  0.00    +0.000 NA
ATOM     10  H   UNL     1      45.952   3.992   5.210  0.00  0.00    +0.000 HD
ATOM     11  H   UNL     1      47.507   3.539   5.032  0.00  0.00    +0.000 HD
ENDBRANCH   8   9
BRANCH   8  13
ATOM     12  C   UNL     1      46.805   0.671   7.677  0.00  0.00    +0.000 C 
ATOM     13  C   UNL     1      47.197   1.665   6.592  0.00  0.00    +0.000 C 
ENDBRANCH   8  13
ENDBRANCH   7   8
ENDBRANCH   1   7
BRANCH   4  14
ATOM     14  O   UNL     1      44.891   4.958  12.747  0.00  0.00    +0.000 OA
BRANCH  14  15
ATOM     15  C   UNL     1      45.670   4.095  13.582  0.00  0.00    +0.000 C 
BRANCH  15  16
ATOM     16  C   UNL     1      46.745   4.848  14.320  0.00  0.00    +0.000 A 
ATOM     17  C   UNL     1      47.196   4.454  15.583  0.00  0.00    +0.000 A 
ATOM     18  C   UNL     1      48.250   5.145  16.159  0.00  0.00    +0.000 A 
ATOM     19  N   UNL     1      48.884   6.181  15.566  0.00  0.00    +0.000 NA
ATOM     20  C   UNL     1      48.445   6.537  14.341  0.00  0.00    +0.000 A 
ATOM     21  C   UNL     1      47.398   5.910  13.685  0.00  0.00    +0.000 A 
ENDBRANCH  15  16
ENDBRANCH  14  15
ENDBRANCH   4  14
TORSDOF 7
ENDMDL
MODEL 4
REMARK VINA RESULT:    -6.157      2.498      3.368
REMARK INTER + INTRA:          -9.279
REMARK INTER:                  -8.581
REMARK INTRA:                  -0.697
REMARK UNBOUND:                -0.782
REMARK  Name = 
REMARK  8 active torsions:
REMARK  status: ('A' for Active; 'I' for Inactive)
REMARK    1  A    between atoms: C_1  and  C_2
REMARK    2  A    between atoms: C_2  and  C_3
REMARK    3  A    between atoms: C_3  and  N_4
REMARK    4  A    between atoms: C_3  and  C_5
REMARK    5  A    between atoms: C_5  and  C_6
REMARK    6  A    between atoms: C_9  and  O_10
REMARK    7  A    between atoms: O_10  and  C_11
REMARK    8  A    between atoms: C_11  and  C_12
REMARK                            x       y       z     vdW  Elec       q    Type
REMARK                         _______ _______ _______ _____ _____    ______ ____
ROOT
ATOM      1  C   UNL     1      46.956   5.154  14.015  0.00  0.00    +0.000 A 
ATOM      2  C   UNL     1      45.899   4.277  13.733  0.00  0.00    +0.000 A 
ATOM      3  C   UNL     1      45.194   4.380  12.532  0.00  0.00    +0.000 A 
ATOM      4  C   UNL     1      45.522   5.376  11.612  0.00  0.00    +0.000 A 
ATOM      5  C   UNL     1      46.617   6.205  11.857  0.00  0.00    +0.000 A 
ATOM      6  C   UNL     1      47.319   6.105  13.056  0.00  0.00    +0.000 A 
ENDROOT
BRANCH   1   7
ATOM      7  C   UNL     1      47.682   5.114  15.339  0.00  0.00    +0.000 C 
BRANCH   7   8
ATOM      8  C   UNL     1      47.163   4.050  16.328  0.00  0.00    +0.000 C 
BRANCH   8   9
ATOM      9  N   UNL     1      46.793   4.729  17.580  0.00  0.00    +0.000 NA
ATOM     10  H   UNL     1      46.663   4.040  18.319  0.00  0.00    +0.000 HD
ATOM     11  H   UNL     1      45.894   5.195  17.466  0.00  0.00    +0.000 HD
ENDBRANCH   8   9
BRANCH   8  13
ATOM     12  C   UNL     1      48.883   3.053  17.943  0.00  0.00    +0.000 C 
ATOM     13  C   UNL     1      48.210   2.947  16.581  0.00  0.00    +0.000 C 
ENDBRANCH   8  13
ENDBRANCH   7   8
ENDBRANCH   1   7
BRANCH   4  14
ATOM     14  O   UNL     1      44.705   5.475  10.515  0.00  0.00    +0.000 OA
BRANCH  14  15
ATOM     15  C   UNL     1      44.173   4.219  10.078  0.00  0.00    +0.000 C 
BRANCH  15  16
ATOM     16  C   UNL     1      45.113   3.506   9.143  0.00  0.00    +0.000 A 
ATOM     17  C   UNL     1      45.265   2.117   9.157  0.00  0.00    +0.000 A 
ATOM     18  C   UNL     1      46.082   1.526   8.207  0.00  0.00    +0.000 A 
ATOM     19  N   UNL     1      46.741   2.215   7.249  0.00  0.00    +0.000 NA
ATOM     20  C   UNL     1      46.570   3.553   7.241  0.00  0.00    +0.000 A 
ATOM     21  C   UNL     1      45.778   4.235   8.150  0.00  0.00    +0.000 A 
ENDBRANCH  15  16
ENDBRANCH  14  15
ENDBRANCH   4  14
TORSDOF 7
ENDMDL
MODEL 5
REMARK VINA RESULT:    -5.893      2.781      7.242
REMARK INTER + INTRA:          -8.914
REMARK INTER:                  -8.345
REMARK INTRA:                  -0.568
REMARK UNBOUND:                -0.782
REMARK  Name = 
REMARK  8 active torsions:
REMARK  status: ('A' for Active; 'I' for Inactive)
REMARK    1  A    between atoms: C_1  and  C_2
REMARK    2  A    between atoms: C_2  and  C_3
REMARK    3  A    between atoms: C_3  and  N_4
REMARK    4  A    between atoms: C_3  and  C_5
REMARK    5  A    between atoms: C_5  and  C_6
REMARK    6  A    between atoms: C_9  and  O_10
REMARK    7  A    between atoms: O_10  and  C_11
REMARK    8  A    between atoms: C_11  and  C_12
REMARK                            x       y       z     vdW  Elec       q    Type
REMARK                         _______ _______ _______ _____ _____    ______ ____
ROOT
ATOM      1  C   UNL     1      45.195   4.294   9.927  0.00  0.00    +0.000 A 
ATOM      2  C   UNL     1      44.876   3.308  10.872  0.00  0.00    +0.000 A 
ATOM      3  C   UNL     1      45.058   3.548  12.236  0.00  0.00    +0.000 A 
ATOM      4  C   UNL     1      45.585   4.765  12.667  0.00  0.00    +0.000 A 
ATOM      5  C   UNL     1      45.838   5.774  11.737  0.00  0.00    +0.000 A 
ATOM      6  C   UNL     1      45.659   5.534  10.376  0.00  0.00    +0.000 A 
ENDROOT
BRANCH   1   7
ATOM      7  C   UNL     1      45.081   4.031   8.444  0.00  0.00    +0.000 C 
BRANCH   7   8
ATOM      8  C   UNL     1      46.362   3.480   7.785  0.00  0.00    +0.000 C 
BRANCH   8   9
ATOM      9  N   UNL     1      46.447   4.022   6.420  0.00  0.00    +0.000 NA
ATOM     10  H   UNL     1      47.051   3.430   5.852  0.00  0.00    +0.000 HD
ATOM     11  H   UNL     1      46.888   4.940   6.440  0.00  0.00    +0.000 HD
ENDBRANCH   8   9
BRANCH   8  13
ATOM     12  C   UNL     1      47.583   1.354   7.044  0.00  0.00    +0.000 C 
ATOM     13  C   UNL     1      46.382   1.940   7.776  0.00  0.00    +0.000 C 
ENDBRANCH   8  13
ENDBRANCH   7   8
ENDBRANCH   1   7
BRANCH   4  14
ATOM     14  O   UNL     1      45.836   4.870  14.011  0.00  0.00    +0.000 OA
BRANCH  14  15
ATOM     15  C   UNL     1      47.144   5.366  14.315  0.00  0.00    +0.000 C 
BRANCH  15  16
ATOM     16  C   UNL     1      47.687   4.770  15.588  0.00  0.00    +0.000 A 
ATOM     17  C   UNL     1      48.377   5.536  16.531  0.00  0.00    +0.000 A 
ATOM     18  C   UNL     1      48.768   4.936  17.718  0.00  0.00    +0.000 A 
ATOM     19  N   UNL     1      48.513   3.646  18.028  0.00  0.00    +0.000 NA
ATOM     20  C   UNL     1      47.833   2.927  17.111  0.00  0.00    +0.000 A 
ATOM     21  C   UNL     1      47.402   3.436  15.897  0.00  0.00    +0.000 A 
ENDBRANCH  15  16
ENDBRANCH  14  15
ENDBRANCH   4  14
TORSDOF 7
ENDMDL
MODEL 6
REMARK VINA RESULT:    -5.667      2.154      7.039
REMARK INTER + INTRA:          -8.602
REMARK INTER:                  -8.099
REMARK INTRA:                  -0.503
REMARK UNBOUND:                -0.782
REMARK  Name = 
REMARK  8 active torsions:
REMARK  status: ('A' for Active; 'I' for Inactive)
REMARK    1  A    between atoms: C_1  and  C_2
REMARK    2  A    between atoms: C_2  and  C_3
REMARK    3  A    between atoms: C_3  and  N_4
REMARK    4  A    between atoms: C_3  and  C_5
REMARK    5  A    between atoms: C_5  and  C_6
REMARK    6  A    between atoms: C_9  and  O_10
REMARK    7  A    between atoms: O_10  and  C_11
REMARK    8  A    between atoms: C_11  and  C_12
REMARK                            x       y       z     vdW  Elec       q    Type
REMARK                         _______ _______ _______ _____ _____    ______ ____
ROOT
ATOM      1  C   UNL     1      45.578   3.762   7.903  0.00  0.00    +0.000 A 
ATOM      2  C   UNL     1      44.539   3.261   8.701  0.00  0.00    +0.000 A 
ATOM      3  C   UNL     1      44.225   3.868   9.919  0.00  0.00    +0.000 A 
ATOM      4  C   UNL     1      44.963   4.964  10.365  0.00  0.00    +0.000 A 
ATOM      5  C   UNL     1      45.951   5.509   9.543  0.00  0.00    +0.000 A 
ATOM      6  C   UNL     1      46.266   4.903   8.329  0.00  0.00    +0.000 A 
ENDROOT
BRANCH   1   7
ATOM      7  C   UNL     1      45.988   3.078   6.620  0.00  0.00    +0.000 C 
BRANCH   7   8
ATOM      8  C   UNL     1      47.437   2.552   6.604  0.00  0.00    +0.000 C 
BRANCH   8   9
ATOM      9  N   UNL     1      48.057   2.953   5.331  0.00  0.00    +0.000 NA
ATOM     10  H   UNL     1      47.743   3.887   5.074  0.00  0.00    +0.000 HD
ATOM     11  H   UNL     1      47.744   2.333   4.585  0.00  0.00    +0.000 HD
ENDBRANCH   8   9
BRANCH   8  13
ATOM     12  C   UNL     1      46.534   0.511   7.861  0.00  0.00    +0.000 C 
ATOM     13  C   UNL     1      47.491   1.024   6.793  0.00  0.00    +0.000 C 
ENDBRANCH   8  13
ENDBRANCH   7   8
ENDBRANCH   1   7
BRANCH   4  14
ATOM     14  O   UNL     1      44.661   5.423  11.621  0.00  0.00    +0.000 OA
BRANCH  14  15
ATOM     15  C   UNL     1      43.962   6.672  11.625  0.00  0.00    +0.000 C 
BRANCH  15  16
ATOM     16  C   UNL     1      44.897   7.838  11.816  0.00  0.00    +0.000 A 
ATOM     17  C   UNL     1      44.598   9.117  11.340  0.00  0.00    +0.000 A 
ATOM     18  C   UNL     1      45.467  10.156  11.633  0.00  0.00    +0.000 A 
ATOM     19  N   UNL     1      46.592  10.012  12.367  0.00  0.00    +0.000 NA
ATOM     20  C   UNL     1      46.856   8.773  12.831  0.00  0.00    +0.000 A 
ATOM     21  C   UNL     1      46.052   7.671  12.589  0.00  0.00    +0.000 A 
ENDBRANCH  15  16
ENDBRANCH  14  15
ENDBRANCH   4  14
TORSDOF 7
ENDMDL
MODEL 7
REMARK VINA RESULT:    -5.619      1.657      2.363
REMARK INTER + INTRA:          -8.537
REMARK INTER:                  -7.802
REMARK INTRA:                  -0.735
REMARK UNBOUND:                -0.782
REMARK  Name = 
REMARK  8 active torsions:
REMARK  status: ('A' for Active; 'I' for Inactive)
REMARK    1  A    between atoms: C_1  and  C_2
REMARK    2  A    between atoms: C_2  and  C_3
REMARK    3  A    between atoms: C_3  and  N_4
REMARK    4  A    between atoms: C_3  and  C_5
REMARK    5  A    between atoms: C_5  and  C_6
REMARK    6  A    between atoms: C_9  and  O_10
REMARK    7  A    between atoms: O_10  and  C_11
REMARK    8  A    between atoms: C_11  and  C_12
REMARK                            x       y       z     vdW  Elec       q    Type
REMARK                         _______ _______ _______ _____ _____    ______ ____
ROOT
ATOM      1  C   UNL     1      46.995   7.033  12.899  0.00  0.00    +0.000 A 
ATOM      2  C   UNL     1      46.927   5.766  13.496  0.00  0.00    +0.000 A 
ATOM      3  C   UNL     1      46.112   4.770  12.953  0.00  0.00    +0.000 A 
ATOM      4  C   UNL     1      45.338   5.037  11.824  0.00  0.00    +0.000 A 
ATOM      5  C   UNL     1      45.455   6.273  11.187  0.00  0.00    +0.000 A 
ATOM      6  C   UNL     1      46.266   7.268  11.728  0.00  0.00    +0.000 A 
ENDROOT
BRANCH   1   7
ATOM      7  C   UNL     1      47.808   8.150  13.510  0.00  0.00    +0.000 C 
BRANCH   7   8
ATOM      8  C   UNL     1      48.272   7.893  14.957  0.00  0.00    +0.000 C 
BRANCH   8   9
ATOM      9  N   UNL     1      47.816   9.016  15.793  0.00  0.00    +0.000 NA
ATOM     10  H   UNL     1      46.909   8.794  16.200  0.00  0.00    +0.000 HD
ATOM     11  H   UNL     1      47.672   9.840  15.212  0.00  0.00    +0.000 HD
ENDBRANCH   8   9
BRANCH   8  13
ATOM     12  C   UNL     1      50.236   6.687  16.075  0.00  0.00    +0.000 C 
ATOM     13  C   UNL     1      49.801   7.720  15.044  0.00  0.00    +0.000 C 
ENDBRANCH   8  13
ENDBRANCH   7   8
ENDBRANCH   1   7
BRANCH   4  14
ATOM     14  O   UNL     1      44.484   4.040  11.430  0.00  0.00    +0.000 OA
BRANCH  14  15
ATOM     15  C   UNL     1      44.068   4.145  10.064  0.00  0.00    +0.000 C 
BRANCH  15  16
ATOM     16  C   UNL     1      45.023   3.445   9.132  0.00  0.00    +0.000 A 
ATOM     17  C   UNL     1      45.223   2.063   9.173  0.00  0.00    +0.000 A 
ATOM     18  C   UNL     1      46.049   1.481   8.225  0.00  0.00    +0.000 A 
ATOM     19  N   UNL     1      46.672   2.172   7.245  0.00  0.00    +0.000 NA
ATOM     20  C   UNL     1      46.455   3.503   7.212  0.00  0.00    +0.000 A 
ATOM     21  C   UNL     1      45.649   4.176   8.116  0.00  0.00    +0.000 A 
ENDBRANCH  15  16
ENDBRANCH  14  15
ENDBRANCH   4  14
TORSDOF 7
ENDMDL
MODEL 8
REMARK VINA RESULT:    -5.326      3.908      5.572
REMARK INTER + INTRA:          -8.132
REMARK INTER:                  -7.376
REMARK INTRA:                  -0.756
REMARK UNBOUND:                -0.782
REMARK  Name = 
REMARK  8 active torsions:
REMARK  status: ('A' for Active; 'I' for Inactive)
REMARK    1  A    between atoms: C_1  and  C_2
REMARK    2  A    between atoms: C_2  and  C_3
REMARK    3  A    between atoms: C_3  and  N_4
REMARK    4  A    between atoms: C_3  and  C_5
REMARK    5  A    between atoms: C_5  and  C_6
REMARK    6  A    between atoms: C_9  and  O_10
REMARK    7  A    between atoms: O_10  and  C_11
REMARK    8  A    between atoms: C_11  and  C_12
REMARK                            x       y       z     vdW  Elec       q    Type
REMARK                         _______ _______ _______ _____ _____    ______ ____
ROOT
ATOM      1  C   UNL     1      48.236   5.244  16.170  0.00  0.00    +0.000 A 
ATOM      2  C   UNL     1      48.717   6.415  15.567  0.00  0.00    +0.000 A 
ATOM      3  C   UNL     1      48.329   6.754  14.269  0.00  0.00    +0.000 A 
ATOM      4  C   UNL     1      47.479   5.913  13.551  0.00  0.00    +0.000 A 
ATOM      5  C   UNL     1      46.943   4.784  14.171  0.00  0.00    +0.000 A 
ATOM      6  C   UNL     1      47.331   4.444  15.466  0.00  0.00    +0.000 A 
ENDROOT
BRANCH   1   7
ATOM      7  C   UNL     1      48.701   4.816  17.543  0.00  0.00    +0.000 C 
BRANCH   7   8
ATOM      8  C   UNL     1      48.599   3.301  17.815  0.00  0.00    +0.000 C 
BRANCH   8   9
ATOM      9  N   UNL     1      48.360   3.108  19.254  0.00  0.00    +0.000 NA
ATOM     10  H   UNL     1      47.705   2.340  19.394  0.00  0.00    +0.000 HD
ATOM     11  H   UNL     1      47.914   3.936  19.644  0.00  0.00    +0.000 HD
ENDBRANCH   8   9
BRANCH   8  13
ATOM     12  C   UNL     1      51.153   3.314  17.632  0.00  0.00    +0.000 C 
ATOM     13  C   UNL     1      49.864   2.552  17.354  0.00  0.00    +0.000 C 
ENDBRANCH   8  13
ENDBRANCH   7   8
ENDBRANCH   1   7
BRANCH   4  14
ATOM     14  O   UNL     1      47.244   6.265  12.247  0.00  0.00    +0.000 OA
BRANCH  14  15
ATOM     15  C   UNL     1      45.968   6.881  12.038  0.00  0.00    +0.000 C 
BRANCH  15  16
ATOM     16  C   UNL     1      44.923   5.878  11.623  0.00  0.00    +0.000 A 
ATOM     17  C   UNL     1      45.185   4.875  10.687  0.00  0.00    +0.000 A 
ATOM     18  C   UNL     1      44.200   3.936  10.424  0.00  0.00    +0.000 A 
ATOM     19  N   UNL     1      42.993   3.922  11.030  0.00  0.00    +0.000 NA
ATOM     20  C   UNL     1      42.764   4.890  11.943  0.00  0.00    +0.000 A 
ATOM     21  C   UNL     1      43.683   5.873  12.271  0.00  0.00    +0.000 A 
ENDBRANCH  15  16
ENDBRANCH  14  15
ENDBRANCH   4  14
TORSDOF 7
ENDMDL
MODEL 9
REMARK VINA RESULT:    -5.310      2.582      3.744
REMARK INTER + INTRA:          -8.110
REMARK INTER:                  -7.440
REMARK INTRA:                  -0.670
REMARK UNBOUND:                -0.782
REMARK  Name = 
REMARK  8 active torsions:
REMARK  status: ('A' for Active; 'I' for Inactive)
REMARK    1  A    between atoms: C_1  and  C_2
REMARK    2  A    between atoms: C_2  and  C_3
REMARK    3  A    between atoms: C_3  and  N_4
REMARK    4  A    between atoms: C_3  and  C_5
REMARK    5  A    between atoms: C_5  and  C_6
REMARK    6  A    between atoms: C_9  and  O_10
REMARK    7  A    between atoms: O_10  and  C_11
REMARK    8  A    between atoms: C_11  and  C_12
REMARK                            x       y       z     vdW  Elec       q    Type
REMARK                         _______ _______ _______ _____ _____    ______ ____
ROOT
ATOM      1  C   UNL     1      47.399   5.123  14.797  0.00  0.00    +0.000 A 
ATOM      2  C   UNL     1      46.443   4.294  14.192  0.00  0.00    +0.000 A 
ATOM      3  C   UNL     1      45.923   4.613  12.936  0.00  0.00    +0.000 A 
ATOM      4  C   UNL     1      46.333   5.776  12.283  0.00  0.00    +0.000 A 
ATOM      5  C   UNL     1      47.333   6.566  12.849  0.00  0.00    +0.000 A 
ATOM      6  C   UNL     1      47.851   6.251  14.104  0.00  0.00    +0.000 A 
ENDROOT
BRANCH   1   7
ATOM      7  C   UNL     1      47.919   4.843  16.187  0.00  0.00    +0.000 C 
BRANCH   7   8
ATOM      8  C   UNL     1      48.989   5.834  16.688  0.00  0.00    +0.000 C 
BRANCH   8   9
ATOM      9  N   UNL     1      50.241   5.090  16.903  0.00  0.00    +0.000 NA
ATOM     10  H   UNL     1      50.621   4.790  16.007  0.00  0.00    +0.000 HD
ATOM     11  H   UNL     1      50.049   4.238  17.429  0.00  0.00    +0.000 HD
ENDBRANCH   8   9
BRANCH   8  13
ATOM     12  C   UNL     1      47.496   5.784  18.768  0.00  0.00    +0.000 C 
ATOM     13  C   UNL     1      48.542   6.555  17.974  0.00  0.00    +0.000 C 
ENDBRANCH   8  13
ENDBRANCH   7   8
ENDBRANCH   1   7
BRANCH   4  14
ATOM     14  O   UNL     1      45.686   6.067  11.110  0.00  0.00    +0.000 OA
BRANCH  14  15
ATOM     15  C   UNL     1      44.686   5.109  10.750  0.00  0.00    +0.000 C 
BRANCH  15  16
ATOM     16  C   UNL     1      45.148   4.206   9.636  0.00  0.00    +0.000 A 
ATOM     17  C   UNL     1      45.843   4.692   8.526  0.00  0.00    +0.000 A 
ATOM     18  C   UNL     1      46.313   3.788   7.587  0.00  0.00    +0.000 A 
ATOM     19  N   UNL     1      46.149   2.450   7.683  0.00  0.00    +0.000 NA
ATOM     20  C   UNL     1      45.489   1.999   8.769  0.00  0.00    +0.000 A 
ATOM     21  C   UNL     1      44.979   2.822   9.759  0.00  0.00    +0.000 A 
ENDBRANCH  15  16
ENDBRANCH  14  15
ENDBRANCH   4  14
TORSDOF 7
ENDMDL
