MODEL 1
REMARK VINA RESULT:    -6.432      0.000      0.000
REMARK INTER + INTRA:          -8.649
REMARK INTER:                  -7.936
REMARK INTRA:                  -0.713
REMARK UNBOUND:                -0.713
REMARK  Name = 
REMARK  6 active torsions:
REMARK  status: ('A' for Active; 'I' for Inactive)
REMARK    1  A    between atoms: C_1  and  O_2
REMARK    2  A    between atoms: O_2  and  C_3
REMARK    3  A    between atoms: C_7  and  C_8
REMARK    4  A    between atoms: C_8  and  N_9
REMARK    5  A    between atoms: C_15  and  C_16
REMARK    6  A    between atoms: C_20  and  C_21
REMARK                            x       y       z     vdW  Elec       q    Type
REMARK                         _______ _______ _______ _____ _____    ______ ____
ROOT
ATOM      1  N   UNL     1      44.954   4.991  12.425  0.00  0.00    +0.000 N 
ATOM      2  C   UNL     1      45.843   4.097  12.979  0.00  0.00    +0.000 A 
ATOM      3  C   UNL     1      46.868   4.808  13.560  0.00  0.00    +0.000 A 
ATOM      4  C   UNL     1      46.599   6.188  13.371  0.00  0.00    +0.000 A 
ATOM      5  C   UNL     1      47.326   7.362  13.665  0.00  0.00    +0.000 A 
ATOM      6  C   UNL     1      46.813   8.606  13.282  0.00  0.00    +0.000 A 
ATOM      7  C   UNL     1      45.573   8.700  12.653  0.00  0.00    +0.000 A 
ATOM      8  C   UNL     1      44.819   7.544  12.375  0.00  0.00    +0.000 A 
ATOM      9  C   UNL     1      45.369   6.289  12.706  0.00  0.00    +0.000 A 
ENDROOT
BRANCH   7  10
ATOM     10  C   UNL     1      45.088   9.990  12.228  0.00  0.00    +0.000 C 
ATOM     11  N   UNL     1      44.676  11.013  11.888  0.00  0.00    +0.000 NA
ENDBRANCH   7  10
BRANCH   1  12
ATOM     12  C   UNL     1      43.980   4.598  11.395  0.00  0.00    +0.000 C 
BRANCH  12  17
ATOM     13  C   UNL     1      45.561   3.523   8.114  0.00  0.00    +0.000 A 
ATOM     14  N   UNL     1      45.124   2.257   8.046  0.00  0.00    +0.000 NA
ATOM     15  C   UNL     1      44.441   1.818   9.099  0.00  0.00    +0.000 A 
ATOM     16  N   UNL     1      44.092   2.541  10.166  0.00  0.00    +0.000 NA
ATOM     17  C   UNL     1      44.562   3.809  10.243  0.00  0.00    +0.000 A 
ATOM     18  C   UNL     1      45.393   4.341   9.240  0.00  0.00    +0.000 A 
ATOM     19  C   UNL     1      46.057   5.681   9.339  0.00  0.00    +0.000 C 
BRANCH  13  21
ATOM     20  C   UNL     1      46.733   3.020   6.123  0.00  0.00    +0.000 C 
ATOM     21  O   UNL     1      46.175   4.032   6.981  0.00  0.00    +0.000 OA
ENDBRANCH  13  21
ENDBRANCH  12  17
ENDBRANCH   1  12
TORSDOF 4
ENDMDL
MODEL 2
REMARK VINA RESULT:    -6.197      2.076      3.987
REMARK INTER + INTRA:          -8.358
REMARK INTER:                  -7.949
REMARK INTRA:                  -0.410
REMARK UNBOUND:                -0.713
REMARK  Name = 
REMARK  6 active torsions:
REMARK  status: ('A' for Active; 'I' for Inactive)
REMARK    1  A    between atoms: C_1  and  O_2
REMARK    2  A    between atoms: O_2  and  C_3
REMARK    3  A    between atoms: C_7  and  C_8
REMARK    4  A    between atoms: C_8  and  N_9
REMARK    5  A    between atoms: C_15  and  C_16
REMARK    6  A    between atoms: C_20  and  C_21
REMARK                            x       y       z     vdW  Elec       q    Type
REMARK                         _______ _______ _______ _____ _____    ______ ____
ROOT
ATOM      1  N   UNL     1      46.432   6.700  12.537  0.00  0.00    +0.000 N 
ATOM      2  C   UNL     1      47.180   7.738  12.027  0.00  0.00    +0.000 A 
ATOM      3  C   UNL     1      48.275   7.924  12.839  0.00  0.00    +0.000 A 
ATOM      4  C   UNL     1      48.212   6.961  13.880  0.00  0.00    +0.000 A 
ATOM      5  C   UNL     1      48.994   6.733  15.032  0.00  0.00    +0.000 A 
ATOM      6  C   UNL     1      48.627   5.723  15.926  0.00  0.00    +0.000 A 
ATOM      7  C   UNL     1      47.522   4.913  15.670  0.00  0.00    +0.000 A 
ATOM      8  C   UNL     1      46.743   5.107  14.513  0.00  0.00    +0.000 A 
ATOM      9  C   UNL     1      47.081   6.166  13.647  0.00  0.00    +0.000 A 
ENDROOT
BRANCH   7  10
ATOM     10  C   UNL     1      47.138   3.909  16.632  0.00  0.00    +0.000 C 
ATOM     11  N   UNL     1      46.820   3.091  17.381  0.00  0.00    +0.000 NA
ENDBRANCH   7  10
BRANCH   1  12
ATOM     12  C   UNL     1      45.021   6.494  12.178  0.00  0.00    +0.000 C 
BRANCH  12  17
ATOM     13  C   UNL     1      44.281   3.361  10.164  0.00  0.00    +0.000 A 
ATOM     14  N   UNL     1      43.578   2.662  11.067  0.00  0.00    +0.000 NA
ATOM     15  C   UNL     1      43.479   3.204  12.277  0.00  0.00    +0.000 A 
ATOM     16  N   UNL     1      43.946   4.400  12.642  0.00  0.00    +0.000 NA
ATOM     17  C   UNL     1      44.681   5.088  11.735  0.00  0.00    +0.000 A 
ATOM     18  C   UNL     1      44.948   4.557  10.460  0.00  0.00    +0.000 A 
ATOM     19  C   UNL     1      45.870   5.204   9.471  0.00  0.00    +0.000 C 
BRANCH  13  21
ATOM     20  C   UNL     1      45.227   1.785   8.677  0.00  0.00    +0.000 C 
ATOM     21  O   UNL     1      44.298   2.868   8.869  0.00  0.00    +0.000 OA
ENDBRANCH  13  21
ENDBRANCH  12  17
ENDBRANCH   1  12
TORSDOF 4
ENDMDL
MODEL 3
REMARK VINA RESULT:    -6.191      1.508      1.986
REMARK INTER + INTRA:          -8.351
REMARK INTER:                  -7.886
REMARK INTRA:                  -0.465
REMARK UNBOUND:                -0.713
REMARK  Name = 
REMARK  6 active torsions:
REMARK  status: ('A' for Active; 'I' for Inactive)
REMARK    1  A    between atoms: C_1  and  O_2
REMARK    2  A    between atoms: O_2  and  C_3
REMARK    3  A    between atoms: C_7  and  C_8
REMARK    4  A    between atoms: C_8  and  N_9
REMARK    5  A    between atoms: C_15  and  C_16
REMARK    6  A    between atoms: C_20  and  C_21
REMARK                            x       y       z     vdW  Elec       q    Type
REMARK                         _______ _______ _______ _____ _____    ______ ____
ROOT
ATOM      1  N   UNL     1      44.984   4.889  11.860  0.00  0.00    +0.000 N 
ATOM      2  C   UNL     1      45.432   3.761  12.511  0.00  0.00    +0.000 A 
ATOM      3  C   UNL     1      46.454   4.125  13.357  0.00  0.00    +0.000 A 
ATOM      4  C   UNL     1      46.637   5.528  13.237  0.00  0.00    +0.000 A 
ATOM      5  C   UNL     1      47.579   6.428  13.780  0.00  0.00    +0.000 A 
ATOM      6  C   UNL     1      47.540   7.775  13.408  0.00  0.00    +0.000 A 
ATOM      7  C   UNL     1      46.556   8.245  12.539  0.00  0.00    +0.000 A 
ATOM      8  C   UNL     1      45.591   7.369  12.006  0.00  0.00    +0.000 A 
ATOM      9  C   UNL     1      45.673   6.001  12.336  0.00  0.00    +0.000 A 
ENDROOT
BRANCH   7  10
ATOM     10  C   UNL     1      46.567   9.630  12.135  0.00  0.00    +0.000 C 
ATOM     11  N   UNL     1      46.585  10.730  11.788  0.00  0.00    +0.000 NA
ENDBRANCH   7  10
BRANCH   1  12
ATOM     12  C   UNL     1      44.202   4.823  10.616  0.00  0.00    +0.000 C 
BRANCH  12  17
ATOM     13  C   UNL     1      45.846   2.257   8.351  0.00  0.00    +0.000 A 
ATOM     14  N   UNL     1      46.573   3.066   7.568  0.00  0.00    +0.000 NA
ATOM     15  C   UNL     1      46.406   4.372   7.761  0.00  0.00    +0.000 A 
ATOM     16  N   UNL     1      45.648   4.935   8.705  0.00  0.00    +0.000 NA
ATOM     17  C   UNL     1      44.893   4.113   9.473  0.00  0.00    +0.000 A 
ATOM     18  C   UNL     1      44.902   2.720   9.278  0.00  0.00    +0.000 A 
ATOM     19  C   UNL     1      43.985   1.777   9.996  0.00  0.00    +0.000 C 
BRANCH  13  21
ATOM     20  C   UNL     1      47.095   0.569   7.263  0.00  0.00    +0.000 C 
ATOM     21  O   UNL     1      46.091   0.898   8.242  0.00  0.00    +0.000 OA
ENDBRANCH  13  21
ENDBRANCH  12  17
ENDBRANCH   1  12
TORSDOF 4
ENDMDL
MODEL 4
REMARK VINA RESULT:    -5.960      2.260      3.940
REMARK INTER + INTRA:          -8.066
REMARK INTER:                  -7.891
REMARK INTRA:                  -0.175
REMARK UNBOUND:                -0.713
REMARK  Name = 
REMARK  6 active torsions:
REMARK  status: ('A' for Active; 'I' for Inactive)
REMARK    1  A    between atoms: C_1  and  O_2
REMARK    2  A    between atoms: O_2  and  C_3
REMARK    3  A    between atoms: C_7  and  C_8
REMARK    4  A    between atoms: C_8  and  N_9
REMARK    5  A    between atoms: C_15  and  C_16
REMARK    6  A    between atoms: C_20  and  C_21
REMARK                            x       y       z     vdW  Elec       q    Type
REMARK                         _______ _______ _______ _____ _____    ______ ____
ROOT
ATOM      1  N   UNL     1      46.457   5.958  12.122  0.00  0.00    +0.000 N 
ATOM      2  C   UNL     1      47.096   7.050  11.578  0.00  0.00    +0.000 A 
ATOM      3  C   UNL     1      48.034   7.499  12.478  0.00  0.00    +0.000 A 
ATOM      4  C   UNL     1      47.986   6.649  13.614  0.00  0.00    +0.000 A 
ATOM      5  C   UNL     1      48.638   6.672  14.865  0.00  0.00    +0.000 A 
ATOM      6  C   UNL     1      48.319   5.710  15.828  0.00  0.00    +0.000 A 
ATOM      7  C   UNL     1      47.395   4.704  15.549  0.00  0.00    +0.000 A 
ATOM      8  C   UNL     1      46.752   4.646  14.298  0.00  0.00    +0.000 A 
ATOM      9  C   UNL     1      47.032   5.655  13.354  0.00  0.00    +0.000 A 
ENDROOT
BRANCH   7  10
ATOM     10  C   UNL     1      47.050   3.751  16.576  0.00  0.00    +0.000 C 
ATOM     11  N   UNL     1      46.754   2.981  17.382  0.00  0.00    +0.000 NA
ENDBRANCH   7  10
BRANCH   1  12
ATOM     12  C   UNL     1      45.154   5.482  11.636  0.00  0.00    +0.000 C 
BRANCH  12  17
ATOM     13  C   UNL     1      45.234   2.784   8.965  0.00  0.00    +0.000 A 
ATOM     14  N   UNL     1      45.808   3.464   7.961  0.00  0.00    +0.000 NA
ATOM     15  C   UNL     1      46.034   4.756   8.185  0.00  0.00    +0.000 A 
ATOM     16  N   UNL     1      45.815   5.404   9.331  0.00  0.00    +0.000 NA
ATOM     17  C   UNL     1      45.207   4.720  10.330  0.00  0.00    +0.000 A 
ATOM     18  C   UNL     1      44.816   3.379  10.163  0.00  0.00    +0.000 A 
ATOM     19  C   UNL     1      44.016   2.618  11.176  0.00  0.00    +0.000 C 
BRANCH  13  21
ATOM     20  C   UNL     1      46.176   0.815   8.056  0.00  0.00    +0.000 C 
ATOM     21  O   UNL     1      45.095   1.417   8.792  0.00  0.00    +0.000 OA
ENDBRANCH  13  21
ENDBRANCH  12  17
ENDBRANCH   1  12
TORSDOF 4
ENDMDL
MODEL 5
REMARK VINA RESULT:    -5.950      2.602      6.278
REMARK INTER + INTRA:          -8.054
REMARK INTER:                  -7.635
REMARK INTRA:                  -0.419
REMARK UNBOUND:                -0.713
REMARK  Name = 
REMARK  6 active torsions:
REMARK  status: ('A' for Active; 'I' for Inactive)
REMARK    1  A    between atoms: C_1  and  O_2
REMARK    2  A    between atoms: O_2  and  C_3
REMARK    3  A    between atoms: C_7  and  C_8
REMARK    4  A    between atoms: C_8  and  N_9
REMARK    5  A    between atoms: C_15  and  C_16
REMARK    6  A    between atoms: C_20  and  C_21
REMARK                            x       y       z     vdW  Elec       q    Type
REMARK                         _______ _______ _______ _____ _____    ______ ____
ROOT
ATOM      1  N   UNL     1      44.427   5.367  11.543  0.00  0.00    +0.000 N 
ATOM      2  C   UNL     1      43.680   4.739  12.516  0.00  0.00    +0.000 A 
ATOM      3  C   UNL     1      43.457   3.441  12.122  0.00  0.00    +0.000 A 
ATOM      4  C   UNL     1      44.098   3.251  10.870  0.00  0.00    +0.000 A 
ATOM      5  C   UNL     1      44.136   2.174   9.958  0.00  0.00    +0.000 A 
ATOM      6  C   UNL     1      44.815   2.321   8.744  0.00  0.00    +0.000 A 
ATOM      7  C   UNL     1      45.488   3.504   8.445  0.00  0.00    +0.000 A 
ATOM      8  C   UNL     1      45.485   4.581   9.352  0.00  0.00    +0.000 A 
ATOM      9  C   UNL     1      44.748   4.450  10.546  0.00  0.00    +0.000 A 
ENDROOT
BRANCH   7  10
ATOM     10  C   UNL     1      46.141   3.646   7.167  0.00  0.00    +0.000 C 
ATOM     11  N   UNL     1      46.668   3.734   6.144  0.00  0.00    +0.000 NA
ENDBRANCH   7  10
BRANCH   1  12
ATOM     12  C   UNL     1      44.505   6.831  11.430  0.00  0.00    +0.000 C 
BRANCH  12  17
ATOM     13  C   UNL     1      47.330   9.179  12.393  0.00  0.00    +0.000 A 
ATOM     14  N   UNL     1      48.309   8.290  12.615  0.00  0.00    +0.000 NA
ATOM     15  C   UNL     1      47.963   7.008  12.535  0.00  0.00    +0.000 A 
ATOM     16  N   UNL     1      46.765   6.538  12.181  0.00  0.00    +0.000 NA
ATOM     17  C   UNL     1      45.772   7.441  11.988  0.00  0.00    +0.000 A 
ATOM     18  C   UNL     1      45.995   8.819  12.161  0.00  0.00    +0.000 A 
ATOM     19  C   UNL     1      44.907   9.847  12.102  0.00  0.00    +0.000 C 
BRANCH  13  21
ATOM     20  C   UNL     1      48.443  10.881  11.187  0.00  0.00    +0.000 C 
ATOM     21  O   UNL     1      47.696  10.514  12.361  0.00  0.00    +0.000 OA
ENDBRANCH  13  21
ENDBRANCH  12  17
ENDBRANCH   1  12
TORSDOF 4
ENDMDL
MODEL 6
REMARK VINA RESULT:    -5.389      3.830      7.113
REMARK INTER + INTRA:          -7.362
REMARK INTER:                  -6.801
REMARK INTRA:                  -0.561
REMARK UNBOUND:                -0.713
REMARK  Name = 
REMARK  6 active torsions:
REMARK  status: ('A' for Active; 'I' for Inactive)
REMARK    1  A    between atoms: C_1  and  O_2
REMARK    2  A    between atoms: O_2  and  C_3
REMARK    3  A    between atoms: C_7  and  C_8
REMARK    4  A    between atoms: C_8  and  N_9
REMARK    5  A    between atoms: C_15  and  C_16
REMARK    6  A    between atoms: C_20  and  C_21
REMARK                            x       y       z     vdW  Elec       q    Type
REMARK                         _______ _______ _______ _____ _____    ______ ____
ROOT
ATOM      1  N   UNL     1      46.685   6.653  13.280  0.00  0.00    +0.000 N 
ATOM      2  C   UNL     1      46.698   8.013  13.061  0.00  0.00    +0.000 A 
ATOM      3  C   UNL     1      45.577   8.347  12.337  0.00  0.00    +0.000 A 
ATOM      4  C   UNL     1      44.837   7.157  12.111  0.00  0.00    +0.000 A 
ATOM      5  C   UNL     1      43.671   6.873  11.367  0.00  0.00    +0.000 A 
ATOM      6  C   UNL     1      43.215   5.554  11.278  0.00  0.00    +0.000 A 
ATOM      7  C   UNL     1      43.874   4.526  11.949  0.00  0.00    +0.000 A 
ATOM      8  C   UNL     1      45.023   4.792  12.718  0.00  0.00    +0.000 A 
ATOM      9  C   UNL     1      45.514   6.113  12.755  0.00  0.00    +0.000 A 
ENDROOT
BRANCH   7  10
ATOM     10  C   UNL     1      43.409   3.168  11.802  0.00  0.00    +0.000 C 
ATOM     11  N   UNL     1      43.037   2.086  11.659  0.00  0.00    +0.000 NA
ENDBRANCH   7  10
BRANCH   1  12
ATOM     12  C   UNL     1      47.894   5.902  13.651  0.00  0.00    +0.000 C 
BRANCH  12  17
ATOM     13  C   UNL     1      48.731   5.346  17.313  0.00  0.00    +0.000 A 
ATOM     14  N   UNL     1      48.195   4.131  17.495  0.00  0.00    +0.000 NA
ATOM     15  C   UNL     1      47.524   3.628  16.463  0.00  0.00    +0.000 A 
ATOM     16  N   UNL     1      47.407   4.185  15.255  0.00  0.00    +0.000 NA
ATOM     17  C   UNL     1      47.925   5.426  15.087  0.00  0.00    +0.000 A 
ATOM     18  C   UNL     1      48.555   6.103  16.147  0.00  0.00    +0.000 A 
ATOM     19  C   UNL     1      49.017   7.526  16.062  0.00  0.00    +0.000 C 
BRANCH  13  21
ATOM     20  C   UNL     1      50.062   4.810  19.193  0.00  0.00    +0.000 C 
ATOM     21  O   UNL     1      49.527   5.836  18.336  0.00  0.00    +0.000 OA
ENDBRANCH  13  21
ENDBRANCH  12  17
ENDBRANCH   1  12
TORSDOF 4
ENDMDL
MODEL 7
REMARK VINA RESULT:    -5.284      2.568      3.711
REMARK INTER + INTRA:          -7.232
REMARK INTER:                  -7.252
REMARK INTRA:                   0.020
REMARK UNBOUND:                -0.713
REMARK  Name = 
REMARK  6 active torsions:
REMARK  status: ('A' for Active; 'I' for Inactive)
REMARK    1  A    between atoms: C_1  and  O_2
REMARK    2  A    between atoms: O_2  and  C_3
REMARK    3  A    between atoms: C_7  and  C_8
REMARK    4  A    between atoms: C_8  and  N_9
REMARK    5  A    between atoms: C_15  and  C_16
REMARK    6  A    between atoms: C_20  and  C_21
REMARK                            x       y       z     vdW  Elec       q    Type
REMARK                         _______ _______ _______ _____ _____    ______ ____
ROOT
ATOM      1  N   UNL     1      46.109   7.163  12.514  0.00  0.00    +0.000 N 
ATOM      2  C   UNL     1      45.033   7.996  12.724  0.00  0.00    +0.000 A 
ATOM      3  C   UNL     1      45.447   9.295  12.538  0.00  0.00    +0.000 A 
ATOM      4  C   UNL     1      46.822   9.266  12.188  0.00  0.00    +0.000 A 
ATOM      5  C   UNL     1      47.784  10.276  11.971  0.00  0.00    +0.000 A 
ATOM      6  C   UNL     1      49.109   9.920  11.703  0.00  0.00    +0.000 A 
ATOM      7  C   UNL     1      49.479   8.580  11.605  0.00  0.00    +0.000 A 
ATOM      8  C   UNL     1      48.530   7.557  11.791  0.00  0.00    +0.000 A 
ATOM      9  C   UNL     1      47.210   7.921  12.123  0.00  0.00    +0.000 A 
ENDROOT
BRANCH   7  10
ATOM     10  C   UNL     1      50.862   8.240  11.373  0.00  0.00    +0.000 C 
ATOM     11  N   UNL     1      51.962   7.962  11.162  0.00  0.00    +0.000 NA
ENDBRANCH   7  10
BRANCH   1  12
ATOM     12  C   UNL     1      46.145   5.779  13.012  0.00  0.00    +0.000 C 
BRANCH  12  17
ATOM     13  C   UNL     1      44.211   4.019  10.258  0.00  0.00    +0.000 A 
ATOM     14  N   UNL     1      43.512   3.138  10.989  0.00  0.00    +0.000 NA
ATOM     15  C   UNL     1      43.785   3.111  12.290  0.00  0.00    +0.000 A 
ATOM     16  N   UNL     1      44.625   3.924  12.933  0.00  0.00    +0.000 NA
ATOM     17  C   UNL     1      45.351   4.791  12.186  0.00  0.00    +0.000 A 
ATOM     18  C   UNL     1      45.229   4.825  10.785  0.00  0.00    +0.000 A 
ATOM     19  C   UNL     1      46.105   5.657   9.898  0.00  0.00    +0.000 C 
BRANCH  13  21
ATOM     20  C   UNL     1      44.636   3.302   8.045  0.00  0.00    +0.000 C 
ATOM     21  O   UNL     1      43.861   4.140   8.924  0.00  0.00    +0.000 OA
ENDBRANCH  13  21
ENDBRANCH  12  17
ENDBRANCH   1  12
TORSDOF 4
ENDMDL
MODEL 8
REMARK VINA RESULT:    -5.169      3.466      5.845
REMARK INTER + INTRA:          -7.090
REMARK INTER:                  -6.434
REMARK INTRA:                  -0.656
REMARK UNBOUND:                -0.713
REMARK  Name = 
REMARK  6 active torsions:
REMARK  status: ('A' for Active; 'I' for Inactive)
REMARK    1  A    between atoms: C_1  and  O_2
REMARK    2  A    between atoms: O_2  and  C_3
REMARK    3  A    between atoms: C_7  and  C_8
REMARK    4  A    between atoms: C_8  and  N_9
REMARK    5  A    between atoms: C_15  and  C_16
REMARK    6  A    between atoms: C_20  and  C_21
REMARK                            x       y       z     vdW  Elec       q    Type
REMARK                         _______ _______ _______ _____ _____    ______ ____
ROOT
ATOM      1  N   UNL     1      48.618   7.373  14.067  0.00  0.00    +0.000 N 
ATOM      2  C   UNL     1      48.591   8.733  13.851  0.00  0.00    +0.000 A 
ATOM      3  C   UNL     1      48.581   9.367  15.071  0.00  0.00    +0.000 A 
ATOM      4  C   UNL     1      48.615   8.368  16.079  0.00  0.00    +0.000 A 
ATOM      5  C   UNL     1      48.532   8.414  17.487  0.00  0.00    +0.000 A 
ATOM      6  C   UNL     1      48.524   7.222  18.218  0.00  0.00    +0.000 A 
ATOM      7  C   UNL     1      48.637   5.992  17.573  0.00  0.00    +0.000 A 
ATOM      8  C   UNL     1      48.747   5.924  16.171  0.00  0.00    +0.000 A 
ATOM      9  C   UNL     1      48.693   7.125  15.435  0.00  0.00    +0.000 A 
ENDROOT
BRANCH   7  10
ATOM     10  C   UNL     1      48.579   4.776  18.346  0.00  0.00    +0.000 C 
ATOM     11  N   UNL     1      48.557   3.798  18.958  0.00  0.00    +0.000 NA
ENDBRANCH   7  10
BRANCH   1  12
ATOM     12  C   UNL     1      48.232   6.402  13.033  0.00  0.00    +0.000 C 
BRANCH  12  17
ATOM     13  C   UNL     1      44.928   4.532  12.956  0.00  0.00    +0.000 A 
ATOM     14  N   UNL     1      44.109   5.518  12.559  0.00  0.00    +0.000 NA
ATOM     15  C   UNL     1      44.660   6.723  12.442  0.00  0.00    +0.000 A 
ATOM     16  N   UNL     1      45.952   7.015  12.607  0.00  0.00    +0.000 NA
ATOM     17  C   UNL     1      46.768   6.022  13.037  0.00  0.00    +0.000 A 
ATOM     18  C   UNL     1      46.269   4.735  13.307  0.00  0.00    +0.000 A 
ATOM     19  C   UNL     1      47.091   3.640  13.918  0.00  0.00    +0.000 C 
BRANCH  13  21
ATOM     20  C   UNL     1      43.462   2.999  11.910  0.00  0.00    +0.000 C 
ATOM     21  O   UNL     1      44.399   3.252  12.974  0.00  0.00    +0.000 OA
ENDBRANCH  13  21
ENDBRANCH  12  17
ENDBRANCH   1  12
TORSDOF 4
ENDMDL
MODEL 9
REMARK VINA RESULT:    -4.974      5.122      7.581
REMARK INTER + INTRA:          -6.849
REMARK INTER:                  -6.294
REMARK INTRA:                  -0.555
REMARK UNBOUND:                -0.713
REMARK  Name = 
REMARK  6 active torsions:
REMARK  status: ('A' for Active; 'I' for Inactive)
REMARK    1  A    between atoms: C_1  and  O_2
REMARK    2  A    between atoms: O_2  and  C_3
REMARK    3  A    between atoms: C_7  and  C_8
REMARK    4  A    between atoms: C_8  and  N_9
REMARK    5  A    between atoms: C_15  and  C_16
REMARK    6  A    between atoms: C_20  and  C_21
REMARK                            x       y       z     vdW  Elec       q    Type
REMARK                         _______ _______ _______ _____ _____    ______ ____
ROOT
ATOM      1  N   UNL     1      49.030   6.588  16.190  0.00  0.00    +0.000 N 
ATOM      2  C   UNL     1      50.272   7.156  16.367  0.00  0.00    +0.000 A 
ATOM      3  C   UNL     1      50.726   7.595  15.145  0.00  0.00    +0.000 A 
ATOM      4  C   UNL     1      49.728   7.302  14.180  0.00  0.00    +0.000 A 
ATOM      5  C   UNL     1      49.673   7.435  12.776  0.00  0.00    +0.000 A 
ATOM      6  C   UNL     1      48.548   6.979  12.082  0.00  0.00    +0.000 A 
ATOM      7  C   UNL     1      47.464   6.434  12.767  0.00  0.00    +0.000 A 
ATOM      8  C   UNL     1      47.486   6.316  14.170  0.00  0.00    +0.000 A 
ATOM      9  C   UNL     1      48.648   6.720  14.858  0.00  0.00    +0.000 A 
ENDROOT
BRANCH   7  10
ATOM     10  C   UNL     1      46.335   5.929  12.024  0.00  0.00    +0.000 C 
ATOM     11  N   UNL     1      45.438   5.541  11.410  0.00  0.00    +0.000 NA
ENDBRANCH   7  10
BRANCH   1  12
ATOM     12  C   UNL     1      48.436   5.670  17.174  0.00  0.00    +0.000 C 
BRANCH  12  17
ATOM     13  C   UNL     1      50.754   2.675  17.445  0.00  0.00    +0.000 A 
ATOM     14  N   UNL     1      50.094   1.797  16.675  0.00  0.00    +0.000 NA
ATOM     15  C   UNL     1      48.914   2.198  16.211  0.00  0.00    +0.000 A 
ATOM     16  N   UNL     1      48.375   3.407  16.377  0.00  0.00    +0.000 NA
ATOM     17  C   UNL     1      49.032   4.279  17.181  0.00  0.00    +0.000 A 
ATOM     18  C   UNL     1      50.232   3.920  17.820  0.00  0.00    +0.000 A 
ATOM     19  C   UNL     1      50.924   4.786  18.828  0.00  0.00    +0.000 C 
BRANCH  13  21
ATOM     20  C   UNL     1      52.386   0.965  17.502  0.00  0.00    +0.000 C 
ATOM     21  O   UNL     1      52.032   2.318  17.844  0.00  0.00    +0.000 OA
ENDBRANCH  13  21
ENDBRANCH  12  17
ENDBRANCH   1  12
TORSDOF 4
ENDMDL
