MODEL 1
REMARK VINA RESULT:    -6.771      0.000      0.000
REMARK INTER + INTRA:          -8.846
REMARK INTER:                  -8.354
REMARK INTRA:                  -0.492
REMARK UNBOUND:                -0.492
REMARK  Name = 
REMARK  5 active torsions:
REMARK  status: ('A' for Active; 'I' for Inactive)
REMARK    1  A    between atoms: C_1  and  O_2
REMARK    2  A    between atoms: O_2  and  C_3
REMARK    3  A    between atoms: C_6  and  O_7
REMARK    4  A    between atoms: O_7  and  C_8
REMARK    5  A    between atoms: C_8  and  C_9
REMARK                            x       y       z     vdW  Elec       q    Type
REMARK                         _______ _______ _______ _____ _____    ______ ____
ROOT
ATOM      1  C   UNL     1      46.984   2.263   7.319  0.00  0.00    +0.000 A 
ATOM      2  C   UNL     1      46.334   1.307   8.099  0.00  0.00    +0.000 A 
ATOM      3  C   UNL     1      45.253   1.678   8.908  0.00  0.00    +0.000 A 
ATOM      4  C   UNL     1      44.822   3.005   8.947  0.00  0.00    +0.000 A 
ATOM      5  C   UNL     1      45.437   3.949   8.124  0.00  0.00    +0.000 A 
ATOM      6  C   UNL     1      46.520   3.578   7.324  0.00  0.00    +0.000 A 
ENDROOT
BRANCH   1   8
ATOM      7  C   UNL     1      47.922   2.363   5.138  0.00  0.00    +0.000 C 
ATOM      8  O   UNL     1      48.071   2.054   6.517  0.00  0.00    +0.000 OA
ENDBRANCH   1   8
BRANCH   4   9
ATOM      9  O   UNL     1      43.805   3.272   9.824  0.00  0.00    +0.000 OA
BRANCH   9  10
ATOM     10  C   UNL     1      43.777   4.610  10.324  0.00  0.00    +0.000 C 
BRANCH  10  11
ATOM     11  C   UNL     1      44.766   4.762  11.444  0.00  0.00    +0.000 A 
ATOM     12  C   UNL     1      45.698   5.803  11.458  0.00  0.00    +0.000 A 
ATOM     13  C   UNL     1      46.538   5.961  12.555  0.00  0.00    +0.000 A 
ATOM     14  C   UNL     1      46.416   5.069  13.607  0.00  0.00    +0.000 A 
ATOM     15  N   UNL     1      45.530   4.051  13.631  0.00  0.00    +0.000 NA
ATOM     16  C   UNL     1      44.727   3.921  12.551  0.00  0.00    +0.000 A 
ENDBRANCH  10  11
ENDBRANCH   9  10
ENDBRANCH   4   9
TORSDOF 4
ENDMDL
MODEL 2
REMARK VINA RESULT:    -6.725      2.391      5.741
REMARK INTER + INTRA:          -8.789
REMARK INTER:                  -8.364
REMARK INTRA:                  -0.424
REMARK UNBOUND:                -0.492
REMARK  Name = 
REMARK  5 active torsions:
REMARK  status: ('A' for Active; 'I' for Inactive)
REMARK    1  A    between atoms: C_1  and  O_2
REMARK    2  A    between atoms: O_2  and  C_3
REMARK    3  A    between atoms: C_6  and  O_7
REMARK    4  A    between atoms: O_7  and  C_8
REMARK    5  A    between atoms: C_8  and  C_9
REMARK                            x       y       z     vdW  Elec       q    Type
REMARK                         _______ _______ _______ _____ _____    ______ ____
ROOT
ATOM      1  C   UNL     1      46.518   5.175  13.069  0.00  0.00    +0.000 A 
ATOM      2  C   UNL     1      46.126   5.958  11.983  0.00  0.00    +0.000 A 
ATOM      3  C   UNL     1      45.314   5.412  10.982  0.00  0.00    +0.000 A 
ATOM      4  C   UNL     1      44.898   4.081  11.056  0.00  0.00    +0.000 A 
ATOM      5  C   UNL     1      45.244   3.317  12.170  0.00  0.00    +0.000 A 
ATOM      6  C   UNL     1      46.060   3.860  13.164  0.00  0.00    +0.000 A 
ENDROOT
BRANCH   1   8
ATOM      7  C   UNL     1      48.234   6.630  13.833  0.00  0.00    +0.000 C 
ATOM      8  O   UNL     1      47.336   5.560  14.094  0.00  0.00    +0.000 OA
ENDBRANCH   1   8
BRANCH   4   9
ATOM      9  O   UNL     1      44.167   3.629   9.989  0.00  0.00    +0.000 OA
BRANCH   9  10
ATOM     10  C   UNL     1      44.622   4.083   8.713  0.00  0.00    +0.000 C 
BRANCH  10  11
ATOM     11  C   UNL     1      45.565   3.079   8.115  0.00  0.00    +0.000 A 
ATOM     12  C   UNL     1      46.542   3.457   7.190  0.00  0.00    +0.000 A 
ATOM     13  C   UNL     1      47.453   2.514   6.726  0.00  0.00    +0.000 A 
ATOM     14  C   UNL     1      47.359   1.219   7.208  0.00  0.00    +0.000 A 
ATOM     15  N   UNL     1      46.431   0.816   8.102  0.00  0.00    +0.000 NA
ATOM     16  C   UNL     1      45.557   1.753   8.534  0.00  0.00    +0.000 A 
ENDBRANCH  10  11
ENDBRANCH   9  10
ENDBRANCH   4   9
TORSDOF 4
ENDMDL
MODEL 3
REMARK VINA RESULT:    -6.523      0.797      1.448
REMARK INTER + INTRA:          -8.540
REMARK INTER:                  -8.037
REMARK INTRA:                  -0.503
REMARK UNBOUND:                -0.492
REMARK  Name = 
REMARK  5 active torsions:
REMARK  status: ('A' for Active; 'I' for Inactive)
REMARK    1  A    between atoms: C_1  and  O_2
REMARK    2  A    between atoms: O_2  and  C_3
REMARK    3  A    between atoms: C_6  and  O_7
REMARK    4  A    between atoms: O_7  and  C_8
REMARK    5  A    between atoms: C_8  and  C_9
REMARK                            x       y       z     vdW  Elec       q    Type
REMARK                         _______ _______ _______ _____ _____    ______ ____
ROOT
ATOM      1  C   UNL     1      46.553   2.291   7.546  0.00  0.00    +0.000 A 
ATOM      2  C   UNL     1      46.394   3.676   7.559  0.00  0.00    +0.000 A 
ATOM      3  C   UNL     1      45.442   4.265   8.400  0.00  0.00    +0.000 A 
ATOM      4  C   UNL     1      44.641   3.474   9.224  0.00  0.00    +0.000 A 
ATOM      5  C   UNL     1      44.840   2.094   9.252  0.00  0.00    +0.000 A 
ATOM      6  C   UNL     1      45.784   1.507   8.406  0.00  0.00    +0.000 A 
ENDROOT
BRANCH   1   8
ATOM      7  C   UNL     1      47.977   2.263   5.644  0.00  0.00    +0.000 C 
ATOM      8  O   UNL     1      47.409   1.579   6.753  0.00  0.00    +0.000 OA
ENDBRANCH   1   8
BRANCH   4   9
ATOM      9  O   UNL     1      43.694   4.146   9.953  0.00  0.00    +0.000 OA
BRANCH   9  10
ATOM     10  C   UNL     1      43.562   3.716  11.309  0.00  0.00    +0.000 C 
BRANCH  10  11
ATOM     11  C   UNL     1      44.749   4.170  12.110  0.00  0.00    +0.000 A 
ATOM     12  C   UNL     1      45.018   5.526  12.310  0.00  0.00    +0.000 A 
ATOM     13  C   UNL     1      46.075   5.905  13.131  0.00  0.00    +0.000 A 
ATOM     14  C   UNL     1      46.830   4.910  13.729  0.00  0.00    +0.000 A 
ATOM     15  N   UNL     1      46.602   3.590  13.560  0.00  0.00    +0.000 NA
ATOM     16  C   UNL     1      45.569   3.251  12.756  0.00  0.00    +0.000 A 
ENDBRANCH  10  11
ENDBRANCH   9  10
ENDBRANCH   4   9
TORSDOF 4
ENDMDL
MODEL 4
REMARK VINA RESULT:    -5.871      2.746      6.238
REMARK INTER + INTRA:          -7.736
REMARK INTER:                  -7.263
REMARK INTRA:                  -0.473
REMARK UNBOUND:                -0.492
REMARK  Name = 
REMARK  5 active torsions:
REMARK  status: ('A' for Active; 'I' for Inactive)
REMARK    1  A    between atoms: C_1  and  O_2
REMARK    2  A    between atoms: O_2  and  C_3
REMARK    3  A    between atoms: C_6  and  O_7
REMARK    4  A    between atoms: O_7  and  C_8
REMARK    5  A    between atoms: C_8  and  C_9
REMARK                            x       y       z     vdW  Elec       q    Type
REMARK                         _______ _______ _______ _____ _____    ______ ____
ROOT
ATOM      1  C   UNL     1      47.359   5.235  14.244  0.00  0.00    +0.000 A 
ATOM      2  C   UNL     1      47.565   6.316  13.388  0.00  0.00    +0.000 A 
ATOM      3  C   UNL     1      46.786   6.455  12.233  0.00  0.00    +0.000 A 
ATOM      4  C   UNL     1      45.805   5.511  11.924  0.00  0.00    +0.000 A 
ATOM      5  C   UNL     1      45.563   4.461  12.810  0.00  0.00    +0.000 A 
ATOM      6  C   UNL     1      46.346   4.320  13.958  0.00  0.00    +0.000 A 
ENDROOT
BRANCH   1   8
ATOM      7  C   UNL     1      47.468   4.052  16.302  0.00  0.00    +0.000 C 
ATOM      8  O   UNL     1      48.067   4.952  15.379  0.00  0.00    +0.000 OA
ENDBRANCH   1   8
BRANCH   4   9
ATOM      9  O   UNL     1      45.151   5.703  10.736  0.00  0.00    +0.000 OA
BRANCH   9  10
ATOM     10  C   UNL     1      44.415   4.573  10.265  0.00  0.00    +0.000 C 
BRANCH  10  11
ATOM     11  C   UNL     1      45.227   3.817   9.251  0.00  0.00    +0.000 A 
ATOM     12  C   UNL     1      45.280   2.421   9.255  0.00  0.00    +0.000 A 
ATOM     13  C   UNL     1      45.972   1.756   8.247  0.00  0.00    +0.000 A 
ATOM     14  C   UNL     1      46.586   2.514   7.264  0.00  0.00    +0.000 A 
ATOM     15  N   UNL     1      46.557   3.863   7.227  0.00  0.00    +0.000 NA
ATOM     16  C   UNL     1      45.879   4.483   8.219  0.00  0.00    +0.000 A 
ENDBRANCH  10  11
ENDBRANCH   9  10
ENDBRANCH   4   9
TORSDOF 4
ENDMDL
MODEL 5
REMARK VINA RESULT:    -5.469      1.869      2.618
REMARK INTER + INTRA:          -7.240
REMARK INTER:                  -6.832
REMARK INTRA:                  -0.408
REMARK UNBOUND:                -0.492
REMARK  Name = 
REMARK  5 active torsions:
REMARK  status: ('A' for Active; 'I' for Inactive)
REMARK    1  A    between atoms: C_1  and  O_2
REMARK    2  A    between atoms: O_2  and  C_3
REMARK    3  A    between atoms: C_6  and  O_7
REMARK    4  A    between atoms: O_7  and  C_8
REMARK    5  A    between atoms: C_8  and  C_9
REMARK                            x       y       z     vdW  Elec       q    Type
REMARK                         _______ _______ _______ _____ _____    ______ ____
ROOT
ATOM      1  C   UNL     1      46.015   2.801   7.759  0.00  0.00    +0.000 A 
ATOM      2  C   UNL     1      46.064   4.187   7.910  0.00  0.00    +0.000 A 
ATOM      3  C   UNL     1      45.433   4.796   9.002  0.00  0.00    +0.000 A 
ATOM      4  C   UNL     1      44.744   4.025   9.940  0.00  0.00    +0.000 A 
ATOM      5  C   UNL     1      44.744   2.636   9.818  0.00  0.00    +0.000 A 
ATOM      6  C   UNL     1      45.367   2.031   8.725  0.00  0.00    +0.000 A 
ENDROOT
BRANCH   1   8
ATOM      7  C   UNL     1      47.920   1.723   6.834  0.00  0.00    +0.000 C 
ATOM      8  O   UNL     1      46.548   2.078   6.729  0.00  0.00    +0.000 OA
ENDBRANCH   1   8
BRANCH   4   9
ATOM      9  O   UNL     1      44.103   4.727  10.927  0.00  0.00    +0.000 OA
BRANCH   9  10
ATOM     10  C   UNL     1      44.875   4.942  12.110  0.00  0.00    +0.000 C 
BRANCH  10  11
ATOM     11  C   UNL     1      45.245   6.393  12.226  0.00  0.00    +0.000 A 
ATOM     12  C   UNL     1      44.585   7.375  11.483  0.00  0.00    +0.000 A 
ATOM     13  C   UNL     1      44.897   8.717  11.683  0.00  0.00    +0.000 A 
ATOM     14  C   UNL     1      45.861   9.031  12.625  0.00  0.00    +0.000 A 
ATOM     15  N   UNL     1      46.520   8.112  13.362  0.00  0.00    +0.000 NA
ATOM     16  C   UNL     1      46.198   6.817  13.146  0.00  0.00    +0.000 A 
ENDBRANCH  10  11
ENDBRANCH   9  10
ENDBRANCH   4   9
TORSDOF 4
ENDMDL
MODEL 6
REMARK VINA RESULT:    -5.290      2.726      6.139
REMARK INTER + INTRA:          -7.019
REMARK INTER:                  -6.790
REMARK INTRA:                  -0.228
REMARK UNBOUND:                -0.492
REMARK  Name = 
REMARK  5 active torsions:
REMARK  status: ('A' for Active; 'I' for Inactive)
REMARK    1  A    between atoms: C_1  and  O_2
REMARK    2  A    between atoms: O_2  and  C_3
REMARK    3  A    between atoms: C_6  and  O_7
REMARK    4  A    between atoms: O_7  and  C_8
REMARK    5  A    between atoms: C_8  and  C_9
REMARK                            x       y       z     vdW  Elec       q    Type
REMARK                         _______ _______ _______ _____ _____    ______ ____
ROOT
ATOM      1  C   UNL     1      45.922   7.552  12.837  0.00  0.00    +0.000 A 
ATOM      2  C   UNL     1      44.910   7.963  11.971  0.00  0.00    +0.000 A 
ATOM      3  C   UNL     1      44.231   7.021  11.188  0.00  0.00    +0.000 A 
ATOM      4  C   UNL     1      44.566   5.668  11.262  0.00  0.00    +0.000 A 
ATOM      5  C   UNL     1      45.540   5.252  12.170  0.00  0.00    +0.000 A 
ATOM      6  C   UNL     1      46.221   6.194  12.944  0.00  0.00    +0.000 A 
ENDROOT
BRANCH   1   8
ATOM      7  C   UNL     1      48.098   8.300  13.431  0.00  0.00    +0.000 C 
ATOM      8  O   UNL     1      46.692   8.360  13.628  0.00  0.00    +0.000 OA
ENDBRANCH   1   8
BRANCH   4   9
ATOM      9  O   UNL     1      43.890   4.843  10.402  0.00  0.00    +0.000 OA
BRANCH   9  10
ATOM     10  C   UNL     1      44.344   3.488  10.387  0.00  0.00    +0.000 C 
BRANCH  10  11
ATOM     11  C   UNL     1      45.259   3.265   9.217  0.00  0.00    +0.000 A 
ATOM     12  C   UNL     1      45.666   1.982   8.843  0.00  0.00    +0.000 A 
ATOM     13  C   UNL     1      46.442   1.811   7.701  0.00  0.00    +0.000 A 
ATOM     14  C   UNL     1      46.785   2.934   6.967  0.00  0.00    +0.000 A 
ATOM     15  N   UNL     1      46.412   4.189   7.296  0.00  0.00    +0.000 NA
ATOM     16  C   UNL     1      45.659   4.326   8.411  0.00  0.00    +0.000 A 
ENDBRANCH  10  11
ENDBRANCH   9  10
ENDBRANCH   4   9
TORSDOF 4
ENDMDL
MODEL 7
REMARK VINA RESULT:    -5.076      1.801      2.747
REMARK INTER + INTRA:          -6.755
REMARK INTER:                  -6.548
REMARK INTRA:                  -0.207
REMARK UNBOUND:                -0.492
REMARK  Name = 
REMARK  5 active torsions:
REMARK  status: ('A' for Active; 'I' for Inactive)
REMARK    1  A    between atoms: C_1  and  O_2
REMARK    2  A    between atoms: O_2  and  C_3
REMARK    3  A    between atoms: C_6  and  O_7
REMARK    4  A    between atoms: O_7  and  C_8
REMARK    5  A    between atoms: C_8  and  C_9
REMARK                            x       y       z     vdW  Elec       q    Type
REMARK                         _______ _______ _______ _____ _____    ______ ____
ROOT
ATOM      1  C   UNL     1      45.263   3.377   8.175  0.00  0.00    +0.000 A 
ATOM      2  C   UNL     1      45.575   4.633   8.696  0.00  0.00    +0.000 A 
ATOM      3  C   UNL     1      45.166   4.976   9.990  0.00  0.00    +0.000 A 
ATOM      4  C   UNL     1      44.437   4.071  10.765  0.00  0.00    +0.000 A 
ATOM      5  C   UNL     1      44.176   2.796  10.263  0.00  0.00    +0.000 A 
ATOM      6  C   UNL     1      44.578   2.458   8.969  0.00  0.00    +0.000 A 
ENDROOT
BRANCH   1   8
ATOM      7  C   UNL     1      46.802   3.335   6.365  0.00  0.00    +0.000 C 
ATOM      8  O   UNL     1      45.561   2.922   6.920  0.00  0.00    +0.000 OA
ENDBRANCH   1   8
BRANCH   4   9
ATOM      9  O   UNL     1      44.026   4.534  11.987  0.00  0.00    +0.000 OA
BRANCH   9  10
ATOM     10  C   UNL     1      44.273   5.923  12.218  0.00  0.00    +0.000 C 
BRANCH  10  11
ATOM     11  C   UNL     1      45.548   6.097  12.991  0.00  0.00    +0.000 A 
ATOM     12  C   UNL     1      46.105   5.047  13.725  0.00  0.00    +0.000 A 
ATOM     13  C   UNL     1      47.333   5.222  14.356  0.00  0.00    +0.000 A 
ATOM     14  C   UNL     1      47.966   6.447  14.229  0.00  0.00    +0.000 A 
ATOM     15  N   UNL     1      47.460   7.485  13.530  0.00  0.00    +0.000 NA
ATOM     16  C   UNL     1      46.265   7.287  12.928  0.00  0.00    +0.000 A 
ENDBRANCH  10  11
ENDBRANCH   9  10
ENDBRANCH   4   9
TORSDOF 4
ENDMDL
MODEL 8
REMARK VINA RESULT:    -4.963      2.966      6.174
REMARK INTER + INTRA:          -6.615
REMARK INTER:                  -6.161
REMARK INTRA:                  -0.454
REMARK UNBOUND:                -0.492
REMARK  Name = 
REMARK  5 active torsions:
REMARK  status: ('A' for Active; 'I' for Inactive)
REMARK    1  A    between atoms: C_1  and  O_2
REMARK    2  A    between atoms: O_2  and  C_3
REMARK    3  A    between atoms: C_6  and  O_7
REMARK    4  A    between atoms: O_7  and  C_8
REMARK    5  A    between atoms: C_8  and  C_9
REMARK                            x       y       z     vdW  Elec       q    Type
REMARK                         _______ _______ _______ _____ _____    ______ ____
ROOT
ATOM      1  C   UNL     1      48.594   6.813  13.509  0.00  0.00    +0.000 A 
ATOM      2  C   UNL     1      48.178   7.370  12.301  0.00  0.00    +0.000 A 
ATOM      3  C   UNL     1      46.945   7.004  11.747  0.00  0.00    +0.000 A 
ATOM      4  C   UNL     1      46.128   6.074  12.394  0.00  0.00    +0.000 A 
ATOM      5  C   UNL     1      46.521   5.560  13.629  0.00  0.00    +0.000 A 
ATOM      6  C   UNL     1      47.754   5.921  14.176  0.00  0.00    +0.000 A 
ENDROOT
BRANCH   1   8
ATOM      7  C   UNL     1      49.772   7.004  15.564  0.00  0.00    +0.000 C 
ATOM      8  O   UNL     1      49.783   7.046  14.143  0.00  0.00    +0.000 OA
ENDBRANCH   1   8
BRANCH   4   9
ATOM      9  O   UNL     1      44.978   5.733  11.731  0.00  0.00    +0.000 OA
BRANCH   9  10
ATOM     10  C   UNL     1      45.044   5.860  10.309  0.00  0.00    +0.000 C 
BRANCH  10  11
ATOM     11  C   UNL     1      45.018   4.501   9.670  0.00  0.00    +0.000 A 
ATOM     12  C   UNL     1      45.687   4.247   8.470  0.00  0.00    +0.000 A 
ATOM     13  C   UNL     1      45.712   2.954   7.956  0.00  0.00    +0.000 A 
ATOM     14  C   UNL     1      45.066   1.955   8.664  0.00  0.00    +0.000 A 
ATOM     15  N   UNL     1      44.409   2.161   9.825  0.00  0.00    +0.000 NA
ATOM     16  C   UNL     1      44.400   3.427  10.300  0.00  0.00    +0.000 A 
ENDBRANCH  10  11
ENDBRANCH   9  10
ENDBRANCH   4   9
TORSDOF 4
ENDMDL
MODEL 9
REMARK VINA RESULT:    -4.838      2.456      3.829
REMARK INTER + INTRA:          -6.461
REMARK INTER:                  -6.049
REMARK INTRA:                  -0.412
REMARK UNBOUND:                -0.492
REMARK  Name = 
REMARK  5 active torsions:
REMARK  status: ('A' for Active; 'I' for Inactive)
REMARK    1  A    between atoms: C_1  and  O_2
REMARK    2  A    between atoms: O_2  and  C_3
REMARK    3  A    between atoms: C_6  and  O_7
REMARK    4  A    between atoms: O_7  and  C_8
REMARK    5  A    between atoms: C_8  and  C_9
REMARK                            x       y       z     vdW  Elec       q    Type
REMARK                         _______ _______ _______ _____ _____    ______ ____
ROOT
ATOM      1  C   UNL     1      44.844   3.499   9.449  0.00  0.00    +0.000 A 
ATOM      2  C   UNL     1      44.506   2.916  10.670  0.00  0.00    +0.000 A 
ATOM      3  C   UNL     1      44.621   3.654  11.855  0.00  0.00    +0.000 A 
ATOM      4  C   UNL     1      45.083   4.971  11.826  0.00  0.00    +0.000 A 
ATOM      5  C   UNL     1      45.367   5.570  10.599  0.00  0.00    +0.000 A 
ATOM      6  C   UNL     1      45.258   4.831   9.419  0.00  0.00    +0.000 A 
ENDROOT
BRANCH   1   8
ATOM      7  C   UNL     1      45.778   3.325   7.271  0.00  0.00    +0.000 C 
ATOM      8  O   UNL     1      44.819   2.891   8.225  0.00  0.00    +0.000 OA
ENDBRANCH   1   8
BRANCH   4   9
ATOM      9  O   UNL     1      45.226   5.576  13.047  0.00  0.00    +0.000 OA
BRANCH   9  10
ATOM     10  C   UNL     1      46.566   5.625  13.540  0.00  0.00    +0.000 C 
BRANCH  10  11
ATOM     11  C   UNL     1      47.252   6.865  13.042  0.00  0.00    +0.000 A 
ATOM     12  C   UNL     1      48.492   6.805  12.401  0.00  0.00    +0.000 A 
ATOM     13  C   UNL     1      49.053   7.965  11.877  0.00  0.00    +0.000 A 
ATOM     14  C   UNL     1      48.350   9.151  12.009  0.00  0.00    +0.000 A 
ATOM     15  N   UNL     1      47.151   9.249  12.620  0.00  0.00    +0.000 NA
ATOM     16  C   UNL     1      46.630   8.107  13.122  0.00  0.00    +0.000 A 
ENDBRANCH  10  11
ENDBRANCH   9  10
ENDBRANCH   4   9
TORSDOF 4
ENDMDL
