MODEL 1
REMARK VINA RESULT:    -8.042      0.000      0.000
REMARK INTER + INTRA:         -10.778
REMARK INTER:                 -10.392
REMARK INTRA:                  -0.385
REMARK UNBOUND:                -0.385
REMARK  Name = 
REMARK  6 active torsions:
REMARK  status: ('A' for Active; 'I' for Inactive)
REMARK    1  A    between atoms: C_1  and  C_2
REMARK    2  A    between atoms: C_4  and  C_5
REMARK    3  A    between atoms: C_10  and  N_11
REMARK    4  A    between atoms: N_11  and  C_12
REMARK    5  A    between atoms: C_12  and  C_13
REMARK    6  A    between atoms: C_17  and  C_18
REMARK                            x       y       z     vdW  Elec       q    Type
REMARK                         _______ _______ _______ _____ _____    ______ ____
ROOT
ATOM      1  N   UNL     1      43.842   4.897   9.708  0.00  0.00    +0.000 N 
ATOM      2  H   UNL     1      43.402   5.664   9.205  0.00  0.00    +0.000 HD
ENDROOT
BRANCH   1   9
ATOM      3  C   UNL     1      43.907   1.979   9.993  0.00  0.00    +0.000 C 
ATOM      4  C   UNL     1      44.848   2.750   9.107  0.00  0.00    +0.000 A 
ATOM      5  C   UNL     1      45.861   2.033   8.450  0.00  0.00    +0.000 A 
ATOM      6  C   UNL     1      46.737   2.709   7.612  0.00  0.00    +0.000 A 
ATOM      7  N   UNL     1      46.668   4.044   7.378  0.00  0.00    +0.000 NA
ATOM      8  C   UNL     1      45.681   4.712   8.044  0.00  0.00    +0.000 A 
ATOM      9  C   UNL     1      44.746   4.144   8.923  0.00  0.00    +0.000 A 
BRANCH   6  10
ATOM     10  C   UNL     1      47.835   1.928   6.951  0.00  0.00    +0.000 C 
ATOM     11  N   UNL     1      48.725   2.646   6.203  0.00  0.00    +0.000 N 
ATOM     12  O   UNL     1      47.940   0.713   7.071  0.00  0.00    +0.000 OA
ATOM     13  H   UNL     1      48.634   3.650   6.123  0.00  0.00    +0.000 HD
ATOM     14  H   UNL     1      49.484   2.155   5.751  0.00  0.00    +0.000 HD
ENDBRANCH   6  10
ENDBRANCH   1   9
BRANCH   1  15
ATOM     15  C   UNL     1      43.780   4.944  11.181  0.00  0.00    +0.000 C 
ATOM     16  C   UNL     1      42.719   4.162  11.936  0.00  0.00    +0.000 C 
ATOM     17  C   UNL     1      42.571   5.638  11.811  0.00  0.00    +0.000 C 
BRANCH  15  18
ATOM     18  C   UNL     1      45.115   5.271  11.854  0.00  0.00    +0.000 A 
ATOM     19  C   UNL     1      45.930   6.321  11.404  0.00  0.00    +0.000 A 
ATOM     20  C   UNL     1      47.173   6.589  11.988  0.00  0.00    +0.000 A 
ATOM     21  C   UNL     1      47.628   5.812  13.051  0.00  0.00    +0.000 A 
ATOM     22  C   UNL     1      46.841   4.765  13.531  0.00  0.00    +0.000 A 
ATOM     23  C   UNL     1      45.598   4.502  12.936  0.00  0.00    +0.000 A 
BRANCH  22  24
ATOM     24  C   UNL     1      47.308   3.958  14.621  0.00  0.00    +0.000 C 
ATOM     25  N   UNL     1      47.689   3.302  15.501  0.00  0.00    +0.000 NA
ENDBRANCH  22  24
ENDBRANCH  15  18
ENDBRANCH   1  15
TORSDOF 5
ENDMDL
MODEL 2
REMARK VINA RESULT:    -7.941      2.039      3.157
REMARK INTER + INTRA:         -10.647
REMARK INTER:                  -9.963
REMARK INTRA:                  -0.685
REMARK UNBOUND:                -0.385
REMARK  Name = 
REMARK  6 active torsions:
REMARK  status: ('A' for Active; 'I' for Inactive)
REMARK    1  A    between atoms: C_1  and  C_2
REMARK    2  A    between atoms: C_4  and  C_5
REMARK    3  A    between atoms: C_10  and  N_11
REMARK    4  A    between atoms: N_11  and  C_12
REMARK    5  A    between atoms: C_12  and  C_13
REMARK    6  A    between atoms: C_17  and  C_18
REMARK                            x       y       z     vdW  Elec       q    Type
REMARK                         _______ _______ _______ _____ _____    ______ ____
ROOT
ATOM      1  N   UNL     1      44.507   5.028  10.309  0.00  0.00    +0.000 N 
ATOM      2  H   UNL     1      43.718   5.592  10.001  0.00  0.00    +0.000 HD
ENDROOT
BRANCH   1   9
ATOM      3  C   UNL     1      44.140   2.133  10.012  0.00  0.00    +0.000 C 
ATOM      4  C   UNL     1      45.067   2.947   9.151  0.00  0.00    +0.000 A 
ATOM      5  C   UNL     1      45.856   2.262   8.213  0.00  0.00    +0.000 A 
ATOM      6  C   UNL     1      46.711   2.982   7.390  0.00  0.00    +0.000 A 
ATOM      7  N   UNL     1      46.827   4.333   7.431  0.00  0.00    +0.000 NA
ATOM      8  C   UNL     1      46.057   4.966   8.364  0.00  0.00    +0.000 A 
ATOM      9  C   UNL     1      45.167   4.349   9.257  0.00  0.00    +0.000 A 
BRANCH   6  10
ATOM     10  C   UNL     1      47.572   2.225   6.422  0.00  0.00    +0.000 C 
ATOM     11  N   UNL     1      47.957   2.898   5.297  0.00  0.00    +0.000 N 
ATOM     12  O   UNL     1      47.921   1.066   6.620  0.00  0.00    +0.000 OA
ATOM     13  H   UNL     1      47.672   3.857   5.152  0.00  0.00    +0.000 HD
ATOM     14  H   UNL     1      48.546   2.424   4.627  0.00  0.00    +0.000 HD
ENDBRANCH   6  10
ENDBRANCH   1   9
BRANCH   1  15
ATOM     15  C   UNL     1      45.048   5.313  11.650  0.00  0.00    +0.000 C 
ATOM     16  C   UNL     1      45.454   4.181  12.577  0.00  0.00    +0.000 C 
ATOM     17  C   UNL     1      44.189   4.917  12.853  0.00  0.00    +0.000 C 
BRANCH  15  18
ATOM     18  C   UNL     1      45.714   6.686  11.779  0.00  0.00    +0.000 A 
ATOM     19  C   UNL     1      47.097   6.819  11.972  0.00  0.00    +0.000 A 
ATOM     20  C   UNL     1      47.699   8.071  12.141  0.00  0.00    +0.000 A 
ATOM     21  C   UNL     1      46.925   9.228  12.109  0.00  0.00    +0.000 A 
ATOM     22  C   UNL     1      45.547   9.136  11.910  0.00  0.00    +0.000 A 
ATOM     23  C   UNL     1      44.953   7.876  11.747  0.00  0.00    +0.000 A 
BRANCH  22  24
ATOM     24  C   UNL     1      44.744  10.324  11.884  0.00  0.00    +0.000 C 
ATOM     25  N   UNL     1      44.097  11.288  11.865  0.00  0.00    +0.000 NA
ENDBRANCH  22  24
ENDBRANCH  15  18
ENDBRANCH   1  15
TORSDOF 5
ENDMDL
MODEL 3
REMARK VINA RESULT:    -7.665      1.876      2.493
REMARK INTER + INTRA:         -10.291
REMARK INTER:                  -9.672
REMARK INTRA:                  -0.619
REMARK UNBOUND:                -0.385
REMARK  Name = 
REMARK  6 active torsions:
REMARK  status: ('A' for Active; 'I' for Inactive)
REMARK    1  A    between atoms: C_1  and  C_2
REMARK    2  A    between atoms: C_4  and  C_5
REMARK    3  A    between atoms: C_10  and  N_11
REMARK    4  A    between atoms: N_11  and  C_12
REMARK    5  A    between atoms: C_12  and  C_13
REMARK    6  A    between atoms: C_17  and  C_18
REMARK                            x       y       z     vdW  Elec       q    Type
REMARK                         _______ _______ _______ _____ _____    ______ ____
ROOT
ATOM      1  N   UNL     1      44.510   5.101  10.339  0.00  0.00    +0.000 N 
ATOM      2  H   UNL     1      43.752   5.702  10.024  0.00  0.00    +0.000 HD
ENDROOT
BRANCH   1   9
ATOM      3  C   UNL     1      44.131   2.209  10.033  0.00  0.00    +0.000 C 
ATOM      4  C   UNL     1      45.066   3.020   9.179  0.00  0.00    +0.000 A 
ATOM      5  C   UNL     1      45.857   2.334   8.243  0.00  0.00    +0.000 A 
ATOM      6  C   UNL     1      46.720   3.052   7.427  0.00  0.00    +0.000 A 
ATOM      7  N   UNL     1      46.842   4.403   7.472  0.00  0.00    +0.000 NA
ATOM      8  C   UNL     1      46.070   5.037   8.403  0.00  0.00    +0.000 A 
ATOM      9  C   UNL     1      45.172   4.422   9.289  0.00  0.00    +0.000 A 
BRANCH   6  10
ATOM     10  C   UNL     1      47.583   2.294   6.461  0.00  0.00    +0.000 C 
ATOM     11  N   UNL     1      47.935   2.951   5.316  0.00  0.00    +0.000 N 
ATOM     12  O   UNL     1      47.960   1.148   6.679  0.00  0.00    +0.000 OA
ATOM     13  H   UNL     1      47.626   3.900   5.155  0.00  0.00    +0.000 HD
ATOM     14  H   UNL     1      48.524   2.475   4.647  0.00  0.00    +0.000 HD
ENDBRANCH   6  10
ENDBRANCH   1   9
BRANCH   1  15
ATOM     15  C   UNL     1      45.025   5.334  11.701  0.00  0.00    +0.000 C 
ATOM     16  C   UNL     1      45.301   4.167  12.633  0.00  0.00    +0.000 C 
ATOM     17  C   UNL     1      44.093   5.005  12.869  0.00  0.00    +0.000 C 
BRANCH  15  18
ATOM     18  C   UNL     1      45.798   6.645  11.864  0.00  0.00    +0.000 A 
ATOM     19  C   UNL     1      45.141   7.867  12.067  0.00  0.00    +0.000 A 
ATOM     20  C   UNL     1      45.844   9.073  12.166  0.00  0.00    +0.000 A 
ATOM     21  C   UNL     1      47.235   9.080  12.073  0.00  0.00    +0.000 A 
ATOM     22  C   UNL     1      47.923   7.883  11.880  0.00  0.00    +0.000 A 
ATOM     23  C   UNL     1      47.208   6.680  11.778  0.00  0.00    +0.000 A 
BRANCH  22  24
ATOM     24  C   UNL     1      49.353   7.885  11.777  0.00  0.00    +0.000 C 
ATOM     25  N   UNL     1      50.512   7.892  11.691  0.00  0.00    +0.000 NA
ENDBRANCH  22  24
ENDBRANCH  15  18
ENDBRANCH   1  15
TORSDOF 5
ENDMDL
MODEL 4
REMARK VINA RESULT:    -7.394      1.925      2.683
REMARK INTER + INTRA:          -9.940
REMARK INTER:                  -9.123
REMARK INTRA:                  -0.817
REMARK UNBOUND:                -0.385
REMARK  Name = 
REMARK  6 active torsions:
REMARK  status: ('A' for Active; 'I' for Inactive)
REMARK    1  A    between atoms: C_1  and  C_2
REMARK    2  A    between atoms: C_4  and  C_5
REMARK    3  A    between atoms: C_10  and  N_11
REMARK    4  A    between atoms: N_11  and  C_12
REMARK    5  A    between atoms: C_12  and  C_13
REMARK    6  A    between atoms: C_17  and  C_18
REMARK                            x       y       z     vdW  Elec       q    Type
REMARK                         _______ _______ _______ _____ _____    ______ ____
ROOT
ATOM      1  N   UNL     1      43.874   4.770   9.836  0.00  0.00    +0.000 N 
ATOM      2  H   UNL     1      43.545   5.419   9.125  0.00  0.00    +0.000 HD
ENDROOT
BRANCH   1   9
ATOM      3  C   UNL     1      46.326   5.508   8.405  0.00  0.00    +0.000 C 
ATOM      4  C   UNL     1      45.854   4.090   8.569  0.00  0.00    +0.000 A 
ATOM      5  C   UNL     1      46.589   3.079   7.929  0.00  0.00    +0.000 A 
ATOM      6  C   UNL     1      46.191   1.756   8.071  0.00  0.00    +0.000 A 
ATOM      7  N   UNL     1      45.121   1.372   8.812  0.00  0.00    +0.000 NA
ATOM      8  C   UNL     1      44.421   2.381   9.408  0.00  0.00    +0.000 A 
ATOM      9  C   UNL     1      44.716   3.751   9.330  0.00  0.00    +0.000 A 
BRANCH   6  10
ATOM     10  C   UNL     1      46.969   0.697   7.346  0.00  0.00    +0.000 C 
ATOM     11  N   UNL     1      46.660  -0.598   7.650  0.00  0.00    +0.000 N 
ATOM     12  O   UNL     1      47.835   0.968   6.521  0.00  0.00    +0.000 OA
ATOM     13  H   UNL     1      45.935  -0.807   8.323  0.00  0.00    +0.000 HD
ATOM     14  H   UNL     1      47.156  -1.339   7.174  0.00  0.00    +0.000 HD
ENDBRANCH   6  10
ENDBRANCH   1   9
BRANCH   1  15
ATOM     15  C   UNL     1      43.762   5.205  11.240  0.00  0.00    +0.000 C 
ATOM     16  C   UNL     1      42.509   4.908  12.044  0.00  0.00    +0.000 C 
ATOM     17  C   UNL     1      42.738   6.296  11.558  0.00  0.00    +0.000 C 
BRANCH  15  18
ATOM     18  C   UNL     1      45.106   5.378  11.952  0.00  0.00    +0.000 A 
ATOM     19  C   UNL     1      45.498   4.535  13.003  0.00  0.00    +0.000 A 
ATOM     20  C   UNL     1      46.704   4.724  13.687  0.00  0.00    +0.000 A 
ATOM     21  C   UNL     1      47.557   5.765  13.324  0.00  0.00    +0.000 A 
ATOM     22  C   UNL     1      47.205   6.618  12.279  0.00  0.00    +0.000 A 
ATOM     23  C   UNL     1      45.992   6.422  11.603  0.00  0.00    +0.000 A 
BRANCH  22  24
ATOM     24  C   UNL     1      48.076   7.695  11.906  0.00  0.00    +0.000 C 
ATOM     25  N   UNL     1      48.779   8.567  11.599  0.00  0.00    +0.000 NA
ENDBRANCH  22  24
ENDBRANCH  15  18
ENDBRANCH   1  15
TORSDOF 5
ENDMDL
MODEL 5
REMARK VINA RESULT:    -7.052      3.165      6.327
REMARK INTER + INTRA:          -9.499
REMARK INTER:                  -9.121
REMARK INTRA:                  -0.379
REMARK UNBOUND:                -0.385
REMARK  Name = 
REMARK  6 active torsions:
REMARK  status: ('A' for Active; 'I' for Inactive)
REMARK    1  A    between atoms: C_1  and  C_2
REMARK    2  A    between atoms: C_4  and  C_5
REMARK    3  A    between atoms: C_10  and  N_11
REMARK    4  A    between atoms: N_11  and  C_12
REMARK    5  A    between atoms: C_12  and  C_13
REMARK    6  A    between atoms: C_17  and  C_18
REMARK                            x       y       z     vdW  Elec       q    Type
REMARK                         _______ _______ _______ _____ _____    ______ ____
ROOT
ATOM      1  N   UNL     1      45.390   3.910  12.329  0.00  0.00    +0.000 N 
ATOM      2  H   UNL     1      45.744   3.049  12.737  0.00  0.00    +0.000 HD
ENDROOT
BRANCH   1   9
ATOM      3  C   UNL     1      47.280   3.768  14.567  0.00  0.00    +0.000 C 
ATOM      4  C   UNL     1      46.997   5.028  13.795  0.00  0.00    +0.000 A 
ATOM      5  C   UNL     1      47.613   6.213  14.231  0.00  0.00    +0.000 A 
ATOM      6  C   UNL     1      47.387   7.392  13.534  0.00  0.00    +0.000 A 
ATOM      7  N   UNL     1      46.600   7.470  12.431  0.00  0.00    +0.000 NA
ATOM      8  C   UNL     1      46.005   6.303  12.045  0.00  0.00    +0.000 A 
ATOM      9  C   UNL     1      46.146   5.056  12.672  0.00  0.00    +0.000 A 
BRANCH   6  10
ATOM     10  C   UNL     1      48.026   8.652  14.040  0.00  0.00    +0.000 C 
ATOM     11  N   UNL     1      47.559   9.133  15.231  0.00  0.00    +0.000 N 
ATOM     12  O   UNL     1      48.921   9.226  13.429  0.00  0.00    +0.000 OA
ATOM     13  H   UNL     1      46.829   8.642  15.730  0.00  0.00    +0.000 HD
ATOM     14  H   UNL     1      47.973   9.974  15.609  0.00  0.00    +0.000 HD
ENDBRANCH   6  10
ENDBRANCH   1   9
BRANCH   1  15
ATOM     15  C   UNL     1      44.456   3.777  11.195  0.00  0.00    +0.000 C 
ATOM     16  C   UNL     1      43.084   4.425  11.243  0.00  0.00    +0.000 C 
ATOM     17  C   UNL     1      43.188   2.951  11.424  0.00  0.00    +0.000 C 
BRANCH  15  18
ATOM     18  C   UNL     1      45.137   3.523   9.848  0.00  0.00    +0.000 A 
ATOM     19  C   UNL     1      45.370   4.560   8.933  0.00  0.00    +0.000 A 
ATOM     20  C   UNL     1      45.946   4.320   7.680  0.00  0.00    +0.000 A 
ATOM     21  C   UNL     1      46.316   3.026   7.318  0.00  0.00    +0.000 A 
ATOM     22  C   UNL     1      46.107   1.971   8.205  0.00  0.00    +0.000 A 
ATOM     23  C   UNL     1      45.524   2.222   9.456  0.00  0.00    +0.000 A 
BRANCH  22  24
ATOM     24  C   UNL     1      46.479   0.636   7.834  0.00  0.00    +0.000 C 
ATOM     25  N   UNL     1      46.781  -0.443   7.529  0.00  0.00    +0.000 NA
ENDBRANCH  22  24
ENDBRANCH  15  18
ENDBRANCH   1  15
TORSDOF 5
ENDMDL
MODEL 6
REMARK VINA RESULT:    -6.419      2.922      6.965
REMARK INTER + INTRA:          -8.680
REMARK INTER:                  -8.554
REMARK INTRA:                  -0.126
REMARK UNBOUND:                -0.385
REMARK  Name = 
REMARK  6 active torsions:
REMARK  status: ('A' for Active; 'I' for Inactive)
REMARK    1  A    between atoms: C_1  and  C_2
REMARK    2  A    between atoms: C_4  and  C_5
REMARK    3  A    between atoms: C_10  and  N_11
REMARK    4  A    between atoms: N_11  and  C_12
REMARK    5  A    between atoms: C_12  and  C_13
REMARK    6  A    between atoms: C_17  and  C_18
REMARK                            x       y       z     vdW  Elec       q    Type
REMARK                         _______ _______ _______ _____ _____    ______ ____
ROOT
ATOM      1  N   UNL     1      46.884   5.977  12.257  0.00  0.00    +0.000 N 
ATOM      2  H   UNL     1      47.641   6.545  11.885  0.00  0.00    +0.000 HD
ENDROOT
BRANCH   1   9
ATOM      3  C   UNL     1      48.190   7.692  14.247  0.00  0.00    +0.000 C 
ATOM      4  C   UNL     1      47.839   6.250  14.493  0.00  0.00    +0.000 A 
ATOM      5  C   UNL     1      48.238   5.681  15.713  0.00  0.00    +0.000 A 
ATOM      6  C   UNL     1      47.918   4.357  15.982  0.00  0.00    +0.000 A 
ATOM      7  N   UNL     1      47.223   3.567  15.125  0.00  0.00    +0.000 NA
ATOM      8  C   UNL     1      46.864   4.147  13.942  0.00  0.00    +0.000 A 
ATOM      9  C   UNL     1      47.139   5.467  13.552  0.00  0.00    +0.000 A 
BRANCH   6  10
ATOM     10  C   UNL     1      48.387   3.760  17.276  0.00  0.00    +0.000 C 
ATOM     11  N   UNL     1      47.457   3.065  17.996  0.00  0.00    +0.000 N 
ATOM     12  O   UNL     1      49.541   3.879  17.674  0.00  0.00    +0.000 OA
ATOM     13  H   UNL     1      46.513   2.964  17.650  0.00  0.00    +0.000 HD
ATOM     14  H   UNL     1      47.740   2.639  18.868  0.00  0.00    +0.000 HD
ENDBRANCH   6  10
ENDBRANCH   1   9
BRANCH   1  15
ATOM     15  C   UNL     1      45.568   6.107  11.604  0.00  0.00    +0.000 C 
ATOM     16  C   UNL     1      44.953   7.476  11.369  0.00  0.00    +0.000 C 
ATOM     17  C   UNL     1      44.408   6.622  12.460  0.00  0.00    +0.000 C 
BRANCH  15  18
ATOM     18  C   UNL     1      45.202   4.935  10.691  0.00  0.00    +0.000 A 
ATOM     19  C   UNL     1      44.363   3.897  11.123  0.00  0.00    +0.000 A 
ATOM     20  C   UNL     1      44.070   2.800  10.305  0.00  0.00    +0.000 A 
ATOM     21  C   UNL     1      44.605   2.723   9.021  0.00  0.00    +0.000 A 
ATOM     22  C   UNL     1      45.437   3.740   8.554  0.00  0.00    +0.000 A 
ATOM     23  C   UNL     1      45.729   4.833   9.383  0.00  0.00    +0.000 A 
BRANCH  22  24
ATOM     24  C   UNL     1      45.997   3.662   7.236  0.00  0.00    +0.000 C 
ATOM     25  N   UNL     1      46.447   3.601   6.167  0.00  0.00    +0.000 NA
ENDBRANCH  22  24
ENDBRANCH  15  18
ENDBRANCH   1  15
TORSDOF 5
ENDMDL
MODEL 7
REMARK VINA RESULT:    -6.352      3.297      7.412
REMARK INTER + INTRA:          -8.595
REMARK INTER:                  -7.872
REMARK INTRA:                  -0.722
REMARK UNBOUND:                -0.385
REMARK  Name = 
REMARK  6 active torsions:
REMARK  status: ('A' for Active; 'I' for Inactive)
REMARK    1  A    between atoms: C_1  and  C_2
REMARK    2  A    between atoms: C_4  and  C_5
REMARK    3  A    between atoms: C_10  and  N_11
REMARK    4  A    between atoms: N_11  and  C_12
REMARK    5  A    between atoms: C_12  and  C_13
REMARK    6  A    between atoms: C_17  and  C_18
REMARK                            x       y       z     vdW  Elec       q    Type
REMARK                         _______ _______ _______ _____ _____    ______ ____
ROOT
ATOM      1  N   UNL     1      46.632   5.108  15.122  0.00  0.00    +0.000 N 
ATOM      2  H   UNL     1      45.729   5.145  15.589  0.00  0.00    +0.000 HD
ENDROOT
BRANCH   1   9
ATOM      3  C   UNL     1      48.361   6.420  17.095  0.00  0.00    +0.000 C 
ATOM      4  C   UNL     1      48.493   4.974  16.704  0.00  0.00    +0.000 A 
ATOM      5  C   UNL     1      49.557   4.243  17.258  0.00  0.00    +0.000 A 
ATOM      6  C   UNL     1      49.700   2.901  16.933  0.00  0.00    +0.000 A 
ATOM      7  N   UNL     1      48.855   2.237  16.104  0.00  0.00    +0.000 NA
ATOM      8  C   UNL     1      47.842   2.982  15.572  0.00  0.00    +0.000 A 
ATOM      9  C   UNL     1      47.600   4.342  15.815  0.00  0.00    +0.000 A 
BRANCH   6  10
ATOM     10  C   UNL     1      50.867   2.150  17.506  0.00  0.00    +0.000 C 
ATOM     11  N   UNL     1      51.686   2.850  18.346  0.00  0.00    +0.000 N 
ATOM     12  O   UNL     1      51.082   0.972  17.244  0.00  0.00    +0.000 OA
ATOM     13  H   UNL     1      51.489   3.818  18.563  0.00  0.00    +0.000 HD
ATOM     14  H   UNL     1      52.475   2.375  18.760  0.00  0.00    +0.000 HD
ENDBRANCH   6  10
ENDBRANCH   1   9
BRANCH   1  15
ATOM     15  C   UNL     1      46.663   5.489  13.698  0.00  0.00    +0.000 C 
ATOM     16  C   UNL     1      47.983   5.781  13.005  0.00  0.00    +0.000 C 
ATOM     17  C   UNL     1      47.093   6.919  13.364  0.00  0.00    +0.000 C 
BRANCH  15  18
ATOM     18  C   UNL     1      45.466   4.987  12.888  0.00  0.00    +0.000 A 
ATOM     19  C   UNL     1      44.151   5.352  13.212  0.00  0.00    +0.000 A 
ATOM     20  C   UNL     1      43.053   4.853  12.502  0.00  0.00    +0.000 A 
ATOM     21  C   UNL     1      43.249   3.978  11.436  0.00  0.00    +0.000 A 
ATOM     22  C   UNL     1      44.543   3.599  11.079  0.00  0.00    +0.000 A 
ATOM     23  C   UNL     1      45.637   4.102  11.800  0.00  0.00    +0.000 A 
BRANCH  22  24
ATOM     24  C   UNL     1      44.751   2.693   9.987  0.00  0.00    +0.000 C 
ATOM     25  N   UNL     1      44.918   1.963   9.099  0.00  0.00    +0.000 NA
ENDBRANCH  22  24
ENDBRANCH  15  18
ENDBRANCH   1  15
TORSDOF 5
ENDMDL
MODEL 8
REMARK VINA RESULT:    -6.346      3.127      6.190
REMARK INTER + INTRA:          -8.586
REMARK INTER:                  -7.776
REMARK INTRA:                  -0.810
REMARK UNBOUND:                -0.385
REMARK  Name = 
REMARK  6 active torsions:
REMARK  status: ('A' for Active; 'I' for Inactive)
REMARK    1  A    between atoms: C_1  and  C_2
REMARK    2  A    between atoms: C_4  and  C_5
REMARK    3  A    between atoms: C_10  and  N_11
REMARK    4  A    between atoms: N_11  and  C_12
REMARK    5  A    between atoms: C_12  and  C_13
REMARK    6  A    between atoms: C_17  and  C_18
REMARK                            x       y       z     vdW  Elec       q    Type
REMARK                         _______ _______ _______ _____ _____    ______ ____
ROOT
ATOM      1  N   UNL     1      44.568   5.714  12.857  0.00  0.00    +0.000 N 
ATOM      2  H   UNL     1      44.333   5.104  13.636  0.00  0.00    +0.000 HD
ENDROOT
BRANCH   1   9
ATOM      3  C   UNL     1      46.856   4.014  13.546  0.00  0.00    +0.000 C 
ATOM      4  C   UNL     1      46.952   5.504  13.363  0.00  0.00    +0.000 A 
ATOM      5  C   UNL     1      48.190   6.115  13.620  0.00  0.00    +0.000 A 
ATOM      6  C   UNL     1      48.320   7.486  13.446  0.00  0.00    +0.000 A 
ATOM      7  N   UNL     1      47.307   8.286  13.027  0.00  0.00    +0.000 NA
ATOM      8  C   UNL     1      46.114   7.662  12.802  0.00  0.00    +0.000 A 
ATOM      9  C   UNL     1      45.856   6.291  12.953  0.00  0.00    +0.000 A 
BRANCH   6  10
ATOM     10  C   UNL     1      49.642   8.122  13.763  0.00  0.00    +0.000 C 
ATOM     11  N   UNL     1      50.527   7.360  14.473  0.00  0.00    +0.000 N 
ATOM     12  O   UNL     1      49.925   9.260  13.406  0.00  0.00    +0.000 OA
ATOM     13  H   UNL     1      50.285   6.419  14.750  0.00  0.00    +0.000 HD
ATOM     14  H   UNL     1      51.431   7.752  14.696  0.00  0.00    +0.000 HD
ENDBRANCH   6  10
ENDBRANCH   1   9
BRANCH   1  15
ATOM     15  C   UNL     1      43.748   5.585  11.638  0.00  0.00    +0.000 C 
ATOM     16  C   UNL     1      43.055   6.797  11.040  0.00  0.00    +0.000 C 
ATOM     17  C   UNL     1      42.239   5.796  11.782  0.00  0.00    +0.000 C 
BRANCH  15  18
ATOM     18  C   UNL     1      44.135   4.405  10.744  0.00  0.00    +0.000 A 
ATOM     19  C   UNL     1      43.790   3.086  11.075  0.00  0.00    +0.000 A 
ATOM     20  C   UNL     1      44.188   2.002  10.284  0.00  0.00    +0.000 A 
ATOM     21  C   UNL     1      44.936   2.217   9.128  0.00  0.00    +0.000 A 
ATOM     22  C   UNL     1      45.290   3.515   8.764  0.00  0.00    +0.000 A 
ATOM     23  C   UNL     1      44.891   4.595   9.566  0.00  0.00    +0.000 A 
BRANCH  22  24
ATOM     24  C   UNL     1      46.067   3.742   7.579  0.00  0.00    +0.000 C 
ATOM     25  N   UNL     1      46.700   3.924   6.622  0.00  0.00    +0.000 NA
ENDBRANCH  22  24
ENDBRANCH  15  18
ENDBRANCH   1  15
TORSDOF 5
ENDMDL
MODEL 9
REMARK VINA RESULT:    -6.110      3.197      5.435
REMARK INTER + INTRA:          -8.281
REMARK INTER:                  -8.039
REMARK INTRA:                  -0.242
REMARK UNBOUND:                -0.385
REMARK  Name = 
REMARK  6 active torsions:
REMARK  status: ('A' for Active; 'I' for Inactive)
REMARK    1  A    between atoms: C_1  and  C_2
REMARK    2  A    between atoms: C_4  and  C_5
REMARK    3  A    between atoms: C_10  and  N_11
REMARK    4  A    between atoms: N_11  and  C_12
REMARK    5  A    between atoms: C_12  and  C_13
REMARK    6  A    between atoms: C_17  and  C_18
REMARK                            x       y       z     vdW  Elec       q    Type
REMARK                         _______ _______ _______ _____ _____    ______ ____
ROOT
ATOM      1  N   UNL     1      46.876   6.774  13.910  0.00  0.00    +0.000 N 
ATOM      2  H   UNL     1      46.217   7.432  14.319  0.00  0.00    +0.000 HD
ENDROOT
BRANCH   1   9
ATOM      3  C   UNL     1      45.257   7.508  11.577  0.00  0.00    +0.000 C 
ATOM      4  C   UNL     1      45.415   6.096  12.069  0.00  0.00    +0.000 A 
ATOM      5  C   UNL     1      44.677   5.092  11.420  0.00  0.00    +0.000 A 
ATOM      6  C   UNL     1      44.810   3.775  11.836  0.00  0.00    +0.000 A 
ATOM      7  N   UNL     1      45.631   3.388  12.845  0.00  0.00    +0.000 NA
ATOM      8  C   UNL     1      46.322   4.391  13.464  0.00  0.00    +0.000 A 
ATOM      9  C   UNL     1      46.263   5.755  13.143  0.00  0.00    +0.000 A 
BRANCH   6  10
ATOM     10  C   UNL     1      43.983   2.725  11.153  0.00  0.00    +0.000 C 
ATOM     11  N   UNL     1      44.450   2.271   9.952  0.00  0.00    +0.000 N 
ATOM     12  O   UNL     1      42.945   2.290  11.638  0.00  0.00    +0.000 OA
ATOM     13  H   UNL     1      45.315   2.630   9.570  0.00  0.00    +0.000 HD
ATOM     14  H   UNL     1      43.925   1.556   9.468  0.00  0.00    +0.000 HD
ENDBRANCH   6  10
ENDBRANCH   1   9
BRANCH   1  15
ATOM     15  C   UNL     1      48.288   7.196  13.847  0.00  0.00    +0.000 C 
ATOM     16  C   UNL     1      48.700   8.397  13.014  0.00  0.00    +0.000 C 
ATOM     17  C   UNL     1      49.011   7.031  12.508  0.00  0.00    +0.000 C 
BRANCH  15  18
ATOM     18  C   UNL     1      49.120   6.786  15.065  0.00  0.00    +0.000 A 
ATOM     19  C   UNL     1      50.400   7.313  15.294  0.00  0.00    +0.000 A 
ATOM     20  C   UNL     1      51.181   6.901  16.379  0.00  0.00    +0.000 A 
ATOM     21  C   UNL     1      50.689   5.952  17.274  0.00  0.00    +0.000 A 
ATOM     22  C   UNL     1      49.418   5.413  17.083  0.00  0.00    +0.000 A 
ATOM     23  C   UNL     1      48.644   5.829  15.989  0.00  0.00    +0.000 A 
BRANCH  22  24
ATOM     24  C   UNL     1      48.909   4.431  17.997  0.00  0.00    +0.000 C 
ATOM     25  N   UNL     1      48.501   3.637  18.740  0.00  0.00    +0.000 NA
ENDBRANCH  22  24
ENDBRANCH  15  18
ENDBRANCH   1  15
TORSDOF 5
ENDMDL
