MODEL 1
REMARK VINA RESULT:    -8.014      0.000      0.000
REMARK INTER + INTRA:         -10.762
REMARK INTER:                 -10.122
REMARK INTRA:                  -0.639
REMARK UNBOUND:                -0.639
REMARK  Name = 
REMARK  7 active torsions:
REMARK  status: ('A' for Active; 'I' for Inactive)
REMARK    1  A    between atoms: C_1  and  O_2
REMARK    2  A    between atoms: O_2  and  C_3
REMARK    3  A    between atoms: N_6  and  C_7
REMARK    4  A    between atoms: C_7  and  C_8
REMARK    5  A    between atoms: C_12  and  C_13
REMARK    6  A    between atoms: C_17  and  C_18
REMARK    7  A    between atoms: C_23  and  N_24
REMARK                            x       y       z     vdW  Elec       q    Type
REMARK                         _______ _______ _______ _____ _____    ______ ____
ROOT
ATOM      1  C   UNL     1      43.524   3.450  11.520  0.00  0.00    +0.000 C 
ENDROOT
BRANCH   1   5
ATOM      2  C   UNL     1      46.346   2.127   7.996  0.00  0.00    +0.000 A 
ATOM      3  N   UNL     1      45.627   1.854   9.115  0.00  0.00    +0.000 NA
ATOM      4  C   UNL     1      44.727   2.781   9.491  0.00  0.00    +0.000 A 
ATOM      5  N   UNL     1      43.929   2.432  10.565  0.00  0.00    +0.000 N 
ATOM      6  C   UNL     1      44.583   3.955   8.746  0.00  0.00    +0.000 A 
ATOM      7  N   UNL     1      45.310   4.256   7.640  0.00  0.00    +0.000 NA
ATOM      8  C   UNL     1      46.190   3.314   7.257  0.00  0.00    +0.000 A 
ATOM      9  H   UNL     1      44.337   1.607  11.007  0.00  0.00    +0.000 HD
BRANCH   8  10
ATOM     10  N   UNL     1      46.939   3.606   6.114  0.00  0.00    +0.000 N 
ATOM     11  H   UNL     1      47.483   4.440   6.307  0.00  0.00    +0.000 HD
ATOM     12  H   UNL     1      46.338   3.694   5.302  0.00  0.00    +0.000 HD
ENDBRANCH   8  10
BRANCH   2  14
ATOM     13  C   UNL     1      46.724  -0.152   7.609  0.00  0.00    +0.000 C 
ATOM     14  O   UNL     1      47.226   1.176   7.505  0.00  0.00    +0.000 OA
ENDBRANCH   2  14
ENDBRANCH   1   5
BRANCH   1  15
ATOM     15  C   UNL     1      44.743   4.032  12.202  0.00  0.00    +0.000 A 
ATOM     16  C   UNL     1      45.598   3.218  12.934  0.00  0.00    +0.000 A 
ATOM     17  N   UNL     1      46.695   3.688  13.565  0.00  0.00    +0.000 NA
ATOM     18  C   UNL     1      46.923   5.016  13.412  0.00  0.00    +0.000 A 
ATOM     19  C   UNL     1      46.103   5.859  12.665  0.00  0.00    +0.000 A 
ATOM     20  N   UNL     1      44.987   5.367  12.061  0.00  0.00    +0.000 NA
BRANCH  19  21
ATOM     21  C   UNL     1      46.376   7.296  12.475  0.00  0.00    +0.000 A 
ATOM     22  C   UNL     1      47.677   7.801  12.578  0.00  0.00    +0.000 A 
ATOM     23  C   UNL     1      47.895   9.156  12.393  0.00  0.00    +0.000 A 
ATOM     24  N   UNL     1      46.917  10.044  12.122  0.00  0.00    +0.000 NA
ATOM     25  C   UNL     1      45.656   9.568  12.038  0.00  0.00    +0.000 A 
ATOM     26  C   UNL     1      44.561  10.555  11.766  0.00  0.00    +0.000 C 
ATOM     27  C   UNL     1      45.353   8.216  12.201  0.00  0.00    +0.000 A 
ENDBRANCH  19  21
ENDBRANCH   1  15
TORSDOF 5
ENDMDL
MODEL 2
REMARK VINA RESULT:    -7.961      1.402      2.162
REMARK INTER + INTRA:         -10.694
REMARK INTER:                  -9.994
REMARK INTRA:                  -0.701
REMARK UNBOUND:                -0.639
REMARK  Name = 
REMARK  7 active torsions:
REMARK  status: ('A' for Active; 'I' for Inactive)
REMARK    1  A    between atoms: C_1  and  O_2
REMARK    2  A    between atoms: O_2  and  C_3
REMARK    3  A    between atoms: N_6  and  C_7
REMARK    4  A    between atoms: C_7  and  C_8
REMARK    5  A    between atoms: C_12  and  C_13
REMARK    6  A    between atoms: C_17  and  C_18
REMARK    7  A    between atoms: C_23  and  N_24
REMARK                            x       y       z     vdW  Elec       q    Type
REMARK                         _______ _______ _______ _____ _____    ______ ____
ROOT
ATOM      1  C   UNL     1      43.931   4.378  10.370  0.00  0.00    +0.000 C 
ENDROOT
BRANCH   1   5
ATOM      2  C   UNL     1      46.789   1.867   7.602  0.00  0.00    +0.000 A 
ATOM      3  N   UNL     1      45.796   1.955   8.524  0.00  0.00    +0.000 NA
ATOM      4  C   UNL     1      45.227   3.164   8.678  0.00  0.00    +0.000 A 
ATOM      5  N   UNL     1      44.144   3.205   9.538  0.00  0.00    +0.000 N 
ATOM      6  C   UNL     1      45.674   4.248   7.917  0.00  0.00    +0.000 A 
ATOM      7  N   UNL     1      46.682   4.184   7.009  0.00  0.00    +0.000 NA
ATOM      8  C   UNL     1      47.229   2.967   6.844  0.00  0.00    +0.000 A 
ATOM      9  H   UNL     1      44.126   2.331  10.065  0.00  0.00    +0.000 HD
BRANCH   8  10
ATOM     10  N   UNL     1      48.261   2.884   5.906  0.00  0.00    +0.000 N 
ATOM     11  H   UNL     1      48.003   2.176   5.225  0.00  0.00    +0.000 HD
ATOM     12  H   UNL     1      49.149   2.701   6.362  0.00  0.00    +0.000 HD
ENDBRANCH   8  10
BRANCH   2  14
ATOM     13  C   UNL     1      46.478  -0.455   7.601  0.00  0.00    +0.000 C 
ATOM     14  O   UNL     1      47.357   0.633   7.332  0.00  0.00    +0.000 OA
ENDBRANCH   2  14
ENDBRANCH   1   5
BRANCH   1  15
ATOM     15  C   UNL     1      44.946   4.406  11.492  0.00  0.00    +0.000 A 
ATOM     16  C   UNL     1      45.102   3.308  12.330  0.00  0.00    +0.000 A 
ATOM     17  N   UNL     1      45.989   3.284  13.348  0.00  0.00    +0.000 NA
ATOM     18  C   UNL     1      46.742   4.403  13.482  0.00  0.00    +0.000 A 
ATOM     19  C   UNL     1      46.633   5.512  12.646  0.00  0.00    +0.000 A 
ATOM     20  N   UNL     1      45.711   5.524  11.644  0.00  0.00    +0.000 NA
BRANCH  19  21
ATOM     21  C   UNL     1      47.479   6.713  12.778  0.00  0.00    +0.000 A 
ATOM     22  C   UNL     1      47.198   7.875  12.052  0.00  0.00    +0.000 A 
ATOM     23  C   UNL     1      48.015   8.983  12.201  0.00  0.00    +0.000 A 
ATOM     24  N   UNL     1      49.092   9.017  13.012  0.00  0.00    +0.000 NA
ATOM     25  C   UNL     1      49.381   7.895  13.703  0.00  0.00    +0.000 A 
ATOM     26  C   UNL     1      50.595   7.918  14.583  0.00  0.00    +0.000 C 
ATOM     27  C   UNL     1      48.604   6.740  13.616  0.00  0.00    +0.000 A 
ENDBRANCH  19  21
ENDBRANCH   1  15
TORSDOF 5
ENDMDL
MODEL 3
REMARK VINA RESULT:    -7.125      2.987      7.275
REMARK INTER + INTRA:          -9.639
REMARK INTER:                  -9.213
REMARK INTRA:                  -0.426
REMARK UNBOUND:                -0.639
REMARK  Name = 
REMARK  7 active torsions:
REMARK  status: ('A' for Active; 'I' for Inactive)
REMARK    1  A    between atoms: C_1  and  O_2
REMARK    2  A    between atoms: O_2  and  C_3
REMARK    3  A    between atoms: N_6  and  C_7
REMARK    4  A    between atoms: C_7  and  C_8
REMARK    5  A    between atoms: C_12  and  C_13
REMARK    6  A    between atoms: C_17  and  C_18
REMARK    7  A    between atoms: C_23  and  N_24
REMARK                            x       y       z     vdW  Elec       q    Type
REMARK                         _______ _______ _______ _____ _____    ______ ____
ROOT
ATOM      1  C   UNL     1      44.244   7.130  11.497  0.00  0.00    +0.000 C 
ENDROOT
BRANCH   1   5
ATOM      2  C   UNL     1      48.086   8.396  13.898  0.00  0.00    +0.000 A 
ATOM      3  N   UNL     1      46.737   8.309  13.765  0.00  0.00    +0.000 NA
ATOM      4  C   UNL     1      46.281   7.469  12.818  0.00  0.00    +0.000 A 
ATOM      5  N   UNL     1      44.907   7.311  12.777  0.00  0.00    +0.000 N 
ATOM      6  C   UNL     1      47.184   6.753  12.027  0.00  0.00    +0.000 A 
ATOM      7  N   UNL     1      48.535   6.846  12.129  0.00  0.00    +0.000 NA
ATOM      8  C   UNL     1      48.982   7.669  13.094  0.00  0.00    +0.000 A 
ATOM      9  H   UNL     1      44.488   8.048  13.346  0.00  0.00    +0.000 HD
BRANCH   8  10
ATOM     10  N   UNL     1      50.371   7.768  13.217  0.00  0.00    +0.000 N 
ATOM     11  H   UNL     1      50.726   8.198  12.368  0.00  0.00    +0.000 HD
ATOM     12  H   UNL     1      50.781   6.862  13.414  0.00  0.00    +0.000 HD
ENDBRANCH   8  10
BRANCH   2  14
ATOM     13  C   UNL     1      48.536   8.556  16.191  0.00  0.00    +0.000 C 
ATOM     14  O   UNL     1      48.620   9.175  14.912  0.00  0.00    +0.000 OA
ENDBRANCH   2  14
ENDBRANCH   1   5
BRANCH   1  15
ATOM     15  C   UNL     1      44.082   5.655  11.203  0.00  0.00    +0.000 A 
ATOM     16  C   UNL     1      43.167   4.889  11.915  0.00  0.00    +0.000 A 
ATOM     17  N   UNL     1      42.988   3.569  11.694  0.00  0.00    +0.000 NA
ATOM     18  C   UNL     1      43.749   3.042  10.704  0.00  0.00    +0.000 A 
ATOM     19  C   UNL     1      44.658   3.783   9.951  0.00  0.00    +0.000 A 
ATOM     20  N   UNL     1      44.842   5.107  10.211  0.00  0.00    +0.000 NA
BRANCH  19  21
ATOM     21  C   UNL     1      45.458   3.210   8.853  0.00  0.00    +0.000 A 
ATOM     22  C   UNL     1      45.987   4.025   7.846  0.00  0.00    +0.000 A 
ATOM     23  C   UNL     1      46.734   3.451   6.831  0.00  0.00    +0.000 A 
ATOM     24  N   UNL     1      46.987   2.129   6.740  0.00  0.00    +0.000 NA
ATOM     25  C   UNL     1      46.466   1.333   7.698  0.00  0.00    +0.000 A 
ATOM     26  C   UNL     1      46.719  -0.140   7.585  0.00  0.00    +0.000 C 
ATOM     27  C   UNL     1      45.711   1.832   8.759  0.00  0.00    +0.000 A 
ENDBRANCH  19  21
ENDBRANCH   1  15
TORSDOF 5
ENDMDL
MODEL 4
REMARK VINA RESULT:    -7.050      3.198      7.550
REMARK INTER + INTRA:          -9.544
REMARK INTER:                  -9.230
REMARK INTRA:                  -0.314
REMARK UNBOUND:                -0.639
REMARK  Name = 
REMARK  7 active torsions:
REMARK  status: ('A' for Active; 'I' for Inactive)
REMARK    1  A    between atoms: C_1  and  O_2
REMARK    2  A    between atoms: O_2  and  C_3
REMARK    3  A    between atoms: N_6  and  C_7
REMARK    4  A    between atoms: C_7  and  C_8
REMARK    5  A    between atoms: C_12  and  C_13
REMARK    6  A    between atoms: C_17  and  C_18
REMARK    7  A    between atoms: C_23  and  N_24
REMARK                            x       y       z     vdW  Elec       q    Type
REMARK                         _______ _______ _______ _____ _____    ______ ____
ROOT
ATOM      1  C   UNL     1      45.886   5.498  13.553  0.00  0.00    +0.000 C 
ENDROOT
BRANCH   1   5
ATOM      2  C   UNL     1      48.278   2.716  16.498  0.00  0.00    +0.000 A 
ATOM      3  N   UNL     1      47.954   3.129  15.245  0.00  0.00    +0.000 NA
ATOM      4  C   UNL     1      47.321   4.312  15.149  0.00  0.00    +0.000 A 
ATOM      5  N   UNL     1      47.103   4.765  13.860  0.00  0.00    +0.000 N 
ATOM      6  C   UNL     1      47.020   5.039  16.305  0.00  0.00    +0.000 A 
ATOM      7  N   UNL     1      47.314   4.630  17.566  0.00  0.00    +0.000 NA
ATOM      8  C   UNL     1      47.968   3.459  17.652  0.00  0.00    +0.000 A 
ATOM      9  H   UNL     1      47.278   3.990  13.219  0.00  0.00    +0.000 HD
BRANCH   8  10
ATOM     10  N   UNL     1      48.285   3.029  18.944  0.00  0.00    +0.000 N 
ATOM     11  H   UNL     1      48.032   3.773  19.587  0.00  0.00    +0.000 HD
ATOM     12  H   UNL     1      49.260   2.757  19.004  0.00  0.00    +0.000 HD
ENDBRANCH   8  10
BRANCH   2  14
ATOM     13  C   UNL     1      50.398   1.788  16.859  0.00  0.00    +0.000 C 
ATOM     14  O   UNL     1      49.008   1.550  16.662  0.00  0.00    +0.000 OA
ENDBRANCH   2  14
ENDBRANCH   1   5
BRANCH   1  15
ATOM     15  C   UNL     1      45.042   4.710  12.575  0.00  0.00    +0.000 A 
ATOM     16  C   UNL     1      43.713   4.423  12.861  0.00  0.00    +0.000 A 
ATOM     17  N   UNL     1      42.919   3.720  12.025  0.00  0.00    +0.000 NA
ATOM     18  C   UNL     1      43.503   3.334  10.865  0.00  0.00    +0.000 A 
ATOM     19  C   UNL     1      44.825   3.625  10.531  0.00  0.00    +0.000 A 
ATOM     20  N   UNL     1      45.614   4.311  11.403  0.00  0.00    +0.000 NA
BRANCH  19  21
ATOM     21  C   UNL     1      45.443   3.230   9.252  0.00  0.00    +0.000 A 
ATOM     22  C   UNL     1      45.681   4.173   8.245  0.00  0.00    +0.000 A 
ATOM     23  C   UNL     1      46.264   3.765   7.057  0.00  0.00    +0.000 A 
ATOM     24  N   UNL     1      46.620   2.491   6.795  0.00  0.00    +0.000 NA
ATOM     25  C   UNL     1      46.379   1.572   7.753  0.00  0.00    +0.000 A 
ATOM     26  C   UNL     1      46.747   0.149   7.455  0.00  0.00    +0.000 C 
ATOM     27  C   UNL     1      45.805   1.901   8.980  0.00  0.00    +0.000 A 
ENDBRANCH  19  21
ENDBRANCH   1  15
TORSDOF 5
ENDMDL
MODEL 5
REMARK VINA RESULT:    -7.024      2.801      7.286
REMARK INTER + INTRA:          -9.512
REMARK INTER:                  -9.165
REMARK INTRA:                  -0.346
REMARK UNBOUND:                -0.639
REMARK  Name = 
REMARK  7 active torsions:
REMARK  status: ('A' for Active; 'I' for Inactive)
REMARK    1  A    between atoms: C_1  and  O_2
REMARK    2  A    between atoms: O_2  and  C_3
REMARK    3  A    between atoms: N_6  and  C_7
REMARK    4  A    between atoms: C_7  and  C_8
REMARK    5  A    between atoms: C_12  and  C_13
REMARK    6  A    between atoms: C_17  and  C_18
REMARK    7  A    between atoms: C_23  and  N_24
REMARK                            x       y       z     vdW  Elec       q    Type
REMARK                         _______ _______ _______ _____ _____    ______ ____
ROOT
ATOM      1  C   UNL     1      44.733   3.615  12.955  0.00  0.00    +0.000 C 
ENDROOT
BRANCH   1   5
ATOM      2  C   UNL     1      48.288   6.156  14.698  0.00  0.00    +0.000 A 
ATOM      3  N   UNL     1      47.665   4.969  14.479  0.00  0.00    +0.000 NA
ATOM      4  C   UNL     1      46.690   4.967  13.552  0.00  0.00    +0.000 A 
ATOM      5  N   UNL     1      46.149   3.726  13.264  0.00  0.00    +0.000 N 
ATOM      6  C   UNL     1      46.360   6.149  12.883  0.00  0.00    +0.000 A 
ATOM      7  N   UNL     1      46.955   7.348  13.107  0.00  0.00    +0.000 NA
ATOM      8  C   UNL     1      47.944   7.338  14.017  0.00  0.00    +0.000 A 
ATOM      9  H   UNL     1      46.455   3.073  13.987  0.00  0.00    +0.000 HD
BRANCH   8  10
ATOM     10  N   UNL     1      48.571   8.564  14.252  0.00  0.00    +0.000 N 
ATOM     11  H   UNL     1      48.114   8.997  15.048  0.00  0.00    +0.000 HD
ATOM     12  H   UNL     1      48.560   9.141  13.417  0.00  0.00    +0.000 HD
ENDBRANCH   8  10
BRANCH   2  14
ATOM     13  C   UNL     1      48.991   5.909  16.919  0.00  0.00    +0.000 C 
ATOM     14  O   UNL     1      49.358   6.210  15.576  0.00  0.00    +0.000 OA
ENDBRANCH   2  14
ENDBRANCH   1   5
BRANCH   1  15
ATOM     15  C   UNL     1      44.509   3.839  11.476  0.00  0.00    +0.000 A 
ATOM     16  C   UNL     1      43.643   4.832  11.036  0.00  0.00    +0.000 A 
ATOM     17  N   UNL     1      43.404   5.070   9.728  0.00  0.00    +0.000 NA
ATOM     18  C   UNL     1      44.092   4.283   8.865  0.00  0.00    +0.000 A 
ATOM     19  C   UNL     1      44.988   3.295   9.267  0.00  0.00    +0.000 A 
ATOM     20  N   UNL     1      45.191   3.055  10.592  0.00  0.00    +0.000 NA
BRANCH  19  21
ATOM     21  C   UNL     1      45.759   2.466   8.322  0.00  0.00    +0.000 A 
ATOM     22  C   UNL     1      45.936   1.096   8.544  0.00  0.00    +0.000 A 
ATOM     23  C   UNL     1      46.666   0.350   7.634  0.00  0.00    +0.000 A 
ATOM     24  N   UNL     1      47.237   0.866   6.527  0.00  0.00    +0.000 NA
ATOM     25  C   UNL     1      47.087   2.190   6.314  0.00  0.00    +0.000 A 
ATOM     26  C   UNL     1      47.745   2.774   5.100  0.00  0.00    +0.000 C 
ATOM     27  C   UNL     1      46.359   3.010   7.176  0.00  0.00    +0.000 A 
ENDBRANCH  19  21
ENDBRANCH   1  15
TORSDOF 5
ENDMDL
MODEL 6
REMARK VINA RESULT:    -6.822      3.708      7.727
REMARK INTER + INTRA:          -9.256
REMARK INTER:                  -8.849
REMARK INTRA:                  -0.407
REMARK UNBOUND:                -0.639
REMARK  Name = 
REMARK  7 active torsions:
REMARK  status: ('A' for Active; 'I' for Inactive)
REMARK    1  A    between atoms: C_1  and  O_2
REMARK    2  A    between atoms: O_2  and  C_3
REMARK    3  A    between atoms: N_6  and  C_7
REMARK    4  A    between atoms: C_7  and  C_8
REMARK    5  A    between atoms: C_12  and  C_13
REMARK    6  A    between atoms: C_17  and  C_18
REMARK    7  A    between atoms: C_23  and  N_24
REMARK                            x       y       z     vdW  Elec       q    Type
REMARK                         _______ _______ _______ _____ _____    ______ ____
ROOT
ATOM      1  C   UNL     1      48.464   6.967  13.592  0.00  0.00    +0.000 C 
ENDROOT
BRANCH   1   5
ATOM      2  C   UNL     1      48.162   4.768  17.740  0.00  0.00    +0.000 A 
ATOM      3  N   UNL     1      48.441   5.864  16.989  0.00  0.00    +0.000 NA
ATOM      4  C   UNL     1      47.980   5.858  15.725  0.00  0.00    +0.000 A 
ATOM      5  N   UNL     1      48.177   7.029  15.015  0.00  0.00    +0.000 N 
ATOM      6  C   UNL     1      47.266   4.754  15.248  0.00  0.00    +0.000 A 
ATOM      7  N   UNL     1      46.999   3.641  15.977  0.00  0.00    +0.000 NA
ATOM      8  C   UNL     1      47.442   3.665  17.246  0.00  0.00    +0.000 A 
ATOM      9  H   UNL     1      48.843   7.604  15.534  0.00  0.00    +0.000 HD
BRANCH   8  10
ATOM     10  N   UNL     1      47.167   2.529  18.011  0.00  0.00    +0.000 N 
ATOM     11  H   UNL     1      48.022   1.985  18.075  0.00  0.00    +0.000 HD
ATOM     12  H   UNL     1      46.387   2.011  17.620  0.00  0.00    +0.000 HD
ENDBRANCH   8  10
BRANCH   2  14
ATOM     13  C   UNL     1      49.941   4.818  19.262  0.00  0.00    +0.000 C 
ATOM     14  O   UNL     1      48.531   4.748  19.075  0.00  0.00    +0.000 OA
ENDBRANCH   2  14
ENDBRANCH   1   5
BRANCH   1  15
ATOM     15  C   UNL     1      47.177   7.056  12.802  0.00  0.00    +0.000 A 
ATOM     16  C   UNL     1      46.422   8.223  12.811  0.00  0.00    +0.000 A 
ATOM     17  N   UNL     1      45.266   8.353  12.128  0.00  0.00    +0.000 NA
ATOM     18  C   UNL     1      44.900   7.267  11.402  0.00  0.00    +0.000 A 
ATOM     19  C   UNL     1      45.644   6.090  11.346  0.00  0.00    +0.000 A 
ATOM     20  N   UNL     1      46.793   5.973  12.068  0.00  0.00    +0.000 NA
BRANCH  19  21
ATOM     21  C   UNL     1      45.257   4.925  10.529  0.00  0.00    +0.000 A 
ATOM     22  C   UNL     1      44.421   3.929  11.044  0.00  0.00    +0.000 A 
ATOM     23  C   UNL     1      44.079   2.850  10.246  0.00  0.00    +0.000 A 
ATOM     24  N   UNL     1      44.512   2.686   8.980  0.00  0.00    +0.000 NA
ATOM     25  C   UNL     1      45.333   3.633   8.480  0.00  0.00    +0.000 A 
ATOM     26  C   UNL     1      45.841   3.441   7.083  0.00  0.00    +0.000 C 
ATOM     27  C   UNL     1      45.718   4.755   9.214  0.00  0.00    +0.000 A 
ENDBRANCH  19  21
ENDBRANCH   1  15
TORSDOF 5
ENDMDL
MODEL 7
REMARK VINA RESULT:    -6.734      3.002      7.261
REMARK INTER + INTRA:          -9.144
REMARK INTER:                  -8.606
REMARK INTRA:                  -0.539
REMARK UNBOUND:                -0.639
REMARK  Name = 
REMARK  7 active torsions:
REMARK  status: ('A' for Active; 'I' for Inactive)
REMARK    1  A    between atoms: C_1  and  O_2
REMARK    2  A    between atoms: O_2  and  C_3
REMARK    3  A    between atoms: N_6  and  C_7
REMARK    4  A    between atoms: C_7  and  C_8
REMARK    5  A    between atoms: C_12  and  C_13
REMARK    6  A    between atoms: C_17  and  C_18
REMARK    7  A    between atoms: C_23  and  N_24
REMARK                            x       y       z     vdW  Elec       q    Type
REMARK                         _______ _______ _______ _____ _____    ______ ____
ROOT
ATOM      1  C   UNL     1      45.728   5.357  13.642  0.00  0.00    +0.000 C 
ENDROOT
BRANCH   1   5
ATOM      2  C   UNL     1      49.677   7.871  13.179  0.00  0.00    +0.000 A 
ATOM      3  N   UNL     1      48.403   7.574  12.815  0.00  0.00    +0.000 NA
ATOM      4  C   UNL     1      47.694   6.822  13.677  0.00  0.00    +0.000 A 
ATOM      5  N   UNL     1      46.366   6.627  13.340  0.00  0.00    +0.000 N 
ATOM      6  C   UNL     1      48.281   6.383  14.867  0.00  0.00    +0.000 A 
ATOM      7  N   UNL     1      49.560   6.651  15.235  0.00  0.00    +0.000 NA
ATOM      8  C   UNL     1      50.255   7.422  14.380  0.00  0.00    +0.000 A 
ATOM      9  H   UNL     1      46.241   6.918  12.370  0.00  0.00    +0.000 HD
BRANCH   8  10
ATOM     10  N   UNL     1      51.570   7.713  14.750  0.00  0.00    +0.000 N 
ATOM     11  H   UNL     1      51.613   7.709  15.764  0.00  0.00    +0.000 HD
ATOM     12  H   UNL     1      51.876   8.587  14.336  0.00  0.00    +0.000 HD
ENDBRANCH   8  10
BRANCH   2  14
ATOM     13  C   UNL     1      50.927   8.071  11.208  0.00  0.00    +0.000 C 
ATOM     14  O   UNL     1      50.433   8.713  12.379  0.00  0.00    +0.000 OA
ENDBRANCH   2  14
ENDBRANCH   1   5
BRANCH   1  15
ATOM     15  C   UNL     1      44.899   4.901  12.462  0.00  0.00    +0.000 A 
ATOM     16  C   UNL     1      43.516   5.038  12.476  0.00  0.00    +0.000 A 
ATOM     17  N   UNL     1      42.730   4.644  11.451  0.00  0.00    +0.000 NA
ATOM     18  C   UNL     1      43.390   4.126  10.386  0.00  0.00    +0.000 A 
ATOM     19  C   UNL     1      44.776   3.997  10.324  0.00  0.00    +0.000 A 
ATOM     20  N   UNL     1      45.545   4.375  11.382  0.00  0.00    +0.000 NA
BRANCH  19  21
ATOM     21  C   UNL     1      45.488   3.463   9.148  0.00  0.00    +0.000 A 
ATOM     22  C   UNL     1      45.932   4.313   8.129  0.00  0.00    +0.000 A 
ATOM     23  C   UNL     1      46.598   3.776   7.040  0.00  0.00    +0.000 A 
ATOM     24  N   UNL     1      46.848   2.459   6.887  0.00  0.00    +0.000 NA
ATOM     25  C   UNL     1      46.408   1.631   7.858  0.00  0.00    +0.000 A 
ATOM     26  C   UNL     1      46.658   0.163   7.679  0.00  0.00    +0.000 C 
ATOM     27  C   UNL     1      45.739   2.091   8.991  0.00  0.00    +0.000 A 
ENDBRANCH  19  21
ENDBRANCH   1  15
TORSDOF 5
ENDMDL
MODEL 8
REMARK VINA RESULT:    -6.461      3.536      7.650
REMARK INTER + INTRA:          -8.800
REMARK INTER:                  -8.136
REMARK INTRA:                  -0.664
REMARK UNBOUND:                -0.639
REMARK  Name = 
REMARK  7 active torsions:
REMARK  status: ('A' for Active; 'I' for Inactive)
REMARK    1  A    between atoms: C_1  and  O_2
REMARK    2  A    between atoms: O_2  and  C_3
REMARK    3  A    between atoms: N_6  and  C_7
REMARK    4  A    between atoms: C_7  and  C_8
REMARK    5  A    between atoms: C_12  and  C_13
REMARK    6  A    between atoms: C_17  and  C_18
REMARK    7  A    between atoms: C_23  and  N_24
REMARK                            x       y       z     vdW  Elec       q    Type
REMARK                         _______ _______ _______ _____ _____    ______ ____
ROOT
ATOM      1  C   UNL     1      48.127   7.989  14.137  0.00  0.00    +0.000 C 
ENDROOT
BRANCH   1   5
ATOM      2  C   UNL     1      48.090   4.248  16.989  0.00  0.00    +0.000 A 
ATOM      3  N   UNL     1      48.135   4.803  15.750  0.00  0.00    +0.000 NA
ATOM      4  C   UNL     1      48.421   6.117  15.693  0.00  0.00    +0.000 A 
ATOM      5  N   UNL     1      48.572   6.635  14.419  0.00  0.00    +0.000 N 
ATOM      6  C   UNL     1      48.642   6.836  16.871  0.00  0.00    +0.000 A 
ATOM      7  N   UNL     1      48.577   6.302  18.118  0.00  0.00    +0.000 NA
ATOM      8  C   UNL     1      48.314   4.985  18.166  0.00  0.00    +0.000 A 
ATOM      9  H   UNL     1      48.214   5.948  13.754  0.00  0.00    +0.000 HD
BRANCH   8  10
ATOM     10  N   UNL     1      48.253   4.420  19.443  0.00  0.00    +0.000 N 
ATOM     11  H   UNL     1      48.439   5.157  20.116  0.00  0.00    +0.000 HD
ATOM     12  H   UNL     1      48.889   3.633  19.520  0.00  0.00    +0.000 HD
ENDBRANCH   8  10
BRANCH   2  14
ATOM     13  C   UNL     1      48.994   2.113  16.658  0.00  0.00    +0.000 C 
ATOM     14  O   UNL     1      47.887   2.883  17.115  0.00  0.00    +0.000 OA
ENDBRANCH   2  14
ENDBRANCH   1   5
BRANCH   1  15
ATOM     15  C   UNL     1      46.923   7.957  13.221  0.00  0.00    +0.000 A 
ATOM     16  C   UNL     1      46.428   9.129  12.664  0.00  0.00    +0.000 A 
ATOM     17  N   UNL     1      45.355   9.156  11.845  0.00  0.00    +0.000 NA
ATOM     18  C   UNL     1      44.804   7.946  11.579  0.00  0.00    +0.000 A 
ATOM     19  C   UNL     1      45.287   6.746  12.098  0.00  0.00    +0.000 A 
ATOM     20  N   UNL     1      46.354   6.748  12.944  0.00  0.00    +0.000 NA
BRANCH  19  21
ATOM     21  C   UNL     1      44.703   5.431  11.777  0.00  0.00    +0.000 A 
ATOM     22  C   UNL     1      43.936   4.735  12.718  0.00  0.00    +0.000 A 
ATOM     23  C   UNL     1      43.402   3.502  12.381  0.00  0.00    +0.000 A 
ATOM     24  N   UNL     1      43.581   2.909  11.184  0.00  0.00    +0.000 NA
ATOM     25  C   UNL     1      44.335   3.565  10.276  0.00  0.00    +0.000 A 
ATOM     26  C   UNL     1      44.561   2.897   8.953  0.00  0.00    +0.000 C 
ATOM     27  C   UNL     1      44.899   4.814  10.532  0.00  0.00    +0.000 A 
ENDBRANCH  19  21
ENDBRANCH   1  15
TORSDOF 5
ENDMDL
MODEL 9
REMARK VINA RESULT:    -6.343      3.187      5.804
REMARK INTER + INTRA:          -8.651
REMARK INTER:                  -7.996
REMARK INTRA:                  -0.655
REMARK UNBOUND:                -0.639
REMARK  Name = 
REMARK  7 active torsions:
REMARK  status: ('A' for Active; 'I' for Inactive)
REMARK    1  A    between atoms: C_1  and  O_2
REMARK    2  A    between atoms: O_2  and  C_3
REMARK    3  A    between atoms: N_6  and  C_7
REMARK    4  A    between atoms: C_7  and  C_8
REMARK    5  A    between atoms: C_12  and  C_13
REMARK    6  A    between atoms: C_17  and  C_18
REMARK    7  A    between atoms: C_23  and  N_24
REMARK                            x       y       z     vdW  Elec       q    Type
REMARK                         _______ _______ _______ _____ _____    ______ ____
ROOT
ATOM      1  C   UNL     1      46.439   7.723  12.678  0.00  0.00    +0.000 C 
ENDROOT
BRANCH   1   5
ATOM      2  C   UNL     1      44.571   3.936  10.603  0.00  0.00    +0.000 A 
ATOM      3  N   UNL     1      45.310   5.075  10.565  0.00  0.00    +0.000 NA
ATOM      4  C   UNL     1      45.701   5.576  11.750  0.00  0.00    +0.000 A 
ATOM      5  N   UNL     1      46.545   6.670  11.682  0.00  0.00    +0.000 N 
ATOM      6  C   UNL     1      45.333   4.933  12.936  0.00  0.00    +0.000 A 
ATOM      7  N   UNL     1      44.575   3.808  12.994  0.00  0.00    +0.000 NA
ATOM      8  C   UNL     1      44.208   3.300  11.805  0.00  0.00    +0.000 A 
ATOM      9  H   UNL     1      46.530   7.022  10.724  0.00  0.00    +0.000 HD
BRANCH   8  10
ATOM     10  N   UNL     1      43.435   2.138  11.849  0.00  0.00    +0.000 N 
ATOM     11  H   UNL     1      43.987   1.417  12.303  0.00  0.00    +0.000 HD
ATOM     12  H   UNL     1      43.118   1.880  10.921  0.00  0.00    +0.000 HD
ENDBRANCH   8  10
BRANCH   2  14
ATOM     13  C   UNL     1      44.989   3.753   8.306  0.00  0.00    +0.000 C 
ATOM     14  O   UNL     1      44.210   3.320   9.417  0.00  0.00    +0.000 OA
ENDBRANCH   2  14
ENDBRANCH   1   5
BRANCH   1  15
ATOM     15  C   UNL     1      47.701   7.776  13.511  0.00  0.00    +0.000 A 
ATOM     16  C   UNL     1      48.639   8.781  13.307  0.00  0.00    +0.000 A 
ATOM     17  N   UNL     1      49.783   8.871  14.019  0.00  0.00    +0.000 NA
ATOM     18  C   UNL     1      49.944   7.922  14.973  0.00  0.00    +0.000 A 
ATOM     19  C   UNL     1      49.014   6.914  15.224  0.00  0.00    +0.000 A 
ATOM     20  N   UNL     1      47.881   6.827  14.474  0.00  0.00    +0.000 NA
BRANCH  19  21
ATOM     21  C   UNL     1      49.180   5.905  16.286  0.00  0.00    +0.000 A 
ATOM     22  C   UNL     1      50.312   5.906  17.110  0.00  0.00    +0.000 A 
ATOM     23  C   UNL     1      50.433   4.942  18.097  0.00  0.00    +0.000 A 
ATOM     24  N   UNL     1      49.518   3.977  18.320  0.00  0.00    +0.000 NA
ATOM     25  C   UNL     1      48.432   3.957  17.519  0.00  0.00    +0.000 A 
ATOM     26  C   UNL     1      47.427   2.868  17.744  0.00  0.00    +0.000 C 
ATOM     27  C   UNL     1      48.229   4.897  16.508  0.00  0.00    +0.000 A 
ENDBRANCH  19  21
ENDBRANCH   1  15
TORSDOF 5
ENDMDL
