MODEL 1
REMARK VINA RESULT:    -6.871      0.000      0.000
REMARK INTER + INTRA:         -11.688
REMARK INTER:                 -10.085
REMARK INTRA:                  -1.603
REMARK UNBOUND:                -1.603
REMARK  Name = 
REMARK  9 active torsions:
REMARK  status: ('A' for Active; 'I' for Inactive)
REMARK    1  A    between atoms: C_1  and  C_2
REMARK    2  A    between atoms: C_2  and  N_3
REMARK    3  A    between atoms: N_3  and  C_4
REMARK    4  A    between atoms: C_4  and  C_5
REMARK    5  A    between atoms: C_8  and  C_9
REMARK    6  A    between atoms: C_9  and  N_10
REMARK    7  A    between atoms: N_10  and  C_11
REMARK    8  A    between atoms: C_11  and  C_12
REMARK    9  A    between atoms: C_19  and  C_21
REMARK                            x       y       z     vdW  Elec       q    Type
REMARK                         _______ _______ _______ _____ _____    ______ ____
ROOT
ATOM      1  C   UNL     1      47.356   6.178  12.463  0.00  0.00    +0.000 C 
ENDROOT
BRANCH   1   2
ATOM      2  C   UNL     1      47.506   5.877  13.930  0.00  0.00    +0.000 A 
ATOM      3  C   UNL     1      48.340   6.658  14.745  0.00  0.00    +0.000 A 
ATOM      4  C   UNL     1      48.694   6.211  16.019  0.00  0.00    +0.000 A 
ATOM      5  C   UNL     1      48.193   4.996  16.507  0.00  0.00    +0.000 A 
ATOM      6  C   UNL     1      47.261   4.290  15.730  0.00  0.00    +0.000 A 
ATOM      7  C   UNL     1      46.914   4.727  14.456  0.00  0.00    +0.000 A 
BRANCH   5   8
ATOM      8  C   UNL     1      48.752   4.314  17.732  0.00  0.00    +0.000 C 
BRANCH   8   9
ATOM      9  N   UNL     1      47.870   4.328  18.897  0.00  0.00    +0.000 NA
ATOM     10  H   UNL     1      48.439   4.282  19.741  0.00  0.00    +0.000 HD
BRANCH   9  11
ATOM     11  C   UNL     1      47.074   5.562  18.895  0.00  0.00    +0.000 C 
BRANCH  11  12
ATOM     12  C   UNL     1      47.393   6.435  20.120  0.00  0.00    +0.000 C 
ATOM     13  C   UNL     1      48.010   7.776  19.735  0.00  0.00    +0.000 C 
ATOM     14  C   UNL     1      49.479   7.437  19.598  0.00  0.00    +0.000 C 
ATOM     15  N   UNL     1      49.741   6.541  20.731  0.00  0.00    +0.000 NA
ATOM     16  C   UNL     1      48.491   5.802  20.985  0.00  0.00    +0.000 C 
ATOM     17  H   UNL     1      49.941   7.118  21.550  0.00  0.00    +0.000 HD
ENDBRANCH  11  12
ENDBRANCH   9  11
ENDBRANCH   8   9
ENDBRANCH   5   8
ENDBRANCH   1   2
BRANCH   1  18
ATOM     18  N   UNL     1      46.316   7.165  12.112  0.00  0.00    +0.000 N 
ATOM     19  C   UNL     1      45.034   6.814  11.656  0.00  0.00    +0.000 C 
ATOM     20  O   UNL     1      44.207   7.667  11.338  0.00  0.00    +0.000 OA
BRANCH  19  21
ATOM     21  C   UNL     1      44.652   5.403  11.602  0.00  0.00    +0.000 A 
ATOM     22  C   UNL     1      43.932   4.742  12.584  0.00  0.00    +0.000 A 
ATOM     23  S   UNL     1      43.544   3.131  12.175  0.00  0.00    +0.000 S 
ATOM     24  C   UNL     1      44.221   3.309  10.625  0.00  0.00    +0.000 A 
ATOM     25  N   UNL     1      44.136   2.311   9.701  0.00  0.00    +0.000 NA
ATOM     26  C   UNL     1      44.642   2.612   8.551  0.00  0.00    +0.000 A 
ATOM     27  N   UNL     1      45.258   3.801   8.253  0.00  0.00    +0.000 N 
ATOM     28  C   UNL     1      45.480   4.789   9.193  0.00  0.00    +0.000 A 
ATOM     29  O   UNL     1      46.233   5.725   8.961  0.00  0.00    +0.000 OA
ATOM     30  C   UNL     1      44.817   4.538  10.459  0.00  0.00    +0.000 A 
ATOM     31  H   UNL     1      45.698   3.943   7.356  0.00  0.00    +0.000 HD
ENDBRANCH  19  21
BRANCH  18  33
ATOM     32  C   UNL     1      48.000   8.996  11.880  0.00  0.00    +0.000 C 
ATOM     33  C   UNL     1      46.573   8.608  12.254  0.00  0.00    +0.000 C 
ENDBRANCH  18  33
ENDBRANCH   1  18
TORSDOF 8
ENDMDL
MODEL 2
REMARK VINA RESULT:    -6.640      1.811      2.455
REMARK INTER + INTRA:         -11.349
REMARK INTER:                  -9.800
REMARK INTRA:                  -1.549
REMARK UNBOUND:                -1.603
REMARK  Name = 
REMARK  9 active torsions:
REMARK  status: ('A' for Active; 'I' for Inactive)
REMARK    1  A    between atoms: C_1  and  C_2
REMARK    2  A    between atoms: C_2  and  N_3
REMARK    3  A    between atoms: N_3  and  C_4
REMARK    4  A    between atoms: C_4  and  C_5
REMARK    5  A    between atoms: C_8  and  C_9
REMARK    6  A    between atoms: C_9  and  N_10
REMARK    7  A    between atoms: N_10  and  C_11
REMARK    8  A    between atoms: C_11  and  C_12
REMARK    9  A    between atoms: C_19  and  C_21
REMARK                            x       y       z     vdW  Elec       q    Type
REMARK                         _______ _______ _______ _____ _____    ______ ____
ROOT
ATOM      1  C   UNL     1      47.393   6.176  12.476  0.00  0.00    +0.000 C 
ENDROOT
BRANCH   1   2
ATOM      2  C   UNL     1      47.530   5.863  13.942  0.00  0.00    +0.000 A 
ATOM      3  C   UNL     1      48.376   6.620  14.767  0.00  0.00    +0.000 A 
ATOM      4  C   UNL     1      48.714   6.158  16.040  0.00  0.00    +0.000 A 
ATOM      5  C   UNL     1      48.183   4.951  16.517  0.00  0.00    +0.000 A 
ATOM      6  C   UNL     1      47.240   4.271  15.732  0.00  0.00    +0.000 A 
ATOM      7  C   UNL     1      46.909   4.723  14.458  0.00  0.00    +0.000 A 
BRANCH   5   8
ATOM      8  C   UNL     1      48.721   4.249  17.741  0.00  0.00    +0.000 C 
BRANCH   8   9
ATOM      9  N   UNL     1      49.340   5.130  18.729  0.00  0.00    +0.000 NA
ATOM     10  H   UNL     1      48.775   5.123  19.577  0.00  0.00    +0.000 HD
BRANCH   9  11
ATOM     11  C   UNL     1      50.698   4.655  19.028  0.00  0.00    +0.000 C 
BRANCH  11  12
ATOM     12  C   UNL     1      51.425   4.200  17.751  0.00  0.00    +0.000 C 
ATOM     13  C   UNL     1      52.237   2.928  17.967  0.00  0.00    +0.000 C 
ATOM     14  C   UNL     1      53.544   3.460  18.517  0.00  0.00    +0.000 C 
ATOM     15  N   UNL     1      53.810   4.652  17.703  0.00  0.00    +0.000 NA
ATOM     16  C   UNL     1      52.498   5.213  17.331  0.00  0.00    +0.000 C 
ATOM     17  H   UNL     1      54.281   4.352  16.848  0.00  0.00    +0.000 HD
ENDBRANCH  11  12
ENDBRANCH   9  11
ENDBRANCH   8   9
ENDBRANCH   5   8
ENDBRANCH   1   2
BRANCH   1  18
ATOM     18  N   UNL     1      46.365   7.175  12.125  0.00  0.00    +0.000 N 
ATOM     19  C   UNL     1      45.081   6.839  11.665  0.00  0.00    +0.000 C 
ATOM     20  O   UNL     1      44.264   7.701  11.347  0.00  0.00    +0.000 OA
BRANCH  19  21
ATOM     21  C   UNL     1      44.684   5.432  11.608  0.00  0.00    +0.000 A 
ATOM     22  C   UNL     1      43.947   4.780  12.584  0.00  0.00    +0.000 A 
ATOM     23  S   UNL     1      43.545   3.172  12.172  0.00  0.00    +0.000 S 
ATOM     24  C   UNL     1      44.238   3.342  10.628  0.00  0.00    +0.000 A 
ATOM     25  N   UNL     1      44.150   2.346   9.703  0.00  0.00    +0.000 NA
ATOM     26  C   UNL     1      44.670   2.640   8.558  0.00  0.00    +0.000 A 
ATOM     27  N   UNL     1      45.301   3.823   8.265  0.00  0.00    +0.000 N 
ATOM     28  C   UNL     1      45.526   4.808   9.207  0.00  0.00    +0.000 A 
ATOM     29  O   UNL     1      46.292   5.735   8.981  0.00  0.00    +0.000 OA
ATOM     30  C   UNL     1      44.849   4.565  10.467  0.00  0.00    +0.000 A 
ATOM     31  H   UNL     1      45.751   3.959   7.372  0.00  0.00    +0.000 HD
ENDBRANCH  19  21
BRANCH  18  33
ATOM     32  C   UNL     1      48.074   8.985  11.914  0.00  0.00    +0.000 C 
ATOM     33  C   UNL     1      46.638   8.615  12.269  0.00  0.00    +0.000 C 
ENDBRANCH  18  33
ENDBRANCH   1  18
TORSDOF 8
ENDMDL
MODEL 3
REMARK VINA RESULT:    -6.364      3.155      8.383
REMARK INTER + INTRA:         -10.943
REMARK INTER:                  -9.719
REMARK INTRA:                  -1.224
REMARK UNBOUND:                -1.603
REMARK  Name = 
REMARK  9 active torsions:
REMARK  status: ('A' for Active; 'I' for Inactive)
REMARK    1  A    between atoms: C_1  and  C_2
REMARK    2  A    between atoms: C_2  and  N_3
REMARK    3  A    between atoms: N_3  and  C_4
REMARK    4  A    between atoms: C_4  and  C_5
REMARK    5  A    between atoms: C_8  and  C_9
REMARK    6  A    between atoms: C_9  and  N_10
REMARK    7  A    between atoms: N_10  and  C_11
REMARK    8  A    between atoms: C_11  and  C_12
REMARK    9  A    between atoms: C_19  and  C_21
REMARK                            x       y       z     vdW  Elec       q    Type
REMARK                         _______ _______ _______ _____ _____    ______ ____
ROOT
ATOM      1  C   UNL     1      47.630   8.015  13.777  0.00  0.00    +0.000 C 
ENDROOT
BRANCH   1   2
ATOM      2  C   UNL     1      46.792   6.871  13.274  0.00  0.00    +0.000 A 
ATOM      3  C   UNL     1      45.772   7.081  12.332  0.00  0.00    +0.000 A 
ATOM      4  C   UNL     1      44.827   6.084  12.087  0.00  0.00    +0.000 A 
ATOM      5  C   UNL     1      44.909   4.853  12.753  0.00  0.00    +0.000 A 
ATOM      6  C   UNL     1      46.006   4.612  13.594  0.00  0.00    +0.000 A 
ATOM      7  C   UNL     1      46.944   5.607  13.849  0.00  0.00    +0.000 A 
BRANCH   5   8
ATOM      8  C   UNL     1      43.778   3.852  12.762  0.00  0.00    +0.000 C 
BRANCH   8   9
ATOM      9  N   UNL     1      43.956   2.720  11.856  0.00  0.00    +0.000 NA
ATOM     10  H   UNL     1      43.060   2.503  11.421  0.00  0.00    +0.000 HD
BRANCH   9  11
ATOM     11  C   UNL     1      44.943   3.066  10.825  0.00  0.00    +0.000 C 
BRANCH  11  12
ATOM     12  C   UNL     1      44.402   2.777   9.414  0.00  0.00    +0.000 C 
ATOM     13  C   UNL     1      45.243   1.747   8.668  0.00  0.00    +0.000 C 
ATOM     14  C   UNL     1      46.346   2.594   8.068  0.00  0.00    +0.000 C 
ATOM     15  N   UNL     1      45.651   3.798   7.599  0.00  0.00    +0.000 NA
ATOM     16  C   UNL     1      44.512   4.013   8.512  0.00  0.00    +0.000 C 
ATOM     17  H   UNL     1      45.279   3.606   6.667  0.00  0.00    +0.000 HD
ENDBRANCH  11  12
ENDBRANCH   9  11
ENDBRANCH   8   9
ENDBRANCH   5   8
ENDBRANCH   1   2
BRANCH   1  18
ATOM     18  N   UNL     1      49.090   7.797  13.769  0.00  0.00    +0.000 N 
ATOM     19  C   UNL     1      49.905   7.959  14.902  0.00  0.00    +0.000 C 
ATOM     20  O   UNL     1      51.124   7.804  14.846  0.00  0.00    +0.000 OA
BRANCH  19  21
ATOM     21  C   UNL     1      49.289   8.273  16.192  0.00  0.00    +0.000 A 
ATOM     22  C   UNL     1      49.002   9.553  16.638  0.00  0.00    +0.000 A 
ATOM     23  S   UNL     1      48.180   9.584  18.134  0.00  0.00    +0.000 S 
ATOM     24  C   UNL     1      48.076   7.886  18.167  0.00  0.00    +0.000 A 
ATOM     25  N   UNL     1      47.388   7.242  19.151  0.00  0.00    +0.000 NA
ATOM     26  C   UNL     1      47.345   5.958  19.013  0.00  0.00    +0.000 A 
ATOM     27  N   UNL     1      47.958   5.259  18.004  0.00  0.00    +0.000 N 
ATOM     28  C   UNL     1      48.770   5.857  17.059  0.00  0.00    +0.000 A 
ATOM     29  O   UNL     1      49.486   5.188  16.327  0.00  0.00    +0.000 OA
ATOM     30  C   UNL     1      48.740   7.307  17.110  0.00  0.00    +0.000 A 
ATOM     31  H   UNL     1      47.946   4.250  17.996  0.00  0.00    +0.000 HD
ENDBRANCH  19  21
BRANCH  18  33
ATOM     32  C   UNL     1      49.619   8.347  11.390  0.00  0.00    +0.000 C 
ATOM     33  C   UNL     1      49.776   7.360  12.542  0.00  0.00    +0.000 C 
ENDBRANCH  18  33
ENDBRANCH   1  18
TORSDOF 8
ENDMDL
MODEL 4
REMARK VINA RESULT:    -6.356      3.399      7.820
REMARK INTER + INTRA:         -10.931
REMARK INTER:                  -9.269
REMARK INTRA:                  -1.662
REMARK UNBOUND:                -1.603
REMARK  Name = 
REMARK  9 active torsions:
REMARK  status: ('A' for Active; 'I' for Inactive)
REMARK    1  A    between atoms: C_1  and  C_2
REMARK    2  A    between atoms: C_2  and  N_3
REMARK    3  A    between atoms: N_3  and  C_4
REMARK    4  A    between atoms: C_4  and  C_5
REMARK    5  A    between atoms: C_8  and  C_9
REMARK    6  A    between atoms: C_9  and  N_10
REMARK    7  A    between atoms: N_10  and  C_11
REMARK    8  A    between atoms: C_11  and  C_12
REMARK    9  A    between atoms: C_19  and  C_21
REMARK                            x       y       z     vdW  Elec       q    Type
REMARK                         _______ _______ _______ _____ _____    ______ ____
ROOT
ATOM      1  C   UNL     1      49.983   7.206  15.658  0.00  0.00    +0.000 C 
ENDROOT
BRANCH   1   2
ATOM      2  C   UNL     1      48.975   7.526  14.587  0.00  0.00    +0.000 A 
ATOM      3  C   UNL     1      48.160   8.665  14.680  0.00  0.00    +0.000 A 
ATOM      4  C   UNL     1      47.049   8.803  13.846  0.00  0.00    +0.000 A 
ATOM      5  C   UNL     1      46.758   7.821  12.888  0.00  0.00    +0.000 A 
ATOM      6  C   UNL     1      47.654   6.754  12.722  0.00  0.00    +0.000 A 
ATOM      7  C   UNL     1      48.756   6.607  13.558  0.00  0.00    +0.000 A 
BRANCH   5   8
ATOM      8  C   UNL     1      45.435   7.753  12.163  0.00  0.00    +0.000 C 
BRANCH   8   9
ATOM      9  N   UNL     1      44.524   6.719  12.649  0.00  0.00    +0.000 NA
ATOM     10  H   UNL     1      43.757   7.165  13.150  0.00  0.00    +0.000 HD
BRANCH   9  11
ATOM     11  C   UNL     1      44.000   5.952  11.511  0.00  0.00    +0.000 C 
BRANCH  11  12
ATOM     12  C   UNL     1      44.869   4.716  11.222  0.00  0.00    +0.000 C 
ATOM     13  C   UNL     1      44.121   3.653  10.425  0.00  0.00    +0.000 C 
ATOM     14  C   UNL     1      43.391   2.883  11.506  0.00  0.00    +0.000 C 
ATOM     15  N   UNL     1      44.379   2.767  12.585  0.00  0.00    +0.000 NA
ATOM     16  C   UNL     1      45.226   3.972  12.515  0.00  0.00    +0.000 C 
ATOM     17  H   UNL     1      44.967   1.955  12.390  0.00  0.00    +0.000 HD
ENDBRANCH  11  12
ENDBRANCH   9  11
ENDBRANCH   8   9
ENDBRANCH   5   8
ENDBRANCH   1   2
BRANCH   1  18
ATOM     18  N   UNL     1      49.563   7.494  17.044  0.00  0.00    +0.000 N 
ATOM     19  C   UNL     1      48.868   6.577  17.851  0.00  0.00    +0.000 C 
ATOM     20  O   UNL     1      48.503   6.868  18.989  0.00  0.00    +0.000 OA
BRANCH  19  21
ATOM     21  C   UNL     1      48.612   5.227  17.348  0.00  0.00    +0.000 A 
ATOM     22  C   UNL     1      47.543   4.876  16.540  0.00  0.00    +0.000 A 
ATOM     23  S   UNL     1      47.584   3.248  16.026  0.00  0.00    +0.000 S 
ATOM     24  C   UNL     1      49.095   3.001  16.767  0.00  0.00    +0.000 A 
ATOM     25  N   UNL     1      49.765   1.823  16.625  0.00  0.00    +0.000 NA
ATOM     26  C   UNL     1      50.924   1.803  17.194  0.00  0.00    +0.000 A 
ATOM     27  N   UNL     1      51.458   2.836  17.922  0.00  0.00    +0.000 N 
ATOM     28  C   UNL     1      50.764   3.999  18.198  0.00  0.00    +0.000 A 
ATOM     29  O   UNL     1      51.168   4.791  19.038  0.00  0.00    +0.000 OA
ATOM     30  C   UNL     1      49.511   4.107  17.474  0.00  0.00    +0.000 A 
ATOM     31  H   UNL     1      52.339   2.727  18.402  0.00  0.00    +0.000 HD
ENDBRANCH  19  21
BRANCH  18  33
ATOM     32  C   UNL     1      51.042   9.506  16.986  0.00  0.00    +0.000 C 
ATOM     33  C   UNL     1      49.887   8.785  17.673  0.00  0.00    +0.000 C 
ENDBRANCH  18  33
ENDBRANCH   1  18
TORSDOF 8
ENDMDL
MODEL 5
REMARK VINA RESULT:    -6.339      1.402      2.091
REMARK INTER + INTRA:         -10.907
REMARK INTER:                  -9.255
REMARK INTRA:                  -1.652
REMARK UNBOUND:                -1.603
REMARK  Name = 
REMARK  9 active torsions:
REMARK  status: ('A' for Active; 'I' for Inactive)
REMARK    1  A    between atoms: C_1  and  C_2
REMARK    2  A    between atoms: C_2  and  N_3
REMARK    3  A    between atoms: N_3  and  C_4
REMARK    4  A    between atoms: C_4  and  C_5
REMARK    5  A    between atoms: C_8  and  C_9
REMARK    6  A    between atoms: C_9  and  N_10
REMARK    7  A    between atoms: N_10  and  C_11
REMARK    8  A    between atoms: C_11  and  C_12
REMARK    9  A    between atoms: C_19  and  C_21
REMARK                            x       y       z     vdW  Elec       q    Type
REMARK                         _______ _______ _______ _____ _____    ______ ____
ROOT
ATOM      1  C   UNL     1      47.418   6.278  12.555  0.00  0.00    +0.000 C 
ENDROOT
BRANCH   1   2
ATOM      2  C   UNL     1      47.474   5.687  13.938  0.00  0.00    +0.000 A 
ATOM      3  C   UNL     1      48.265   6.270  14.941  0.00  0.00    +0.000 A 
ATOM      4  C   UNL     1      48.535   5.570  16.118  0.00  0.00    +0.000 A 
ATOM      5  C   UNL     1      47.990   4.294  16.322  0.00  0.00    +0.000 A 
ATOM      6  C   UNL     1      47.099   3.780  15.367  0.00  0.00    +0.000 A 
ATOM      7  C   UNL     1      46.837   4.470  14.188  0.00  0.00    +0.000 A 
BRANCH   5   8
ATOM      8  C   UNL     1      48.464   3.369  17.417  0.00  0.00    +0.000 C 
BRANCH   8   9
ATOM      9  N   UNL     1      47.914   3.653  18.740  0.00  0.00    +0.000 NA
ATOM     10  H   UNL     1      47.662   2.773  19.188  0.00  0.00    +0.000 HD
BRANCH   9  11
ATOM     11  C   UNL     1      48.919   4.357  19.549  0.00  0.00    +0.000 C 
BRANCH  11  12
ATOM     12  C   UNL     1      48.260   5.356  20.515  0.00  0.00    +0.000 C 
ATOM     13  C   UNL     1      47.227   6.239  19.823  0.00  0.00    +0.000 C 
ATOM     14  C   UNL     1      48.076   7.356  19.252  0.00  0.00    +0.000 C 
ATOM     15  N   UNL     1      49.039   7.648  20.321  0.00  0.00    +0.000 NA
ATOM     16  C   UNL     1      49.277   6.380  21.035  0.00  0.00    +0.000 C 
ATOM     17  H   UNL     1      48.600   8.302  20.972  0.00  0.00    +0.000 HD
ENDBRANCH  11  12
ENDBRANCH   9  11
ENDBRANCH   8   9
ENDBRANCH   5   8
ENDBRANCH   1   2
BRANCH   1  18
ATOM     18  N   UNL     1      46.437   7.363  12.358  0.00  0.00    +0.000 N 
ATOM     19  C   UNL     1      45.352   7.276  11.469  0.00  0.00    +0.000 C 
ATOM     20  O   UNL     1      44.577   8.217  11.305  0.00  0.00    +0.000 OA
BRANCH  19  21
ATOM     21  C   UNL     1      45.107   6.023  10.754  0.00  0.00    +0.000 A 
ATOM     22  C   UNL     1      45.650   5.699   9.522  0.00  0.00    +0.000 A 
ATOM     23  S   UNL     1      45.267   4.117   9.005  0.00  0.00    +0.000 S 
ATOM     24  C   UNL     1      44.468   3.779  10.468  0.00  0.00    +0.000 A 
ATOM     25  N   UNL     1      43.977   2.536  10.731  0.00  0.00    +0.000 NA
ATOM     26  C   UNL     1      43.450   2.414  11.904  0.00  0.00    +0.000 A 
ATOM     27  N   UNL     1      43.335   3.428  12.821  0.00  0.00    +0.000 N 
ATOM     28  C   UNL     1      43.702   4.732  12.549  0.00  0.00    +0.000 A 
ATOM     29  O   UNL     1      43.370   5.649  13.289  0.00  0.00    +0.000 OA
ATOM     30  C   UNL     1      44.410   4.881  11.291  0.00  0.00    +0.000 A 
ATOM     31  H   UNL     1      42.845   3.283  13.691  0.00  0.00    +0.000 HD
ENDBRANCH  19  21
BRANCH  18  33
ATOM     32  C   UNL     1      47.820   9.387  12.840  0.00  0.00    +0.000 C 
ATOM     33  C   UNL     1      46.537   8.614  13.128  0.00  0.00    +0.000 C 
ENDBRANCH  18  33
ENDBRANCH   1  18
TORSDOF 8
ENDMDL
MODEL 6
REMARK VINA RESULT:    -6.306      3.399      7.817
REMARK INTER + INTRA:         -10.858
REMARK INTER:                  -9.117
REMARK INTRA:                  -1.741
REMARK UNBOUND:                -1.603
REMARK  Name = 
REMARK  9 active torsions:
REMARK  status: ('A' for Active; 'I' for Inactive)
REMARK    1  A    between atoms: C_1  and  C_2
REMARK    2  A    between atoms: C_2  and  N_3
REMARK    3  A    between atoms: N_3  and  C_4
REMARK    4  A    between atoms: C_4  and  C_5
REMARK    5  A    between atoms: C_8  and  C_9
REMARK    6  A    between atoms: C_9  and  N_10
REMARK    7  A    between atoms: N_10  and  C_11
REMARK    8  A    between atoms: C_11  and  C_12
REMARK    9  A    between atoms: C_19  and  C_21
REMARK                            x       y       z     vdW  Elec       q    Type
REMARK                         _______ _______ _______ _____ _____    ______ ____
ROOT
ATOM      1  C   UNL     1      49.454   8.240  16.538  0.00  0.00    +0.000 C 
ENDROOT
BRANCH   1   2
ATOM      2  C   UNL     1      48.758   8.029  15.220  0.00  0.00    +0.000 A 
ATOM      3  C   UNL     1      48.018   9.061  14.621  0.00  0.00    +0.000 A 
ATOM      4  C   UNL     1      47.154   8.781  13.561  0.00  0.00    +0.000 A 
ATOM      5  C   UNL     1      47.044   7.475  13.065  0.00  0.00    +0.000 A 
ATOM      6  C   UNL     1      47.885   6.480  13.589  0.00  0.00    +0.000 A 
ATOM      7  C   UNL     1      48.739   6.753  14.652  0.00  0.00    +0.000 A 
BRANCH   5   8
ATOM      8  C   UNL     1      45.935   7.044  12.135  0.00  0.00    +0.000 C 
BRANCH   8   9
ATOM      9  N   UNL     1      44.592   7.134  12.702  0.00  0.00    +0.000 NA
ATOM     10  H   UNL     1      44.064   7.838  12.188  0.00  0.00    +0.000 HD
BRANCH   9  11
ATOM     11  C   UNL     1      43.925   5.829  12.592  0.00  0.00    +0.000 C 
BRANCH  11  12
ATOM     12  C   UNL     1      44.761   4.842  11.761  0.00  0.00    +0.000 C 
ATOM     13  C   UNL     1      43.921   4.087  10.736  0.00  0.00    +0.000 C 
ATOM     14  C   UNL     1      43.371   2.932  11.547  0.00  0.00    +0.000 C 
ATOM     15  N   UNL     1      44.509   2.505  12.369  0.00  0.00    +0.000 NA
ATOM     16  C   UNL     1      45.317   3.709  12.634  0.00  0.00    +0.000 C 
ATOM     17  H   UNL     1      45.074   1.859  11.815  0.00  0.00    +0.000 HD
ENDBRANCH  11  12
ENDBRANCH   9  11
ENDBRANCH   8   9
ENDBRANCH   5   8
ENDBRANCH   1   2
BRANCH   1  18
ATOM     18  N   UNL     1      48.646   7.966  17.743  0.00  0.00    +0.000 N 
ATOM     19  C   UNL     1      48.738   6.778  18.486  0.00  0.00    +0.000 C 
ATOM     20  O   UNL     1      48.021   6.571  19.463  0.00  0.00    +0.000 OA
BRANCH  19  21
ATOM     21  C   UNL     1      49.743   5.778  18.121  0.00  0.00    +0.000 A 
ATOM     22  C   UNL     1      51.086   5.854  18.451  0.00  0.00    +0.000 A 
ATOM     23  S   UNL     1      51.980   4.476  17.982  0.00  0.00    +0.000 S 
ATOM     24  C   UNL     1      50.574   3.689  17.436  0.00  0.00    +0.000 A 
ATOM     25  N   UNL     1      50.616   2.402  16.992  0.00  0.00    +0.000 NA
ATOM     26  C   UNL     1      49.463   1.918  16.666  0.00  0.00    +0.000 A 
ATOM     27  N   UNL     1      48.281   2.614  16.708  0.00  0.00    +0.000 N 
ATOM     28  C   UNL     1      48.210   3.956  17.029  0.00  0.00    +0.000 A 
ATOM     29  O   UNL     1      47.189   4.600  16.828  0.00  0.00    +0.000 OA
ATOM     30  C   UNL     1      49.464   4.498  17.519  0.00  0.00    +0.000 A 
ATOM     31  H   UNL     1      47.426   2.198  16.369  0.00  0.00    +0.000 HD
ENDBRANCH  19  21
BRANCH  18  33
ATOM     32  C   UNL     1      48.195  10.401  18.079  0.00  0.00    +0.000 C 
ATOM     33  C   UNL     1      47.696   8.969  18.253  0.00  0.00    +0.000 C 
ENDBRANCH  18  33
ENDBRANCH   1  18
TORSDOF 8
ENDMDL
MODEL 7
REMARK VINA RESULT:    -6.093      2.218      3.212
REMARK INTER + INTRA:         -10.546
REMARK INTER:                  -9.100
REMARK INTRA:                  -1.446
REMARK UNBOUND:                -1.603
REMARK  Name = 
REMARK  9 active torsions:
REMARK  status: ('A' for Active; 'I' for Inactive)
REMARK    1  A    between atoms: C_1  and  C_2
REMARK    2  A    between atoms: C_2  and  N_3
REMARK    3  A    between atoms: N_3  and  C_4
REMARK    4  A    between atoms: C_4  and  C_5
REMARK    5  A    between atoms: C_8  and  C_9
REMARK    6  A    between atoms: C_9  and  N_10
REMARK    7  A    between atoms: N_10  and  C_11
REMARK    8  A    between atoms: C_11  and  C_12
REMARK    9  A    between atoms: C_19  and  C_21
REMARK                            x       y       z     vdW  Elec       q    Type
REMARK                         _______ _______ _______ _____ _____    ______ ____
ROOT
ATOM      1  C   UNL     1      47.397   5.993  12.719  0.00  0.00    +0.000 C 
ENDROOT
BRANCH   1   2
ATOM      2  C   UNL     1      47.490   5.571  14.161  0.00  0.00    +0.000 A 
ATOM      3  C   UNL     1      48.334   6.246  15.057  0.00  0.00    +0.000 A 
ATOM      4  C   UNL     1      48.630   5.685  16.300  0.00  0.00    +0.000 A 
ATOM      5  C   UNL     1      48.060   4.460  16.677  0.00  0.00    +0.000 A 
ATOM      6  C   UNL     1      47.120   3.862  15.823  0.00  0.00    +0.000 A 
ATOM      7  C   UNL     1      46.831   4.413  14.579  0.00  0.00    +0.000 A 
BRANCH   5   8
ATOM      8  C   UNL     1      48.552   3.659  17.859  0.00  0.00    +0.000 C 
BRANCH   8   9
ATOM      9  N   UNL     1      49.944   3.904  18.228  0.00  0.00    +0.000 NA
ATOM     10  H   UNL     1      50.010   3.958  19.243  0.00  0.00    +0.000 HD
BRANCH   9  11
ATOM     11  C   UNL     1      50.785   2.808  17.728  0.00  0.00    +0.000 C 
BRANCH  11  12
ATOM     12  C   UNL     1      52.229   3.277  17.484  0.00  0.00    +0.000 C 
ATOM     13  C   UNL     1      53.218   2.651  18.461  0.00  0.00    +0.000 C 
ATOM     14  C   UNL     1      53.126   3.571  19.660  0.00  0.00    +0.000 C 
ATOM     15  N   UNL     1      53.067   4.914  19.070  0.00  0.00    +0.000 NA
ATOM     16  C   UNL     1      52.383   4.777  17.771  0.00  0.00    +0.000 C 
ATOM     17  H   UNL     1      54.024   5.224  18.894  0.00  0.00    +0.000 HD
ENDBRANCH  11  12
ENDBRANCH   9  11
ENDBRANCH   8   9
ENDBRANCH   5   8
ENDBRANCH   1   2
BRANCH   1  18
ATOM     18  N   UNL     1      46.549   7.171  12.447  0.00  0.00    +0.000 N 
ATOM     19  C   UNL     1      45.519   7.182  11.492  0.00  0.00    +0.000 C 
ATOM     20  O   UNL     1      44.859   8.195  11.267  0.00  0.00    +0.000 OA
BRANCH  19  21
ATOM     21  C   UNL     1      45.187   5.948  10.778  0.00  0.00    +0.000 A 
ATOM     22  C   UNL     1      45.676   5.603   9.529  0.00  0.00    +0.000 A 
ATOM     23  S   UNL     1      45.195   4.047   9.015  0.00  0.00    +0.000 S 
ATOM     24  C   UNL     1      44.421   3.743  10.499  0.00  0.00    +0.000 A 
ATOM     25  N   UNL     1      43.873   2.526  10.771  0.00  0.00    +0.000 NA
ATOM     26  C   UNL     1      43.374   2.424  11.958  0.00  0.00    +0.000 A 
ATOM     27  N   UNL     1      43.339   3.437  12.883  0.00  0.00    +0.000 N 
ATOM     28  C   UNL     1      43.767   4.721  12.607  0.00  0.00    +0.000 A 
ATOM     29  O   UNL     1      43.506   5.650  13.360  0.00  0.00    +0.000 OA
ATOM     30  C   UNL     1      44.446   4.840  11.330  0.00  0.00    +0.000 A 
ATOM     31  H   UNL     1      42.868   3.312  13.766  0.00  0.00    +0.000 HD
ENDBRANCH  19  21
BRANCH  18  33
ATOM     32  C   UNL     1      47.939   9.227  12.736  0.00  0.00    +0.000 C 
ATOM     33  C   UNL     1      46.733   8.419  13.206  0.00  0.00    +0.000 C 
ENDBRANCH  18  33
ENDBRANCH   1  18
TORSDOF 8
ENDMDL
MODEL 8
REMARK VINA RESULT:    -5.824      3.072      8.722
REMARK INTER + INTRA:         -10.151
REMARK INTER:                  -9.024
REMARK INTRA:                  -1.127
REMARK UNBOUND:                -1.603
REMARK  Name = 
REMARK  9 active torsions:
REMARK  status: ('A' for Active; 'I' for Inactive)
REMARK    1  A    between atoms: C_1  and  C_2
REMARK    2  A    between atoms: C_2  and  N_3
REMARK    3  A    between atoms: N_3  and  C_4
REMARK    4  A    between atoms: C_4  and  C_5
REMARK    5  A    between atoms: C_8  and  C_9
REMARK    6  A    between atoms: C_9  and  N_10
REMARK    7  A    between atoms: N_10  and  C_11
REMARK    8  A    between atoms: C_11  and  C_12
REMARK    9  A    between atoms: C_19  and  C_21
REMARK                            x       y       z     vdW  Elec       q    Type
REMARK                         _______ _______ _______ _____ _____    ______ ____
ROOT
ATOM      1  C   UNL     1      47.571   7.970  13.659  0.00  0.00    +0.000 C 
ENDROOT
BRANCH   1   2
ATOM      2  C   UNL     1      46.839   6.798  13.063  0.00  0.00    +0.000 A 
ATOM      3  C   UNL     1      45.791   6.989  12.149  0.00  0.00    +0.000 A 
ATOM      4  C   UNL     1      44.942   5.931  11.823  0.00  0.00    +0.000 A 
ATOM      5  C   UNL     1      45.149   4.661  12.380  0.00  0.00    +0.000 A 
ATOM      6  C   UNL     1      46.276   4.455  13.191  0.00  0.00    +0.000 A 
ATOM      7  C   UNL     1      47.118   5.510  13.526  0.00  0.00    +0.000 A 
BRANCH   5   8
ATOM      8  C   UNL     1      44.119   3.559  12.308  0.00  0.00    +0.000 C 
BRANCH   8   9
ATOM      9  N   UNL     1      44.389   2.533  11.304  0.00  0.00    +0.000 NA
ATOM     10  H   UNL     1      43.501   2.168  10.960  0.00  0.00    +0.000 HD
BRANCH   9  11
ATOM     11  C   UNL     1      45.153   3.119  10.196  0.00  0.00    +0.000 C 
BRANCH  11  12
ATOM     12  C   UNL     1      44.751   2.497   8.848  0.00  0.00    +0.000 C 
ATOM     13  C   UNL     1      45.688   1.371   8.425  0.00  0.00    +0.000 C 
ATOM     14  C   UNL     1      46.813   2.117   7.740  0.00  0.00    +0.000 C 
ATOM     15  N   UNL     1      46.126   3.150   6.956  0.00  0.00    +0.000 NA
ATOM     16  C   UNL     1      44.904   3.505   7.701  0.00  0.00    +0.000 C 
ATOM     17  H   UNL     1      45.845   2.736   6.065  0.00  0.00    +0.000 HD
ENDBRANCH  11  12
ENDBRANCH   9  11
ENDBRANCH   8   9
ENDBRANCH   5   8
ENDBRANCH   1   2
BRANCH   1  18
ATOM     18  N   UNL     1      49.045   7.892  13.628  0.00  0.00    +0.000 N 
ATOM     19  C   UNL     1      49.833   7.635  14.762  0.00  0.00    +0.000 C 
ATOM     20  O   UNL     1      51.061   7.615  14.703  0.00  0.00    +0.000 OA
BRANCH  19  21
ATOM     21  C   UNL     1      49.180   7.335  16.038  0.00  0.00    +0.000 A 
ATOM     22  C   UNL     1      49.036   6.064  16.570  0.00  0.00    +0.000 A 
ATOM     23  S   UNL     1      48.335   6.053  18.127  0.00  0.00    +0.000 S 
ATOM     24  C   UNL     1      48.317   7.754  18.183  0.00  0.00    +0.000 A 
ATOM     25  N   UNL     1      47.922   8.416  19.306  0.00  0.00    +0.000 NA
ATOM     26  C   UNL     1      48.018   9.702  19.222  0.00  0.00    +0.000 A 
ATOM     27  N   UNL     1      48.435  10.385  18.107  0.00  0.00    +0.000 N 
ATOM     28  C   UNL     1      48.722   9.762  16.908  0.00  0.00    +0.000 A 
ATOM     29  O   UNL     1      48.857  10.408  15.877  0.00  0.00    +0.000 OA
ATOM     30  C   UNL     1      48.745   8.315  17.002  0.00  0.00    +0.000 A 
ATOM     31  H   UNL     1      48.416  11.394  18.084  0.00  0.00    +0.000 HD
ENDBRANCH  19  21
BRANCH  18  33
ATOM     32  C   UNL     1      49.368   9.316  11.601  0.00  0.00    +0.000 C 
ATOM     33  C   UNL     1      49.778   8.060  12.363  0.00  0.00    +0.000 C 
ENDBRANCH  18  33
ENDBRANCH   1  18
TORSDOF 8
ENDMDL
MODEL 9
REMARK VINA RESULT:    -5.505      2.354      3.476
REMARK INTER + INTRA:          -9.682
REMARK INTER:                  -7.483
REMARK INTRA:                  -2.200
REMARK UNBOUND:                -1.603
REMARK  Name = 
REMARK  9 active torsions:
REMARK  status: ('A' for Active; 'I' for Inactive)
REMARK    1  A    between atoms: C_1  and  C_2
REMARK    2  A    between atoms: C_2  and  N_3
REMARK    3  A    between atoms: N_3  and  C_4
REMARK    4  A    between atoms: C_4  and  C_5
REMARK    5  A    between atoms: C_8  and  C_9
REMARK    6  A    between atoms: C_9  and  N_10
REMARK    7  A    between atoms: N_10  and  C_11
REMARK    8  A    between atoms: C_11  and  C_12
REMARK    9  A    between atoms: C_19  and  C_21
REMARK                            x       y       z     vdW  Elec       q    Type
REMARK                         _______ _______ _______ _____ _____    ______ ____
ROOT
ATOM      1  C   UNL     1      47.531   8.447  14.396  0.00  0.00    +0.000 C 
ENDROOT
BRANCH   1   2
ATOM      2  C   UNL     1      48.643   8.280  15.397  0.00  0.00    +0.000 A 
ATOM      3  C   UNL     1      49.739   7.446  15.127  0.00  0.00    +0.000 A 
ATOM      4  C   UNL     1      50.609   7.076  16.154  0.00  0.00    +0.000 A 
ATOM      5  C   UNL     1      50.415   7.562  17.454  0.00  0.00    +0.000 A 
ATOM      6  C   UNL     1      49.392   8.495  17.681  0.00  0.00    +0.000 A 
ATOM      7  C   UNL     1      48.516   8.857  16.663  0.00  0.00    +0.000 A 
BRANCH   5   8
ATOM      8  C   UNL     1      51.124   6.985  18.657  0.00  0.00    +0.000 C 
BRANCH   8   9
ATOM      9  N   UNL     1      50.244   6.387  19.658  0.00  0.00    +0.000 NA
ATOM     10  H   UNL     1      49.320   6.809  19.578  0.00  0.00    +0.000 HD
BRANCH   9  11
ATOM     11  C   UNL     1      50.154   4.939  19.430  0.00  0.00    +0.000 C 
BRANCH  11  12
ATOM     12  C   UNL     1      48.697   4.451  19.500  0.00  0.00    +0.000 C 
ATOM     13  C   UNL     1      48.257   3.747  18.221  0.00  0.00    +0.000 C 
ATOM     14  C   UNL     1      47.825   4.901  17.340  0.00  0.00    +0.000 C 
ATOM     15  N   UNL     1      47.098   5.789  18.255  0.00  0.00    +0.000 NA
ATOM     16  C   UNL     1      47.719   5.630  19.583  0.00  0.00    +0.000 C 
ATOM     17  H   UNL     1      46.133   5.461  18.314  0.00  0.00    +0.000 HD
ENDBRANCH  11  12
ENDBRANCH   9  11
ENDBRANCH   8   9
ENDBRANCH   5   8
ENDBRANCH   1   2
BRANCH   1  18
ATOM     18  N   UNL     1      47.938   8.443  12.977  0.00  0.00    +0.000 N 
ATOM     19  C   UNL     1      47.773   7.339  12.125  0.00  0.00    +0.000 C 
ATOM     20  O   UNL     1      48.159   7.362  10.957  0.00  0.00    +0.000 OA
BRANCH  19  21
ATOM     21  C   UNL     1      47.084   6.146  12.619  0.00  0.00    +0.000 A 
ATOM     22  C   UNL     1      47.681   5.142  13.365  0.00  0.00    +0.000 A 
ATOM     23  S   UNL     1      46.587   3.942  13.890  0.00  0.00    +0.000 S 
ATOM     24  C   UNL     1      45.265   4.793  13.240  0.00  0.00    +0.000 A 
ATOM     25  N   UNL     1      43.987   4.359  13.428  0.00  0.00    +0.000 NA
ATOM     26  C   UNL     1      43.086   5.139  12.928  0.00  0.00    +0.000 A 
ATOM     27  N   UNL     1      43.346   6.289  12.227  0.00  0.00    +0.000 N 
ATOM     28  C   UNL     1      44.626   6.699  11.904  0.00  0.00    +0.000 A 
ATOM     29  O   UNL     1      44.816   7.588  11.085  0.00  0.00    +0.000 OA
ATOM     30  C   UNL     1      45.662   5.918  12.553  0.00  0.00    +0.000 A 
ATOM     31  H   UNL     1      42.597   6.813  11.801  0.00  0.00    +0.000 HD
ENDBRANCH  19  21
BRANCH  18  33
ATOM     32  C   UNL     1      48.248  10.916  13.158  0.00  0.00    +0.000 C 
ATOM     33  C   UNL     1      48.528   9.644  12.363  0.00  0.00    +0.000 C 
ENDBRANCH  18  33
ENDBRANCH   1  18
TORSDOF 8
ENDMDL
