MODEL 1
REMARK VINA RESULT:    -8.032      0.000      0.000
REMARK INTER + INTRA:         -13.948
REMARK INTER:                 -13.197
REMARK INTRA:                  -0.750
REMARK UNBOUND:                -0.750
REMARK  Name = 
REMARK  13 active torsions:
REMARK  status: ('A' for Active; 'I' for Inactive)
REMARK    1  A    between atoms: C_1  and  C_2
REMARK    2  A    between atoms: C_2  and  C_3
REMARK    3  A    between atoms: C_3  and  N_4
REMARK    4  A    between atoms: C_3  and  C_16
REMARK    5  A    between atoms: N_4  and  C_5
REMARK    6  A    between atoms: C_5  and  C_6
REMARK    7  A    between atoms: C_9  and  C_10
REMARK    8  A    between atoms: C_10  and  O_11
REMARK    9  A    between atoms: C_10  and  C_12
REMARK   10  A    between atoms: C_12  and  O_13
REMARK   11  A    between atoms: C_19  and  C_20
REMARK   12  A    between atoms: C_20  and  N_21
REMARK   13  A    between atoms: C_22  and  C_24
REMARK                            x       y       z     vdW  Elec       q    Type
REMARK                         _______ _______ _______ _____ _____    ______ ____
ROOT
ATOM      1  C   UNL     1      45.131   5.553  12.958  0.00  0.00    +0.000 A 
ATOM      2  C   UNL     1      45.047   6.958  12.948  0.00  0.00    +0.000 A 
ATOM      3  C   UNL     1      46.199   7.751  12.935  0.00  0.00    +0.000 A 
ATOM      4  C   UNL     1      47.464   7.157  12.858  0.00  0.00    +0.000 A 
ATOM      5  C   UNL     1      47.556   5.763  12.851  0.00  0.00    +0.000 A 
ATOM      6  C   UNL     1      46.410   4.974  12.915  0.00  0.00    +0.000 A 
ENDROOT
BRANCH   1   7
ATOM      7  C   UNL     1      43.864   4.705  13.112  0.00  0.00    +0.000 C 
BRANCH   7   9
ATOM      8  C   UNL     1      43.008   6.470  11.381  0.00  0.00    +0.000 C 
ATOM      9  C   UNL     1      42.669   5.372  12.377  0.00  0.00    +0.000 C 
ENDBRANCH   7   9
BRANCH   7  10
ATOM     10  N   UNL     1      44.081   3.316  12.654  0.00  0.00    +0.000 NA
ATOM     11  H   UNL     1      43.773   2.677  13.385  0.00  0.00    +0.000 HD
BRANCH  10  12
ATOM     12  C   UNL     1      43.328   3.015  11.426  0.00  0.00    +0.000 C 
BRANCH  12  13
ATOM     13  C   UNL     1      44.190   2.991  10.190  0.00  0.00    +0.000 A 
ATOM     14  C   UNL     1      44.524   1.772   9.579  0.00  0.00    +0.000 A 
ATOM     15  C   UNL     1      45.279   1.750   8.405  0.00  0.00    +0.000 A 
ATOM     16  C   UNL     1      45.724   2.943   7.821  0.00  0.00    +0.000 A 
ATOM     17  C   UNL     1      45.377   4.160   8.432  0.00  0.00    +0.000 A 
ATOM     18  C   UNL     1      44.619   4.183   9.603  0.00  0.00    +0.000 A 
BRANCH  16  19
ATOM     19  C   UNL     1      46.601   2.899   6.584  0.00  0.00    +0.000 C 
BRANCH  19  20
ATOM     20  O   UNL     1      46.903   4.221   6.138  0.00  0.00    +0.000 OA
ATOM     21  H   UNL     1      46.166   4.534   5.591  0.00  0.00    +0.000 HD
ENDBRANCH  19  20
BRANCH  19  22
ATOM     22  C   UNL     1      47.912   2.131   6.840  0.00  0.00    +0.000 C 
BRANCH  22  23
ATOM     23  O   UNL     1      48.540   1.710   5.631  0.00  0.00    +0.000 OA
ATOM     24  H   UNL     1      47.829   1.497   4.997  0.00  0.00    +0.000 HD
ENDBRANCH  22  23
ENDBRANCH  19  22
ENDBRANCH  16  19
ENDBRANCH  12  13
ENDBRANCH  10  12
ENDBRANCH   7  10
ENDBRANCH   1   7
BRANCH   4  25
ATOM     25  C   UNL     1      48.717   7.986  12.832  0.00  0.00    +0.000 C 
BRANCH  25  26
ATOM     26  N   UNL     1      49.740   7.412  13.667  0.00  0.00    +0.000 N 
ATOM     27  C   UNL     1      50.295   8.134  14.691  0.00  0.00    +0.000 C 
ATOM     28  O   UNL     1      49.919   9.271  14.963  0.00  0.00    +0.000 OA
ATOM     29  H   UNL     1      50.228   6.596  13.311  0.00  0.00    +0.000 HD
BRANCH  27  30
ATOM     30  C   UNL     1      51.318   7.458  15.493  0.00  0.00    +0.000 A 
ATOM     31  C   UNL     1      52.633   7.900  15.445  0.00  0.00    +0.000 A 
ATOM     32  S   UNL     1      53.683   7.041  16.478  0.00  0.00    +0.000 S 
ATOM     33  C   UNL     1      52.428   6.009  16.982  0.00  0.00    +0.000 A 
ATOM     34  N   UNL     1      52.666   5.005  17.868  0.00  0.00    +0.000 NA
ATOM     35  C   UNL     1      51.631   4.280  18.144  0.00  0.00    +0.000 A 
ATOM     36  N   UNL     1      50.381   4.475  17.621  0.00  0.00    +0.000 N 
ATOM     37  C   UNL     1      50.086   5.503  16.749  0.00  0.00    +0.000 A 
ATOM     38  O   UNL     1      48.943   5.681  16.346  0.00  0.00    +0.000 OA
ATOM     39  C   UNL     1      51.219   6.327  16.393  0.00  0.00    +0.000 A 
ATOM     40  H   UNL     1      49.612   3.878  17.886  0.00  0.00    +0.000 HD
ENDBRANCH  27  30
ENDBRANCH  25  26
ENDBRANCH   4  25
TORSDOF 12
ENDMDL
MODEL 2
REMARK VINA RESULT:    -7.851      3.892      8.594
REMARK INTER + INTRA:         -13.650
REMARK INTER:                 -11.089
REMARK INTRA:                  -2.562
REMARK UNBOUND:                -0.750
REMARK  Name = 
REMARK  13 active torsions:
REMARK  status: ('A' for Active; 'I' for Inactive)
REMARK    1  A    between atoms: C_1  and  C_2
REMARK    2  A    between atoms: C_2  and  C_3
REMARK    3  A    between atoms: C_3  and  N_4
REMARK    4  A    between atoms: C_3  and  C_16
REMARK    5  A    between atoms: N_4  and  C_5
REMARK    6  A    between atoms: C_5  and  C_6
REMARK    7  A    between atoms: C_9  and  C_10
REMARK    8  A    between atoms: C_10  and  O_11
REMARK    9  A    between atoms: C_10  and  C_12
REMARK   10  A    between atoms: C_12  and  O_13
REMARK   11  A    between atoms: C_19  and  C_20
REMARK   12  A    between atoms: C_20  and  N_21
REMARK   13  A    between atoms: C_22  and  C_24
REMARK                            x       y       z     vdW  Elec       q    Type
REMARK                         _______ _______ _______ _____ _____    ______ ____
ROOT
ATOM      1  C   UNL     1      49.061   8.636  17.704  0.00  0.00    +0.000 A 
ATOM      2  C   UNL     1      49.981   7.640  17.328  0.00  0.00    +0.000 A 
ATOM      3  C   UNL     1      50.101   7.232  15.995  0.00  0.00    +0.000 A 
ATOM      4  C   UNL     1      49.354   7.863  14.995  0.00  0.00    +0.000 A 
ATOM      5  C   UNL     1      48.450   8.865  15.356  0.00  0.00    +0.000 A 
ATOM      6  C   UNL     1      48.294   9.235  16.691  0.00  0.00    +0.000 A 
ENDROOT
BRANCH   1   7
ATOM      7  C   UNL     1      48.846   8.970  19.184  0.00  0.00    +0.000 C 
BRANCH   7   9
ATOM      8  C   UNL     1      50.487  11.007  19.151  0.00  0.00    +0.000 C 
ATOM      9  C   UNL     1      49.090  10.482  19.443  0.00  0.00    +0.000 C 
ENDBRANCH   7   9
BRANCH   7  10
ATOM     10  N   UNL     1      47.507   8.546  19.648  0.00  0.00    +0.000 NA
ATOM     11  H   UNL     1      46.910   8.402  18.836  0.00  0.00    +0.000 HD
BRANCH  10  12
ATOM     12  C   UNL     1      47.559   7.292  20.415  0.00  0.00    +0.000 C 
BRANCH  12  13
ATOM     13  C   UNL     1      47.803   6.079  19.555  0.00  0.00    +0.000 A 
ATOM     14  C   UNL     1      46.928   5.763  18.504  0.00  0.00    +0.000 A 
ATOM     15  C   UNL     1      47.180   4.670  17.673  0.00  0.00    +0.000 A 
ATOM     16  C   UNL     1      48.307   3.864  17.880  0.00  0.00    +0.000 A 
ATOM     17  C   UNL     1      49.186   4.192  18.927  0.00  0.00    +0.000 A 
ATOM     18  C   UNL     1      48.936   5.287  19.754  0.00  0.00    +0.000 A 
BRANCH  16  19
ATOM     19  C   UNL     1      48.531   2.639  17.012  0.00  0.00    +0.000 C 
BRANCH  19  20
ATOM     20  O   UNL     1      48.187   2.918  15.655  0.00  0.00    +0.000 OA
ATOM     21  H   UNL     1      47.770   2.127  15.278  0.00  0.00    +0.000 HD
ENDBRANCH  19  20
BRANCH  19  22
ATOM     22  C   UNL     1      49.990   2.149  17.083  0.00  0.00    +0.000 C 
BRANCH  22  23
ATOM     23  O   UNL     1      50.390   1.463  15.898  0.00  0.00    +0.000 OA
ATOM     24  H   UNL     1      51.276   1.090  16.067  0.00  0.00    +0.000 HD
ENDBRANCH  22  23
ENDBRANCH  19  22
ENDBRANCH  16  19
ENDBRANCH  12  13
ENDBRANCH  10  12
ENDBRANCH   7  10
ENDBRANCH   1   7
BRANCH   4  25
ATOM     25  C   UNL     1      49.471   7.452  13.554  0.00  0.00    +0.000 C 
BRANCH  25  26
ATOM     26  N   UNL     1      48.176   7.212  12.972  0.00  0.00    +0.000 N 
ATOM     27  C   UNL     1      47.462   6.087  13.293  0.00  0.00    +0.000 C 
ATOM     28  O   UNL     1      47.871   5.269  14.112  0.00  0.00    +0.000 OA
ATOM     29  H   UNL     1      47.942   7.728  12.130  0.00  0.00    +0.000 HD
BRANCH  27  30
ATOM     30  C   UNL     1      46.149   5.940  12.659  0.00  0.00    +0.000 A 
ATOM     31  C   UNL     1      45.489   7.062  12.177  0.00  0.00    +0.000 A 
ATOM     32  S   UNL     1      44.002   6.710  11.421  0.00  0.00    +0.000 S 
ATOM     33  C   UNL     1      44.160   5.051  11.763  0.00  0.00    +0.000 A 
ATOM     34  N   UNL     1      43.191   4.170  11.399  0.00  0.00    +0.000 NA
ATOM     35  C   UNL     1      43.425   2.945  11.744  0.00  0.00    +0.000 A 
ATOM     36  N   UNL     1      44.544   2.525  12.412  0.00  0.00    +0.000 N 
ATOM     37  C   UNL     1      45.568   3.377  12.768  0.00  0.00    +0.000 A 
ATOM     38  O   UNL     1      46.580   2.955  13.314  0.00  0.00    +0.000 OA
ATOM     39  C   UNL     1      45.340   4.762  12.423  0.00  0.00    +0.000 A 
ATOM     40  H   UNL     1      44.671   1.551  12.644  0.00  0.00    +0.000 HD
ENDBRANCH  27  30
ENDBRANCH  25  26
ENDBRANCH   4  25
TORSDOF 12
ENDMDL
MODEL 3
REMARK VINA RESULT:    -7.849      2.996      3.477
REMARK INTER + INTRA:         -13.646
REMARK INTER:                 -12.428
REMARK INTRA:                  -1.218
REMARK UNBOUND:                -0.750
REMARK  Name = 
REMARK  13 active torsions:
REMARK  status: ('A' for Active; 'I' for Inactive)
REMARK    1  A    between atoms: C_1  and  C_2
REMARK    2  A    between atoms: C_2  and  C_3
REMARK    3  A    between atoms: C_3  and  N_4
REMARK    4  A    between atoms: C_3  and  C_16
REMARK    5  A    between atoms: N_4  and  C_5
REMARK    6  A    between atoms: C_5  and  C_6
REMARK    7  A    between atoms: C_9  and  C_10
REMARK    8  A    between atoms: C_10  and  O_11
REMARK    9  A    between atoms: C_10  and  C_12
REMARK   10  A    between atoms: C_12  and  O_13
REMARK   11  A    between atoms: C_19  and  C_20
REMARK   12  A    between atoms: C_20  and  N_21
REMARK   13  A    between atoms: C_22  and  C_24
REMARK                            x       y       z     vdW  Elec       q    Type
REMARK                         _______ _______ _______ _____ _____    ______ ____
ROOT
ATOM      1  C   UNL     1      46.239   6.621  12.049  0.00  0.00    +0.000 A 
ATOM      2  C   UNL     1      45.588   7.798  12.463  0.00  0.00    +0.000 A 
ATOM      3  C   UNL     1      46.301   8.853  13.042  0.00  0.00    +0.000 A 
ATOM      4  C   UNL     1      47.693   8.786  13.154  0.00  0.00    +0.000 A 
ATOM      5  C   UNL     1      48.350   7.628  12.729  0.00  0.00    +0.000 A 
ATOM      6  C   UNL     1      47.633   6.557  12.200  0.00  0.00    +0.000 A 
ENDROOT
BRANCH   1   7
ATOM      7  C   UNL     1      45.424   5.424  11.547  0.00  0.00    +0.000 C 
BRANCH   7   9
ATOM      8  C   UNL     1      45.916   3.241  12.904  0.00  0.00    +0.000 C 
ATOM      9  C   UNL     1      45.055   4.482  12.726  0.00  0.00    +0.000 C 
ENDBRANCH   7   9
BRANCH   7  10
ATOM     10  N   UNL     1      44.224   5.858  10.799  0.00  0.00    +0.000 NA
ATOM     11  H   UNL     1      44.499   6.570  10.125  0.00  0.00    +0.000 HD
BRANCH  10  12
ATOM     12  C   UNL     1      43.593   4.747  10.071  0.00  0.00    +0.000 C 
BRANCH  12  13
ATOM     13  C   UNL     1      44.584   3.877   9.341  0.00  0.00    +0.000 A 
ATOM     14  C   UNL     1      44.586   2.486   9.532  0.00  0.00    +0.000 A 
ATOM     15  C   UNL     1      45.467   1.672   8.818  0.00  0.00    +0.000 A 
ATOM     16  C   UNL     1      46.370   2.230   7.904  0.00  0.00    +0.000 A 
ATOM     17  C   UNL     1      46.355   3.622   7.709  0.00  0.00    +0.000 A 
ATOM     18  C   UNL     1      45.472   4.435   8.419  0.00  0.00    +0.000 A 
BRANCH  16  19
ATOM     19  C   UNL     1      47.368   1.340   7.186  0.00  0.00    +0.000 C 
BRANCH  19  20
ATOM     20  O   UNL     1      46.780   0.077   6.878  0.00  0.00    +0.000 OA
ATOM     21  H   UNL     1      47.458  -0.483   6.468  0.00  0.00    +0.000 HD
ENDBRANCH  19  20
BRANCH  19  22
ATOM     22  C   UNL     1      47.889   1.995   5.893  0.00  0.00    +0.000 C 
BRANCH  22  23
ATOM     23  O   UNL     1      49.016   2.838   6.127  0.00  0.00    +0.000 OA
ATOM     24  H   UNL     1      49.253   3.244   5.272  0.00  0.00    +0.000 HD
ENDBRANCH  22  23
ENDBRANCH  19  22
ENDBRANCH  16  19
ENDBRANCH  12  13
ENDBRANCH  10  12
ENDBRANCH   7  10
ENDBRANCH   1   7
BRANCH   4  25
ATOM     25  C   UNL     1      48.485   9.909  13.761  0.00  0.00    +0.000 C 
BRANCH  25  26
ATOM     26  N   UNL     1      48.133  10.109  15.143  0.00  0.00    +0.000 N 
ATOM     27  C   UNL     1      48.751   9.392  16.135  0.00  0.00    +0.000 C 
ATOM     28  O   UNL     1      49.650   8.591  15.894  0.00  0.00    +0.000 OA
ATOM     29  H   UNL     1      47.246  10.564  15.336  0.00  0.00    +0.000 HD
BRANCH  27  30
ATOM     30  C   UNL     1      48.333   9.678  17.510  0.00  0.00    +0.000 A 
ATOM     31  C   UNL     1      48.166  10.994  17.918  0.00  0.00    +0.000 A 
ATOM     32  S   UNL     1      47.625  11.149  19.527  0.00  0.00    +0.000 S 
ATOM     33  C   UNL     1      47.649   9.463  19.754  0.00  0.00    +0.000 A 
ATOM     34  N   UNL     1      47.310   8.917  20.951  0.00  0.00    +0.000 NA
ATOM     35  C   UNL     1      47.397   7.627  20.994  0.00  0.00    +0.000 A 
ATOM     36  N   UNL     1      47.786   6.837  19.945  0.00  0.00    +0.000 N 
ATOM     37  C   UNL     1      48.103   7.345  18.702  0.00  0.00    +0.000 A 
ATOM     38  O   UNL     1      48.390   6.603  17.771  0.00  0.00    +0.000 OA
ATOM     39  C   UNL     1      48.040   8.787  18.613  0.00  0.00    +0.000 A 
ATOM     40  H   UNL     1      47.824   5.834  20.041  0.00  0.00    +0.000 HD
ENDBRANCH  27  30
ENDBRANCH  25  26
ENDBRANCH   4  25
TORSDOF 12
ENDMDL
MODEL 4
REMARK VINA RESULT:    -7.794      3.517      4.012
REMARK INTER + INTRA:         -13.556
REMARK INTER:                 -12.050
REMARK INTRA:                  -1.506
REMARK UNBOUND:                -0.750
REMARK  Name = 
REMARK  13 active torsions:
REMARK  status: ('A' for Active; 'I' for Inactive)
REMARK    1  A    between atoms: C_1  and  C_2
REMARK    2  A    between atoms: C_2  and  C_3
REMARK    3  A    between atoms: C_3  and  N_4
REMARK    4  A    between atoms: C_3  and  C_16
REMARK    5  A    between atoms: N_4  and  C_5
REMARK    6  A    between atoms: C_5  and  C_6
REMARK    7  A    between atoms: C_9  and  C_10
REMARK    8  A    between atoms: C_10  and  O_11
REMARK    9  A    between atoms: C_10  and  C_12
REMARK   10  A    between atoms: C_12  and  O_13
REMARK   11  A    between atoms: C_19  and  C_20
REMARK   12  A    between atoms: C_20  and  N_21
REMARK   13  A    between atoms: C_22  and  C_24
REMARK                            x       y       z     vdW  Elec       q    Type
REMARK                         _______ _______ _______ _____ _____    ______ ____
ROOT
ATOM      1  C   UNL     1      46.015   6.469  12.251  0.00  0.00    +0.000 A 
ATOM      2  C   UNL     1      45.305   7.619  12.643  0.00  0.00    +0.000 A 
ATOM      3  C   UNL     1      45.918   8.876  12.662  0.00  0.00    +0.000 A 
ATOM      4  C   UNL     1      47.237   9.025  12.220  0.00  0.00    +0.000 A 
ATOM      5  C   UNL     1      47.944   7.891  11.813  0.00  0.00    +0.000 A 
ATOM      6  C   UNL     1      47.349   6.632  11.843  0.00  0.00    +0.000 A 
ENDROOT
BRANCH   1   7
ATOM      7  C   UNL     1      45.369   5.084  12.369  0.00  0.00    +0.000 C 
BRANCH   7   9
ATOM      8  C   UNL     1      46.839   3.414  13.745  0.00  0.00    +0.000 C 
ATOM      9  C   UNL     1      45.714   4.437  13.739  0.00  0.00    +0.000 C 
ENDBRANCH   7   9
BRANCH   7  10
ATOM     10  N   UNL     1      43.908   5.146  12.148  0.00  0.00    +0.000 NA
ATOM     11  H   UNL     1      43.696   5.973  11.592  0.00  0.00    +0.000 HD
BRANCH  10  12
ATOM     12  C   UNL     1      43.407   3.963  11.432  0.00  0.00    +0.000 C 
BRANCH  12  13
ATOM     13  C   UNL     1      44.192   3.645  10.186  0.00  0.00    +0.000 A 
ATOM     14  C   UNL     1      44.639   4.676   9.344  0.00  0.00    +0.000 A 
ATOM     15  C   UNL     1      45.412   4.388   8.217  0.00  0.00    +0.000 A 
ATOM     16  C   UNL     1      45.746   3.065   7.902  0.00  0.00    +0.000 A 
ATOM     17  C   UNL     1      45.305   2.039   8.756  0.00  0.00    +0.000 A 
ATOM     18  C   UNL     1      44.538   2.327   9.884  0.00  0.00    +0.000 A 
BRANCH  16  19
ATOM     19  C   UNL     1      46.528   2.762   6.637  0.00  0.00    +0.000 C 
BRANCH  19  20
ATOM     20  O   UNL     1      46.997   3.970   6.038  0.00  0.00    +0.000 OA
ATOM     21  H   UNL     1      46.449   4.158   5.261  0.00  0.00    +0.000 HD
ENDBRANCH  19  20
BRANCH  19  22
ATOM     22  C   UNL     1      47.720   1.827   6.913  0.00  0.00    +0.000 C 
BRANCH  22  23
ATOM     23  O   UNL     1      48.589   1.707   5.788  0.00  0.00    +0.000 OA
ATOM     24  H   UNL     1      48.812   2.612   5.500  0.00  0.00    +0.000 HD
ENDBRANCH  22  23
ENDBRANCH  19  22
ENDBRANCH  16  19
ENDBRANCH  12  13
ENDBRANCH  10  12
ENDBRANCH   7  10
ENDBRANCH   1   7
BRANCH   4  25
ATOM     25  C   UNL     1      47.916  10.365  12.220  0.00  0.00    +0.000 C 
BRANCH  25  26
ATOM     26  N   UNL     1      49.337  10.230  12.406  0.00  0.00    +0.000 N 
ATOM     27  C   UNL     1      50.210  10.572  11.407  0.00  0.00    +0.000 C 
ATOM     28  O   UNL     1      49.825  11.043  10.340  0.00  0.00    +0.000 OA
ATOM     29  H   UNL     1      49.653   9.625  13.158  0.00  0.00    +0.000 HD
BRANCH  27  30
ATOM     30  C   UNL     1      51.637  10.413  11.699  0.00  0.00    +0.000 A 
ATOM     31  C   UNL     1      52.358  11.482  12.212  0.00  0.00    +0.000 A 
ATOM     32  S   UNL     1      53.988  11.113  12.546  0.00  0.00    +0.000 S 
ATOM     33  C   UNL     1      53.804   9.525  11.962  0.00  0.00    +0.000 A 
ATOM     34  N   UNL     1      54.855   8.664  11.944  0.00  0.00    +0.000 NA
ATOM     35  C   UNL     1      54.583   7.500  11.450  0.00  0.00    +0.000 A 
ATOM     36  N   UNL     1      53.354   7.120  10.983  0.00  0.00    +0.000 N 
ATOM     37  C   UNL     1      52.251   7.948  11.017  0.00  0.00    +0.000 A 
ATOM     38  O   UNL     1      51.153   7.553  10.643  0.00  0.00    +0.000 OA
ATOM     39  C   UNL     1      52.512   9.269  11.541  0.00  0.00    +0.000 A 
ATOM     40  H   UNL     1      53.204   6.191  10.618  0.00  0.00    +0.000 HD
ENDBRANCH  27  30
ENDBRANCH  25  26
ENDBRANCH   4  25
TORSDOF 12
ENDMDL
MODEL 5
REMARK VINA RESULT:    -7.673      1.687      2.267
REMARK INTER + INTRA:         -13.357
REMARK INTER:                 -11.965
REMARK INTRA:                  -1.393
REMARK UNBOUND:                -0.750
REMARK  Name = 
REMARK  13 active torsions:
REMARK  status: ('A' for Active; 'I' for Inactive)
REMARK    1  A    between atoms: C_1  and  C_2
REMARK    2  A    between atoms: C_2  and  C_3
REMARK    3  A    between atoms: C_3  and  N_4
REMARK    4  A    between atoms: C_3  and  C_16
REMARK    5  A    between atoms: N_4  and  C_5
REMARK    6  A    between atoms: C_5  and  C_6
REMARK    7  A    between atoms: C_9  and  C_10
REMARK    8  A    between atoms: C_10  and  O_11
REMARK    9  A    between atoms: C_10  and  C_12
REMARK   10  A    between atoms: C_12  and  O_13
REMARK   11  A    between atoms: C_19  and  C_20
REMARK   12  A    between atoms: C_20  and  N_21
REMARK   13  A    between atoms: C_22  and  C_24
REMARK                            x       y       z     vdW  Elec       q    Type
REMARK                         _______ _______ _______ _____ _____    ______ ____
ROOT
ATOM      1  C   UNL     1      46.288   6.653  12.169  0.00  0.00    +0.000 A 
ATOM      2  C   UNL     1      45.662   7.778  12.737  0.00  0.00    +0.000 A 
ATOM      3  C   UNL     1      46.413   8.832  13.267  0.00  0.00    +0.000 A 
ATOM      4  C   UNL     1      47.808   8.820  13.176  0.00  0.00    +0.000 A 
ATOM      5  C   UNL     1      48.438   7.716  12.598  0.00  0.00    +0.000 A 
ATOM      6  C   UNL     1      47.691   6.642  12.116  0.00  0.00    +0.000 A 
ENDROOT
BRANCH   1   7
ATOM      7  C   UNL     1      45.453   5.449  11.720  0.00  0.00    +0.000 C 
BRANCH   7   9
ATOM      8  C   UNL     1      46.379   4.161  13.801  0.00  0.00    +0.000 C 
ATOM      9  C   UNL     1      45.187   4.495  12.917  0.00  0.00    +0.000 C 
ENDBRANCH   7   9
BRANCH   7  10
ATOM     10  N   UNL     1      44.194   5.873  11.070  0.00  0.00    +0.000 NA
ATOM     11  H   UNL     1      44.403   6.614  10.404  0.00  0.00    +0.000 HD
BRANCH  10  12
ATOM     12  C   UNL     1      43.545   4.769  10.347  0.00  0.00    +0.000 C 
BRANCH  12  13
ATOM     13  C   UNL     1      44.503   3.965   9.505  0.00  0.00    +0.000 A 
ATOM     14  C   UNL     1      45.423   4.610   8.663  0.00  0.00    +0.000 A 
ATOM     15  C   UNL     1      46.346   3.870   7.921  0.00  0.00    +0.000 A 
ATOM     16  C   UNL     1      46.365   2.472   7.998  0.00  0.00    +0.000 A 
ATOM     17  C   UNL     1      45.449   1.834   8.852  0.00  0.00    +0.000 A 
ATOM     18  C   UNL     1      44.530   2.572   9.597  0.00  0.00    +0.000 A 
BRANCH  16  19
ATOM     19  C   UNL     1      47.328   1.679   7.134  0.00  0.00    +0.000 C 
BRANCH  19  20
ATOM     20  O   UNL     1      46.831   0.359   6.913  0.00  0.00    +0.000 OA
ATOM     21  H   UNL     1      46.032   0.241   7.449  0.00  0.00    +0.000 HD
ENDBRANCH  19  20
BRANCH  19  22
ATOM     22  C   UNL     1      47.579   2.369   5.780  0.00  0.00    +0.000 C 
BRANCH  22  23
ATOM     23  O   UNL     1      48.649   1.765   5.054  0.00  0.00    +0.000 OA
ATOM     24  H   UNL     1      48.851   0.918   5.492  0.00  0.00    +0.000 HD
ENDBRANCH  22  23
ENDBRANCH  19  22
ENDBRANCH  16  19
ENDBRANCH  12  13
ENDBRANCH  10  12
ENDBRANCH   7  10
ENDBRANCH   1   7
BRANCH   4  25
ATOM     25  C   UNL     1      48.639   9.945  13.728  0.00  0.00    +0.000 C 
BRANCH  25  26
ATOM     26  N   UNL     1      49.554   9.473  14.734  0.00  0.00    +0.000 N 
ATOM     27  C   UNL     1      49.202   9.477  16.059  0.00  0.00    +0.000 C 
ATOM     28  O   UNL     1      48.090   9.838  16.435  0.00  0.00    +0.000 OA
ATOM     29  H   UNL     1      50.535   9.413  14.480  0.00  0.00    +0.000 HD
BRANCH  27  30
ATOM     30  C   UNL     1      50.197   8.964  17.005  0.00  0.00    +0.000 A 
ATOM     31  C   UNL     1      50.834   9.839  17.874  0.00  0.00    +0.000 A 
ATOM     32  S   UNL     1      51.919   9.074  18.943  0.00  0.00    +0.000 S 
ATOM     33  C   UNL     1      51.619   7.552  18.243  0.00  0.00    +0.000 A 
ATOM     34  N   UNL     1      52.263   6.442  18.689  0.00  0.00    +0.000 NA
ATOM     35  C   UNL     1      51.962   5.357  18.052  0.00  0.00    +0.000 A 
ATOM     36  N   UNL     1      51.069   5.285  17.016  0.00  0.00    +0.000 N 
ATOM     37  C   UNL     1      50.365   6.378  16.556  0.00  0.00    +0.000 A 
ATOM     38  O   UNL     1      49.532   6.264  15.666  0.00  0.00    +0.000 OA
ATOM     39  C   UNL     1      50.686   7.619  17.225  0.00  0.00    +0.000 A 
ATOM     40  H   UNL     1      50.871   4.403  16.567  0.00  0.00    +0.000 HD
ENDBRANCH  27  30
ENDBRANCH  25  26
ENDBRANCH   4  25
TORSDOF 12
ENDMDL
MODEL 6
REMARK VINA RESULT:    -7.522      2.145      2.948
REMARK INTER + INTRA:         -13.109
REMARK INTER:                 -11.475
REMARK INTRA:                  -1.634
REMARK UNBOUND:                -0.750
REMARK  Name = 
REMARK  13 active torsions:
REMARK  status: ('A' for Active; 'I' for Inactive)
REMARK    1  A    between atoms: C_1  and  C_2
REMARK    2  A    between atoms: C_2  and  C_3
REMARK    3  A    between atoms: C_3  and  N_4
REMARK    4  A    between atoms: C_3  and  C_16
REMARK    5  A    between atoms: N_4  and  C_5
REMARK    6  A    between atoms: C_5  and  C_6
REMARK    7  A    between atoms: C_9  and  C_10
REMARK    8  A    between atoms: C_10  and  O_11
REMARK    9  A    between atoms: C_10  and  C_12
REMARK   10  A    between atoms: C_12  and  O_13
REMARK   11  A    between atoms: C_19  and  C_20
REMARK   12  A    between atoms: C_20  and  N_21
REMARK   13  A    between atoms: C_22  and  C_24
REMARK                            x       y       z     vdW  Elec       q    Type
REMARK                         _______ _______ _______ _____ _____    ______ ____
ROOT
ATOM      1  C   UNL     1      45.887   6.534  12.161  0.00  0.00    +0.000 A 
ATOM      2  C   UNL     1      47.235   6.672  11.781  0.00  0.00    +0.000 A 
ATOM      3  C   UNL     1      47.852   7.927  11.745  0.00  0.00    +0.000 A 
ATOM      4  C   UNL     1      47.155   9.067  12.159  0.00  0.00    +0.000 A 
ATOM      5  C   UNL     1      45.822   8.937  12.554  0.00  0.00    +0.000 A 
ATOM      6  C   UNL     1      45.193   7.694  12.541  0.00  0.00    +0.000 A 
ENDROOT
BRANCH   1   7
ATOM      7  C   UNL     1      45.192   5.172  12.060  0.00  0.00    +0.000 C 
BRANCH   7   9
ATOM      8  C   UNL     1      46.606   3.315  13.242  0.00  0.00    +0.000 C 
ATOM      9  C   UNL     1      45.471   4.323  13.331  0.00  0.00    +0.000 C 
ENDBRANCH   7   9
BRANCH   7  10
ATOM     10  N   UNL     1      43.742   5.320  11.810  0.00  0.00    +0.000 NA
ATOM     11  H   UNL     1      43.460   6.264  12.066  0.00  0.00    +0.000 HD
BRANCH  10  12
ATOM     12  C   UNL     1      43.399   5.100  10.397  0.00  0.00    +0.000 C 
BRANCH  12  13
ATOM     13  C   UNL     1      44.371   4.195   9.683  0.00  0.00    +0.000 A 
ATOM     14  C   UNL     1      44.329   2.806   9.884  0.00  0.00    +0.000 A 
ATOM     15  C   UNL     1      45.192   1.960   9.185  0.00  0.00    +0.000 A 
ATOM     16  C   UNL     1      46.123   2.484   8.279  0.00  0.00    +0.000 A 
ATOM     17  C   UNL     1      46.152   3.875   8.074  0.00  0.00    +0.000 A 
ATOM     18  C   UNL     1      45.286   4.719   8.769  0.00  0.00    +0.000 A 
BRANCH  16  19
ATOM     19  C   UNL     1      47.101   1.559   7.579  0.00  0.00    +0.000 C 
BRANCH  19  20
ATOM     20  O   UNL     1      46.694   0.199   7.723  0.00  0.00    +0.000 OA
ATOM     21  H   UNL     1      47.426  -0.298   8.121  0.00  0.00    +0.000 HD
ENDBRANCH  19  20
BRANCH  19  22
ATOM     22  C   UNL     1      47.237   1.900   6.082  0.00  0.00    +0.000 C 
BRANCH  22  23
ATOM     23  O   UNL     1      48.558   1.674   5.592  0.00  0.00    +0.000 OA
ATOM     24  H   UNL     1      48.727   0.716   5.654  0.00  0.00    +0.000 HD
ENDBRANCH  22  23
ENDBRANCH  19  22
ENDBRANCH  16  19
ENDBRANCH  12  13
ENDBRANCH  10  12
ENDBRANCH   7  10
ENDBRANCH   1   7
BRANCH   4  25
ATOM     25  C   UNL     1      47.797  10.426  12.140  0.00  0.00    +0.000 C 
BRANCH  25  26
ATOM     26  N   UNL     1      49.197  10.347  12.467  0.00  0.00    +0.000 N 
ATOM     27  C   UNL     1      49.615  10.381  13.772  0.00  0.00    +0.000 C 
ATOM     28  O   UNL     1      48.821  10.436  14.708  0.00  0.00    +0.000 OA
ATOM     29  H   UNL     1      49.860  10.552  11.726  0.00  0.00    +0.000 HD
BRANCH  27  30
ATOM     30  C   UNL     1      51.058  10.280  14.003  0.00  0.00    +0.000 A 
ATOM     31  C   UNL     1      51.879  11.358  13.701  0.00  0.00    +0.000 A 
ATOM     32  S   UNL     1      53.521  11.096  14.080  0.00  0.00    +0.000 S 
ATOM     33  C   UNL     1      53.201   9.510  14.607  0.00  0.00    +0.000 A 
ATOM     34  N   UNL     1      54.205   8.708  15.050  0.00  0.00    +0.000 NA
ATOM     35  C   UNL     1      53.827   7.519  15.394  0.00  0.00    +0.000 A 
ATOM     36  N   UNL     1      52.536   7.067  15.343  0.00  0.00    +0.000 N 
ATOM     37  C   UNL     1      51.481   7.858  14.937  0.00  0.00    +0.000 A 
ATOM     38  O   UNL     1      50.331   7.437  14.960  0.00  0.00    +0.000 OA
ATOM     39  C   UNL     1      51.858   9.190  14.520  0.00  0.00    +0.000 A 
ATOM     40  H   UNL     1      52.305   6.130  15.637  0.00  0.00    +0.000 HD
ENDBRANCH  27  30
ENDBRANCH  25  26
ENDBRANCH   4  25
TORSDOF 12
ENDMDL
MODEL 7
REMARK VINA RESULT:    -7.502      1.993      2.261
REMARK INTER + INTRA:         -13.076
REMARK INTER:                 -12.741
REMARK INTRA:                  -0.335
REMARK UNBOUND:                -0.750
REMARK  Name = 
REMARK  13 active torsions:
REMARK  status: ('A' for Active; 'I' for Inactive)
REMARK    1  A    between atoms: C_1  and  C_2
REMARK    2  A    between atoms: C_2  and  C_3
REMARK    3  A    between atoms: C_3  and  N_4
REMARK    4  A    between atoms: C_3  and  C_16
REMARK    5  A    between atoms: N_4  and  C_5
REMARK    6  A    between atoms: C_5  and  C_6
REMARK    7  A    between atoms: C_9  and  C_10
REMARK    8  A    between atoms: C_10  and  O_11
REMARK    9  A    between atoms: C_10  and  C_12
REMARK   10  A    between atoms: C_12  and  O_13
REMARK   11  A    between atoms: C_19  and  C_20
REMARK   12  A    between atoms: C_20  and  N_21
REMARK   13  A    between atoms: C_22  and  C_24
REMARK                            x       y       z     vdW  Elec       q    Type
REMARK                         _______ _______ _______ _____ _____    ______ ____
ROOT
ATOM      1  C   UNL     1      44.978   5.466  13.135  0.00  0.00    +0.000 A 
ATOM      2  C   UNL     1      46.261   4.894  13.212  0.00  0.00    +0.000 A 
ATOM      3  C   UNL     1      47.411   5.681  13.102  0.00  0.00    +0.000 A 
ATOM      4  C   UNL     1      47.307   7.071  12.985  0.00  0.00    +0.000 A 
ATOM      5  C   UNL     1      46.037   7.650  12.925  0.00  0.00    +0.000 A 
ATOM      6  C   UNL     1      44.891   6.859  12.983  0.00  0.00    +0.000 A 
ENDROOT
BRANCH   1   7
ATOM      7  C   UNL     1      43.733   4.572  13.117  0.00  0.00    +0.000 C 
BRANCH   7   9
ATOM      8  C   UNL     1      42.984   6.350  11.350  0.00  0.00    +0.000 C 
ATOM      9  C   UNL     1      42.584   5.254  12.325  0.00  0.00    +0.000 C 
ENDBRANCH   7   9
BRANCH   7  10
ATOM     10  N   UNL     1      44.039   3.226  12.587  0.00  0.00    +0.000 NA
ATOM     11  H   UNL     1      43.780   2.532  13.286  0.00  0.00    +0.000 HD
BRANCH  10  12
ATOM     12  C   UNL     1      43.297   2.937  11.350  0.00  0.00    +0.000 C 
BRANCH  12  13
ATOM     13  C   UNL     1      44.170   2.927  10.122  0.00  0.00    +0.000 A 
ATOM     14  C   UNL     1      44.615   1.713   9.575  0.00  0.00    +0.000 A 
ATOM     15  C   UNL     1      45.380   1.697   8.407  0.00  0.00    +0.000 A 
ATOM     16  C   UNL     1      45.726   2.894   7.767  0.00  0.00    +0.000 A 
ATOM     17  C   UNL     1      45.268   4.105   8.313  0.00  0.00    +0.000 A 
ATOM     18  C   UNL     1      44.499   4.120   9.476  0.00  0.00    +0.000 A 
BRANCH  16  19
ATOM     19  C   UNL     1      46.616   2.865   6.538  0.00  0.00    +0.000 C 
BRANCH  19  20
ATOM     20  O   UNL     1      46.897   4.191   6.092  0.00  0.00    +0.000 OA
ATOM     21  H   UNL     1      47.010   4.757   6.872  0.00  0.00    +0.000 HD
ENDBRANCH  19  20
BRANCH  19  22
ATOM     22  C   UNL     1      47.937   2.121   6.808  0.00  0.00    +0.000 C 
BRANCH  22  23
ATOM     23  O   UNL     1      48.633   1.795   5.606  0.00  0.00    +0.000 OA
ATOM     24  H   UNL     1      48.466   2.518   4.973  0.00  0.00    +0.000 HD
ENDBRANCH  22  23
ENDBRANCH  19  22
ENDBRANCH  16  19
ENDBRANCH  12  13
ENDBRANCH  10  12
ENDBRANCH   7  10
ENDBRANCH   1   7
BRANCH   4  25
ATOM     25  C   UNL     1      48.526   7.942  12.877  0.00  0.00    +0.000 C 
BRANCH  25  26
ATOM     26  N   UNL     1      48.827   8.579  14.132  0.00  0.00    +0.000 N 
ATOM     27  C   UNL     1      49.655   7.976  15.043  0.00  0.00    +0.000 C 
ATOM     28  O   UNL     1      50.203   6.901  14.812  0.00  0.00    +0.000 OA
ATOM     29  H   UNL     1      48.205   9.320  14.439  0.00  0.00    +0.000 HD
BRANCH  27  30
ATOM     30  C   UNL     1      49.911   8.710  16.285  0.00  0.00    +0.000 A 
ATOM     31  C   UNL     1      50.598   9.915  16.242  0.00  0.00    +0.000 A 
ATOM     32  S   UNL     1      50.762  10.666  17.764  0.00  0.00    +0.000 S 
ATOM     33  C   UNL     1      49.971   9.377  18.544  0.00  0.00    +0.000 A 
ATOM     34  N   UNL     1      49.797   9.380  19.892  0.00  0.00    +0.000 NA
ATOM     35  C   UNL     1      49.206   8.328  20.357  0.00  0.00    +0.000 A 
ATOM     36  N   UNL     1      48.766   7.280  19.594  0.00  0.00    +0.000 N 
ATOM     37  C   UNL     1      48.888   7.252  18.220  0.00  0.00    +0.000 A 
ATOM     38  O   UNL     1      48.431   6.323  17.564  0.00  0.00    +0.000 OA
ATOM     39  C   UNL     1      49.564   8.398  17.656  0.00  0.00    +0.000 A 
ATOM     40  H   UNL     1      48.302   6.492  20.018  0.00  0.00    +0.000 HD
ENDBRANCH  27  30
ENDBRANCH  25  26
ENDBRANCH   4  25
TORSDOF 12
ENDMDL
MODEL 8
REMARK VINA RESULT:    -7.465      4.379      5.587
REMARK INTER + INTRA:         -13.016
REMARK INTER:                 -11.364
REMARK INTRA:                  -1.652
REMARK UNBOUND:                -0.750
REMARK  Name = 
REMARK  13 active torsions:
REMARK  status: ('A' for Active; 'I' for Inactive)
REMARK    1  A    between atoms: C_1  and  C_2
REMARK    2  A    between atoms: C_2  and  C_3
REMARK    3  A    between atoms: C_3  and  N_4
REMARK    4  A    between atoms: C_3  and  C_16
REMARK    5  A    between atoms: N_4  and  C_5
REMARK    6  A    between atoms: C_5  and  C_6
REMARK    7  A    between atoms: C_9  and  C_10
REMARK    8  A    between atoms: C_10  and  O_11
REMARK    9  A    between atoms: C_10  and  C_12
REMARK   10  A    between atoms: C_12  and  O_13
REMARK   11  A    between atoms: C_19  and  C_20
REMARK   12  A    between atoms: C_20  and  N_21
REMARK   13  A    between atoms: C_22  and  C_24
REMARK                            x       y       z     vdW  Elec       q    Type
REMARK                         _______ _______ _______ _____ _____    ______ ____
ROOT
ATOM      1  C   UNL     1      47.173   7.523  12.601  0.00  0.00    +0.000 A 
ATOM      2  C   UNL     1      47.930   8.006  13.685  0.00  0.00    +0.000 A 
ATOM      3  C   UNL     1      49.304   8.234  13.562  0.00  0.00    +0.000 A 
ATOM      4  C   UNL     1      49.943   8.052  12.331  0.00  0.00    +0.000 A 
ATOM      5  C   UNL     1      49.196   7.589  11.245  0.00  0.00    +0.000 A 
ATOM      6  C   UNL     1      47.837   7.314  11.381  0.00  0.00    +0.000 A 
ENDROOT
BRANCH   1   7
ATOM      7  C   UNL     1      45.699   7.149  12.794  0.00  0.00    +0.000 C 
BRANCH   7   9
ATOM      8  C   UNL     1      44.944   9.545  12.063  0.00  0.00    +0.000 C 
ATOM      9  C   UNL     1      44.790   8.041  11.904  0.00  0.00    +0.000 C 
ENDBRANCH   7   9
BRANCH   7  10
ATOM     10  N   UNL     1      45.466   5.711  12.544  0.00  0.00    +0.000 NA
ATOM     11  H   UNL     1      45.159   5.273  13.411  0.00  0.00    +0.000 HD
BRANCH  10  12
ATOM     12  C   UNL     1      44.435   5.487  11.519  0.00  0.00    +0.000 C 
BRANCH  12  13
ATOM     13  C   UNL     1      44.971   4.839  10.268  0.00  0.00    +0.000 A 
ATOM     14  C   UNL     1      44.504   3.578   9.864  0.00  0.00    +0.000 A 
ATOM     15  C   UNL     1      44.959   2.999   8.678  0.00  0.00    +0.000 A 
ATOM     16  C   UNL     1      45.897   3.662   7.876  0.00  0.00    +0.000 A 
ATOM     17  C   UNL     1      46.351   4.929   8.281  0.00  0.00    +0.000 A 
ATOM     18  C   UNL     1      45.893   5.509   9.463  0.00  0.00    +0.000 A 
BRANCH  16  19
ATOM     19  C   UNL     1      46.434   2.989   6.626  0.00  0.00    +0.000 C 
BRANCH  19  20
ATOM     20  O   UNL     1      46.917   3.963   5.702  0.00  0.00    +0.000 OA
ATOM     21  H   UNL     1      46.416   4.783   5.834  0.00  0.00    +0.000 HD
ENDBRANCH  19  20
BRANCH  19  22
ATOM     22  C   UNL     1      47.558   1.988   6.955  0.00  0.00    +0.000 C 
BRANCH  22  23
ATOM     23  O   UNL     1      48.462   1.811   5.866  0.00  0.00    +0.000 OA
ATOM     24  H   UNL     1      48.295   2.534   5.233  0.00  0.00    +0.000 HD
ENDBRANCH  22  23
ENDBRANCH  19  22
ENDBRANCH  16  19
ENDBRANCH  12  13
ENDBRANCH  10  12
ENDBRANCH   7  10
ENDBRANCH   1   7
BRANCH   4  25
ATOM     25  C   UNL     1      51.416   8.299  12.169  0.00  0.00    +0.000 C 
BRANCH  25  26
ATOM     26  N   UNL     1      51.863   7.943  10.847  0.00  0.00    +0.000 N 
ATOM     27  C   UNL     1      52.518   8.853  10.060  0.00  0.00    +0.000 C 
ATOM     28  O   UNL     1      52.787   9.983  10.459  0.00  0.00    +0.000 OA
ATOM     29  H   UNL     1      51.440   7.125  10.418  0.00  0.00    +0.000 HD
BRANCH  27  30
ATOM     30  C   UNL     1      52.946   8.390   8.737  0.00  0.00    +0.000 A 
ATOM     31  C   UNL     1      52.917   9.265   7.660  0.00  0.00    +0.000 A 
ATOM     32  S   UNL     1      53.498   8.585   6.209  0.00  0.00    +0.000 S 
ATOM     33  C   UNL     1      53.755   7.078   6.955  0.00  0.00    +0.000 A 
ATOM     34  N   UNL     1      54.230   6.022   6.245  0.00  0.00    +0.000 NA
ATOM     35  C   UNL     1      54.353   4.930   6.928  0.00  0.00    +0.000 A 
ATOM     36  N   UNL     1      54.050   4.805   8.258  0.00  0.00    +0.000 N 
ATOM     37  C   UNL     1      53.601   5.860   9.026  0.00  0.00    +0.000 A 
ATOM     38  O   UNL     1      53.395   5.724  10.226  0.00  0.00    +0.000 OA
ATOM     39  C   UNL     1      53.426   7.097   8.298  0.00  0.00    +0.000 A 
ATOM     40  H   UNL     1      54.178   3.926   8.736  0.00  0.00    +0.000 HD
ENDBRANCH  27  30
ENDBRANCH  25  26
ENDBRANCH   4  25
TORSDOF 12
ENDMDL
MODEL 9
REMARK VINA RESULT:    -7.217      1.366      2.078
REMARK INTER + INTRA:         -12.609
REMARK INTER:                 -10.782
REMARK INTRA:                  -1.826
REMARK UNBOUND:                -0.750
REMARK  Name = 
REMARK  13 active torsions:
REMARK  status: ('A' for Active; 'I' for Inactive)
REMARK    1  A    between atoms: C_1  and  C_2
REMARK    2  A    between atoms: C_2  and  C_3
REMARK    3  A    between atoms: C_3  and  N_4
REMARK    4  A    between atoms: C_3  and  C_16
REMARK    5  A    between atoms: N_4  and  C_5
REMARK    6  A    between atoms: C_5  and  C_6
REMARK    7  A    between atoms: C_9  and  C_10
REMARK    8  A    between atoms: C_10  and  O_11
REMARK    9  A    between atoms: C_10  and  C_12
REMARK   10  A    between atoms: C_12  and  O_13
REMARK   11  A    between atoms: C_19  and  C_20
REMARK   12  A    between atoms: C_20  and  N_21
REMARK   13  A    between atoms: C_22  and  C_24
REMARK                            x       y       z     vdW  Elec       q    Type
REMARK                         _______ _______ _______ _____ _____    ______ ____
ROOT
ATOM      1  C   UNL     1      46.705   7.559  12.626  0.00  0.00    +0.000 A 
ATOM      2  C   UNL     1      47.142   8.316  13.728  0.00  0.00    +0.000 A 
ATOM      3  C   UNL     1      48.499   8.599  13.918  0.00  0.00    +0.000 A 
ATOM      4  C   UNL     1      49.444   8.192  12.971  0.00  0.00    +0.000 A 
ATOM      5  C   UNL     1      49.017   7.454  11.864  0.00  0.00    +0.000 A 
ATOM      6  C   UNL     1      47.671   7.129  11.702  0.00  0.00    +0.000 A 
ENDROOT
BRANCH   1   7
ATOM      7  C   UNL     1      45.234   7.142  12.510  0.00  0.00    +0.000 C 
BRANCH   7   9
ATOM      8  C   UNL     1      44.525   9.458  11.518  0.00  0.00    +0.000 C 
ATOM      9  C   UNL     1      44.529   7.943  11.380  0.00  0.00    +0.000 C 
ENDBRANCH   7   9
BRANCH   7  10
ATOM     10  N   UNL     1      45.097   5.683  12.312  0.00  0.00    +0.000 NA
ATOM     11  H   UNL     1      44.793   5.262  13.188  0.00  0.00    +0.000 HD
BRANCH  10  12
ATOM     12  C   UNL     1      44.109   5.357  11.273  0.00  0.00    +0.000 C 
BRANCH  12  13
ATOM     13  C   UNL     1      44.705   4.627  10.096  0.00  0.00    +0.000 A 
ATOM     14  C   UNL     1      45.602   5.278   9.235  0.00  0.00    +0.000 A 
ATOM     15  C   UNL     1      46.196   4.590   8.174  0.00  0.00    +0.000 A 
ATOM     16  C   UNL     1      45.898   3.240   7.946  0.00  0.00    +0.000 A 
ATOM     17  C   UNL     1      45.007   2.591   8.819  0.00  0.00    +0.000 A 
ATOM     18  C   UNL     1      44.418   3.278   9.881  0.00  0.00    +0.000 A 
BRANCH  16  19
ATOM     19  C   UNL     1      46.497   2.524   6.750  0.00  0.00    +0.000 C 
BRANCH  19  20
ATOM     20  O   UNL     1      47.172   3.451   5.899  0.00  0.00    +0.000 OA
ATOM     21  H   UNL     1      47.911   3.837   6.395  0.00  0.00    +0.000 HD
ENDBRANCH  19  20
BRANCH  19  22
ATOM     22  C   UNL     1      47.475   1.414   7.180  0.00  0.00    +0.000 C 
BRANCH  22  23
ATOM     23  O   UNL     1      47.007   0.113   6.830  0.00  0.00    +0.000 OA
ATOM     24  H   UNL     1      46.334   0.228   6.132  0.00  0.00    +0.000 HD
ENDBRANCH  22  23
ENDBRANCH  19  22
ENDBRANCH  16  19
ENDBRANCH  12  13
ENDBRANCH  10  12
ENDBRANCH   7  10
ENDBRANCH   1   7
BRANCH   4  25
ATOM     25  C   UNL     1      50.906   8.491  13.145  0.00  0.00    +0.000 C 
BRANCH  25  26
ATOM     26  N   UNL     1      51.480   7.697  14.199  0.00  0.00    +0.000 N 
ATOM     27  C   UNL     1      52.113   8.291  15.260  0.00  0.00    +0.000 C 
ATOM     28  O   UNL     1      52.178   9.512  15.377  0.00  0.00    +0.000 OA
ATOM     29  H   UNL     1      51.655   6.716  14.001  0.00  0.00    +0.000 HD
BRANCH  27  30
ATOM     30  C   UNL     1      52.651   7.397  16.289  0.00  0.00    +0.000 A 
ATOM     31  C   UNL     1      53.954   7.568  16.734  0.00  0.00    +0.000 A 
ATOM     32  S   UNL     1      54.405   6.483  17.969  0.00  0.00    +0.000 S 
ATOM     33  C   UNL     1      52.892   5.707  17.912  0.00  0.00    +0.000 A 
ATOM     34  N   UNL     1      52.622   4.648  18.720  0.00  0.00    +0.000 NA
ATOM     35  C   UNL     1      51.445   4.136  18.555  0.00  0.00    +0.000 A 
ATOM     36  N   UNL     1      50.515   4.595  17.661  0.00  0.00    +0.000 N 
ATOM     37  C   UNL     1      50.732   5.689  16.849  0.00  0.00    +0.000 A 
ATOM     38  O   UNL     1      49.854   6.106  16.103  0.00  0.00    +0.000 OA
ATOM     39  C   UNL     1      52.044   6.281  16.983  0.00  0.00    +0.000 A 
ATOM     40  H   UNL     1      49.609   4.156  17.588  0.00  0.00    +0.000 HD
ENDBRANCH  27  30
ENDBRANCH  25  26
ENDBRANCH   4  25
TORSDOF 12
ENDMDL
