MODEL 1
REMARK VINA RESULT:    -7.252      0.000      0.000
REMARK INTER + INTRA:          -9.529
REMARK INTER:                  -9.160
REMARK INTRA:                  -0.369
REMARK UNBOUND:                -0.369
REMARK  Name = 
REMARK  5 active torsions:
REMARK  status: ('A' for Active; 'I' for Inactive)
REMARK    1  A    between atoms: N_1  and  C_2
REMARK    2  A    between atoms: C_2  and  C_3
REMARK    3  A    between atoms: C_6  and  O_7
REMARK    4  A    between atoms: O_7  and  C_8
REMARK    5  A    between atoms: C_8  and  C_9
REMARK                            x       y       z     vdW  Elec       q    Type
REMARK                         _______ _______ _______ _____ _____    ______ ____
ROOT
ATOM      1  C   UNL     1      46.594   2.303   7.541  0.00  0.00    +0.000 A 
ATOM      2  C   UNL     1      46.393   3.691   7.556  0.00  0.00    +0.000 A 
ATOM      3  C   UNL     1      45.442   4.272   8.405  0.00  0.00    +0.000 A 
ATOM      4  C   UNL     1      44.673   3.470   9.246  0.00  0.00    +0.000 A 
ATOM      5  C   UNL     1      44.883   2.090   9.252  0.00  0.00    +0.000 A 
ATOM      6  C   UNL     1      45.829   1.508   8.403  0.00  0.00    +0.000 A 
ENDROOT
BRANCH   1   7
ATOM      7  C   UNL     1      47.596   1.683   6.601  0.00  0.00    +0.000 C 
BRANCH   7   8
ATOM      8  N   UNL     1      48.696   2.591   6.301  0.00  0.00    +0.000 NA
ATOM      9  H   UNL     1      48.844   2.613   5.295  0.00  0.00    +0.000 HD
ATOM     10  H   UNL     1      49.550   2.215   6.709  0.00  0.00    +0.000 HD
ENDBRANCH   7   8
ENDBRANCH   1   7
BRANCH   4  11
ATOM     11  O   UNL     1      43.734   3.921  10.133  0.00  0.00    +0.000 OA
BRANCH  11  12
ATOM     12  C   UNL     1      43.777   3.332  11.438  0.00  0.00    +0.000 C 
BRANCH  12  13
ATOM     13  C   UNL     1      44.851   4.001  12.271  0.00  0.00    +0.000 A 
ATOM     14  N   UNL     1      45.757   3.203  12.880  0.00  0.00    +0.000 NA
ATOM     15  C   UNL     1      46.708   3.815  13.608  0.00  0.00    +0.000 A 
ATOM     16  C   UNL     1      46.799   5.179  13.745  0.00  0.00    +0.000 A 
ATOM     17  C   UNL     1      45.838   5.906  13.082  0.00  0.00    +0.000 A 
ATOM     18  N   UNL     1      44.862   5.351  12.342  0.00  0.00    +0.000 NA
ENDBRANCH  12  13
ENDBRANCH  11  12
ENDBRANCH   4  11
TORSDOF 5
ENDMDL
MODEL 2
REMARK VINA RESULT:    -7.205      0.182      1.692
REMARK INTER + INTRA:          -9.469
REMARK INTER:                  -9.067
REMARK INTRA:                  -0.403
REMARK UNBOUND:                -0.369
REMARK  Name = 
REMARK  5 active torsions:
REMARK  status: ('A' for Active; 'I' for Inactive)
REMARK    1  A    between atoms: N_1  and  C_2
REMARK    2  A    between atoms: C_2  and  C_3
REMARK    3  A    between atoms: C_6  and  O_7
REMARK    4  A    between atoms: O_7  and  C_8
REMARK    5  A    between atoms: C_8  and  C_9
REMARK                            x       y       z     vdW  Elec       q    Type
REMARK                         _______ _______ _______ _____ _____    ______ ____
ROOT
ATOM      1  C   UNL     1      46.561   2.329   7.562  0.00  0.00    +0.000 A 
ATOM      2  C   UNL     1      45.791   1.529   8.419  0.00  0.00    +0.000 A 
ATOM      3  C   UNL     1      44.848   2.100   9.282  0.00  0.00    +0.000 A 
ATOM      4  C   UNL     1      44.667   3.482   9.306  0.00  0.00    +0.000 A 
ATOM      5  C   UNL     1      45.414   4.282   8.440  0.00  0.00    +0.000 A 
ATOM      6  C   UNL     1      46.359   3.715   7.579  0.00  0.00    +0.000 A 
ENDROOT
BRANCH   1   7
ATOM      7  C   UNL     1      47.598   1.710   6.658  0.00  0.00    +0.000 C 
BRANCH   7   8
ATOM      8  N   UNL     1      48.649   2.657   6.308  0.00  0.00    +0.000 NA
ATOM      9  H   UNL     1      48.433   3.561   6.722  0.00  0.00    +0.000 HD
ATOM     10  H   UNL     1      48.642   2.794   5.299  0.00  0.00    +0.000 HD
ENDBRANCH   7   8
ENDBRANCH   1   7
BRANCH   4  11
ATOM     11  O   UNL     1      43.764   4.151  10.084  0.00  0.00    +0.000 OA
BRANCH  11  12
ATOM     12  C   UNL     1      43.673   3.719  11.447  0.00  0.00    +0.000 C 
BRANCH  12  13
ATOM     13  C   UNL     1      44.851   4.252  12.237  0.00  0.00    +0.000 A 
ATOM     14  N   UNL     1      45.005   5.594  12.300  0.00  0.00    +0.000 NA
ATOM     15  C   UNL     1      46.050   6.049  13.013  0.00  0.00    +0.000 A 
ATOM     16  C   UNL     1      46.937   5.228  13.667  0.00  0.00    +0.000 A 
ATOM     17  C   UNL     1      46.693   3.880  13.551  0.00  0.00    +0.000 A 
ATOM     18  N   UNL     1      45.666   3.366  12.850  0.00  0.00    +0.000 NA
ENDBRANCH  12  13
ENDBRANCH  11  12
ENDBRANCH   4  11
TORSDOF 5
ENDMDL
MODEL 3
REMARK VINA RESULT:    -6.398      1.847      5.752
REMARK INTER + INTRA:          -8.450
REMARK INTER:                  -8.133
REMARK INTRA:                  -0.317
REMARK UNBOUND:                -0.369
REMARK  Name = 
REMARK  5 active torsions:
REMARK  status: ('A' for Active; 'I' for Inactive)
REMARK    1  A    between atoms: N_1  and  C_2
REMARK    2  A    between atoms: C_2  and  C_3
REMARK    3  A    between atoms: C_6  and  O_7
REMARK    4  A    between atoms: O_7  and  C_8
REMARK    5  A    between atoms: C_8  and  C_9
REMARK                            x       y       z     vdW  Elec       q    Type
REMARK                         _______ _______ _______ _____ _____    ______ ____
ROOT
ATOM      1  C   UNL     1      46.582   5.537  12.865  0.00  0.00    +0.000 A 
ATOM      2  C   UNL     1      46.394   6.276  11.689  0.00  0.00    +0.000 A 
ATOM      3  C   UNL     1      45.628   5.769  10.633  0.00  0.00    +0.000 A 
ATOM      4  C   UNL     1      45.043   4.507  10.736  0.00  0.00    +0.000 A 
ATOM      5  C   UNL     1      45.207   3.774  11.914  0.00  0.00    +0.000 A 
ATOM      6  C   UNL     1      45.975   4.278  12.967  0.00  0.00    +0.000 A 
ENDROOT
BRANCH   1   7
ATOM      7  C   UNL     1      47.436   6.077  13.985  0.00  0.00    +0.000 C 
BRANCH   7   8
ATOM      8  N   UNL     1      47.540   5.135  15.093  0.00  0.00    +0.000 NA
ATOM      9  H   UNL     1      48.337   5.389  15.671  0.00  0.00    +0.000 HD
ATOM     10  H   UNL     1      47.740   4.209  14.717  0.00  0.00    +0.000 HD
ENDBRANCH   7   8
ENDBRANCH   1   7
BRANCH   4  11
ATOM     11  O   UNL     1      44.256   3.916   9.787  0.00  0.00    +0.000 OA
BRANCH  11  12
ATOM     12  C   UNL     1      44.508   2.527   9.545  0.00  0.00    +0.000 C 
BRANCH  12  13
ATOM     13  C   UNL     1      45.494   2.373   8.405  0.00  0.00    +0.000 A 
ATOM     14  N   UNL     1      45.591   3.391   7.520  0.00  0.00    +0.000 NA
ATOM     15  C   UNL     1      46.477   3.239   6.521  0.00  0.00    +0.000 A 
ATOM     16  C   UNL     1      47.271   2.128   6.372  0.00  0.00    +0.000 A 
ATOM     17  C   UNL     1      47.106   1.150   7.325  0.00  0.00    +0.000 A 
ATOM     18  N   UNL     1      46.234   1.244   8.346  0.00  0.00    +0.000 NA
ENDBRANCH  12  13
ENDBRANCH  11  12
ENDBRANCH   4  11
TORSDOF 5
ENDMDL
MODEL 4
REMARK VINA RESULT:    -6.165      2.196      6.001
REMARK INTER + INTRA:          -8.157
REMARK INTER:                  -7.815
REMARK INTRA:                  -0.341
REMARK UNBOUND:                -0.369
REMARK  Name = 
REMARK  5 active torsions:
REMARK  status: ('A' for Active; 'I' for Inactive)
REMARK    1  A    between atoms: N_1  and  C_2
REMARK    2  A    between atoms: C_2  and  C_3
REMARK    3  A    between atoms: C_6  and  O_7
REMARK    4  A    between atoms: O_7  and  C_8
REMARK    5  A    between atoms: C_8  and  C_9
REMARK                            x       y       z     vdW  Elec       q    Type
REMARK                         _______ _______ _______ _____ _____    ______ ____
ROOT
ATOM      1  C   UNL     1      45.466   7.321  12.508  0.00  0.00    +0.000 A 
ATOM      2  C   UNL     1      44.521   7.069  11.504  0.00  0.00    +0.000 A 
ATOM      3  C   UNL     1      44.313   5.771  11.019  0.00  0.00    +0.000 A 
ATOM      4  C   UNL     1      45.056   4.707  11.529  0.00  0.00    +0.000 A 
ATOM      5  C   UNL     1      45.984   4.948  12.545  0.00  0.00    +0.000 A 
ATOM      6  C   UNL     1      46.195   6.243  13.027  0.00  0.00    +0.000 A 
ENDROOT
BRANCH   1   7
ATOM      7  C   UNL     1      45.707   8.726  13.001  0.00  0.00    +0.000 C 
BRANCH   7   8
ATOM      8  N   UNL     1      46.744   8.772  14.026  0.00  0.00    +0.000 NA
ATOM      9  H   UNL     1      47.654   8.682  13.581  0.00  0.00    +0.000 HD
ATOM     10  H   UNL     1      46.638   7.961  14.633  0.00  0.00    +0.000 HD
ENDBRANCH   7   8
ENDBRANCH   1   7
BRANCH   4  11
ATOM     11  O   UNL     1      44.927   3.398  11.156  0.00  0.00    +0.000 OA
BRANCH  11  12
ATOM     12  C   UNL     1      44.258   3.167   9.911  0.00  0.00    +0.000 C 
BRANCH  12  13
ATOM     13  C   UNL     1      45.274   2.879   8.825  0.00  0.00    +0.000 A 
ATOM     14  N   UNL     1      45.630   3.902   8.014  0.00  0.00    +0.000 NA
ATOM     15  C   UNL     1      46.539   3.630   7.062  0.00  0.00    +0.000 A 
ATOM     16  C   UNL     1      47.111   2.393   6.891  0.00  0.00    +0.000 A 
ATOM     17  C   UNL     1      46.692   1.420   7.767  0.00  0.00    +0.000 A 
ATOM     18  N   UNL     1      45.785   1.631   8.738  0.00  0.00    +0.000 NA
ENDBRANCH  12  13
ENDBRANCH  11  12
ENDBRANCH   4  11
TORSDOF 5
ENDMDL
MODEL 5
REMARK VINA RESULT:    -5.560      3.155      4.413
REMARK INTER + INTRA:          -7.392
REMARK INTER:                  -7.159
REMARK INTRA:                  -0.233
REMARK UNBOUND:                -0.369
REMARK  Name = 
REMARK  5 active torsions:
REMARK  status: ('A' for Active; 'I' for Inactive)
REMARK    1  A    between atoms: N_1  and  C_2
REMARK    2  A    between atoms: C_2  and  C_3
REMARK    3  A    between atoms: C_6  and  O_7
REMARK    4  A    between atoms: O_7  and  C_8
REMARK    5  A    between atoms: C_8  and  C_9
REMARK                            x       y       z     vdW  Elec       q    Type
REMARK                         _______ _______ _______ _____ _____    ______ ____
ROOT
ATOM      1  C   UNL     1      45.015   4.415  10.169  0.00  0.00    +0.000 A 
ATOM      2  C   UNL     1      45.475   5.581  10.800  0.00  0.00    +0.000 A 
ATOM      3  C   UNL     1      45.791   5.585  12.164  0.00  0.00    +0.000 A 
ATOM      4  C   UNL     1      45.643   4.423  12.920  0.00  0.00    +0.000 A 
ATOM      5  C   UNL     1      45.207   3.253  12.294  0.00  0.00    +0.000 A 
ATOM      6  C   UNL     1      44.888   3.248  10.933  0.00  0.00    +0.000 A 
ENDROOT
BRANCH   1   7
ATOM      7  C   UNL     1      44.646   4.427   8.708  0.00  0.00    +0.000 C 
BRANCH   7   8
ATOM      8  N   UNL     1      45.770   4.048   7.860  0.00  0.00    +0.000 NA
ATOM      9  H   UNL     1      46.374   4.856   7.729  0.00  0.00    +0.000 HD
ATOM     10  H   UNL     1      45.414   3.801   6.937  0.00  0.00    +0.000 HD
ENDBRANCH   7   8
ENDBRANCH   1   7
BRANCH   4  11
ATOM     11  O   UNL     1      45.941   4.297  14.248  0.00  0.00    +0.000 OA
BRANCH  11  12
ATOM     12  C   UNL     1      47.125   4.972  14.689  0.00  0.00    +0.000 C 
BRANCH  12  13
ATOM     13  C   UNL     1      47.623   4.352  15.979  0.00  0.00    +0.000 A 
ATOM     14  N   UNL     1      46.802   3.483  16.612  0.00  0.00    +0.000 NA
ATOM     15  C   UNL     1      47.264   2.938  17.751  0.00  0.00    +0.000 A 
ATOM     16  C   UNL     1      48.504   3.212  18.276  0.00  0.00    +0.000 A 
ATOM     17  C   UNL     1      49.268   4.101  17.557  0.00  0.00    +0.000 A 
ATOM     18  N   UNL     1      48.859   4.681  16.414  0.00  0.00    +0.000 NA
ENDBRANCH  12  13
ENDBRANCH  11  12
ENDBRANCH   4  11
TORSDOF 5
ENDMDL
MODEL 6
REMARK VINA RESULT:    -5.265      4.643      6.215
REMARK INTER + INTRA:          -7.019
REMARK INTER:                  -6.765
REMARK INTRA:                  -0.254
REMARK UNBOUND:                -0.369
REMARK  Name = 
REMARK  5 active torsions:
REMARK  status: ('A' for Active; 'I' for Inactive)
REMARK    1  A    between atoms: N_1  and  C_2
REMARK    2  A    between atoms: C_2  and  C_3
REMARK    3  A    between atoms: C_6  and  O_7
REMARK    4  A    between atoms: O_7  and  C_8
REMARK    5  A    between atoms: C_8  and  C_9
REMARK                            x       y       z     vdW  Elec       q    Type
REMARK                         _______ _______ _______ _____ _____    ______ ____
ROOT
ATOM      1  C   UNL     1      45.540   6.543  12.259  0.00  0.00    +0.000 A 
ATOM      2  C   UNL     1      46.739   6.814  12.935  0.00  0.00    +0.000 A 
ATOM      3  C   UNL     1      47.356   5.838  13.728  0.00  0.00    +0.000 A 
ATOM      4  C   UNL     1      46.776   4.578  13.863  0.00  0.00    +0.000 A 
ATOM      5  C   UNL     1      45.594   4.294  13.176  0.00  0.00    +0.000 A 
ATOM      6  C   UNL     1      44.975   5.267  12.387  0.00  0.00    +0.000 A 
ENDROOT
BRANCH   1   7
ATOM      7  C   UNL     1      44.866   7.609  11.434  0.00  0.00    +0.000 C 
BRANCH   7   8
ATOM      8  N   UNL     1      43.446   7.334  11.245  0.00  0.00    +0.000 NA
ATOM      9  H   UNL     1      43.256   6.372  11.514  0.00  0.00    +0.000 HD
ATOM     10  H   UNL     1      43.229   7.405  10.253  0.00  0.00    +0.000 HD
ENDBRANCH   7   8
ENDBRANCH   1   7
BRANCH   4  11
ATOM     11  O   UNL     1      47.293   3.539  14.587  0.00  0.00    +0.000 OA
BRANCH  11  12
ATOM     12  C   UNL     1      47.329   3.725  16.006  0.00  0.00    +0.000 C 
BRANCH  12  13
ATOM     13  C   UNL     1      48.686   3.320  16.545  0.00  0.00    +0.000 A 
ATOM     14  N   UNL     1      49.098   2.053  16.315  0.00  0.00    +0.000 NA
ATOM     15  C   UNL     1      50.308   1.715  16.793  0.00  0.00    +0.000 A 
ATOM     16  C   UNL     1      51.123   2.583  17.478  0.00  0.00    +0.000 A 
ATOM     17  C   UNL     1      50.621   3.851  17.656  0.00  0.00    +0.000 A 
ATOM     18  N   UNL     1      49.418   4.247  17.203  0.00  0.00    +0.000 NA
ENDBRANCH  12  13
ENDBRANCH  11  12
ENDBRANCH   4  11
TORSDOF 5
ENDMDL
MODEL 7
REMARK VINA RESULT:    -5.046      4.058      8.052
REMARK INTER + INTRA:          -6.743
REMARK INTER:                  -6.522
REMARK INTRA:                  -0.220
REMARK UNBOUND:                -0.369
REMARK  Name = 
REMARK  5 active torsions:
REMARK  status: ('A' for Active; 'I' for Inactive)
REMARK    1  A    between atoms: N_1  and  C_2
REMARK    2  A    between atoms: C_2  and  C_3
REMARK    3  A    between atoms: C_6  and  O_7
REMARK    4  A    between atoms: O_7  and  C_8
REMARK    5  A    between atoms: C_8  and  C_9
REMARK                            x       y       z     vdW  Elec       q    Type
REMARK                         _______ _______ _______ _____ _____    ______ ____
ROOT
ATOM      1  C   UNL     1      49.305   4.461  18.298  0.00  0.00    +0.000 A 
ATOM      2  C   UNL     1      48.953   5.528  17.459  0.00  0.00    +0.000 A 
ATOM      3  C   UNL     1      48.127   5.327  16.346  0.00  0.00    +0.000 A 
ATOM      4  C   UNL     1      47.647   4.052  16.053  0.00  0.00    +0.000 A 
ATOM      5  C   UNL     1      47.974   2.989  16.897  0.00  0.00    +0.000 A 
ATOM      6  C   UNL     1      48.802   3.187  18.006  0.00  0.00    +0.000 A 
ENDROOT
BRANCH   1   7
ATOM      7  C   UNL     1      50.221   4.680  19.475  0.00  0.00    +0.000 C 
BRANCH   7   8
ATOM      8  N   UNL     1      49.595   4.288  20.732  0.00  0.00    +0.000 NA
ATOM      9  H   UNL     1      48.669   3.913  20.539  0.00  0.00    +0.000 HD
ATOM     10  H   UNL     1      49.455   5.121  21.301  0.00  0.00    +0.000 HD
ENDBRANCH   7   8
ENDBRANCH   1   7
BRANCH   4  11
ATOM     11  O   UNL     1      46.816   3.736  15.013  0.00  0.00    +0.000 OA
BRANCH  11  12
ATOM     12  C   UNL     1      46.693   4.729  13.989  0.00  0.00    +0.000 C 
BRANCH  12  13
ATOM     13  C   UNL     1      45.386   4.544  13.244  0.00  0.00    +0.000 A 
ATOM     14  N   UNL     1      44.603   5.633  13.076  0.00  0.00    +0.000 NA
ATOM     15  C   UNL     1      43.452   5.450  12.405  0.00  0.00    +0.000 A 
ATOM     16  C   UNL     1      43.057   4.239  11.891  0.00  0.00    +0.000 A 
ATOM     17  C   UNL     1      43.923   3.193  12.107  0.00  0.00    +0.000 A 
ATOM     18  N   UNL     1      45.086   3.314  12.772  0.00  0.00    +0.000 NA
ENDBRANCH  12  13
ENDBRANCH  11  12
ENDBRANCH   4  11
TORSDOF 5
ENDMDL
MODEL 8
REMARK VINA RESULT:    -4.795      4.038      5.762
REMARK INTER + INTRA:          -6.425
REMARK INTER:                  -6.119
REMARK INTRA:                  -0.307
REMARK UNBOUND:                -0.369
REMARK  Name = 
REMARK  5 active torsions:
REMARK  status: ('A' for Active; 'I' for Inactive)
REMARK    1  A    between atoms: N_1  and  C_2
REMARK    2  A    between atoms: C_2  and  C_3
REMARK    3  A    between atoms: C_6  and  O_7
REMARK    4  A    between atoms: O_7  and  C_8
REMARK    5  A    between atoms: C_8  and  C_9
REMARK                            x       y       z     vdW  Elec       q    Type
REMARK                         _______ _______ _______ _____ _____    ______ ____
ROOT
ATOM      1  C   UNL     1      44.675   4.895  11.699  0.00  0.00    +0.000 A 
ATOM      2  C   UNL     1      45.454   5.924  11.149  0.00  0.00    +0.000 A 
ATOM      3  C   UNL     1      46.671   6.298  11.733  0.00  0.00    +0.000 A 
ATOM      4  C   UNL     1      47.122   5.651  12.883  0.00  0.00    +0.000 A 
ATOM      5  C   UNL     1      46.363   4.611  13.423  0.00  0.00    +0.000 A 
ATOM      6  C   UNL     1      45.147   4.239  12.843  0.00  0.00    +0.000 A 
ENDROOT
BRANCH   1   7
ATOM      7  C   UNL     1      43.351   4.521  11.083  0.00  0.00    +0.000 C 
BRANCH   7   8
ATOM      8  N   UNL     1      42.938   3.174  11.459  0.00  0.00    +0.000 NA
ATOM      9  H   UNL     1      43.480   2.873  12.265  0.00  0.00    +0.000 HD
ATOM     10  H   UNL     1      43.173   2.537  10.699  0.00  0.00    +0.000 HD
ENDBRANCH   7   8
ENDBRANCH   1   7
BRANCH   4  11
ATOM     11  O   UNL     1      48.300   5.909  13.528  0.00  0.00    +0.000 OA
BRANCH  11  12
ATOM     12  C   UNL     1      48.285   7.015  14.437  0.00  0.00    +0.000 C 
BRANCH  12  13
ATOM     13  C   UNL     1      48.777   6.572  15.799  0.00  0.00    +0.000 A 
ATOM     14  N   UNL     1      49.125   7.535  16.682  0.00  0.00    +0.000 NA
ATOM     15  C   UNL     1      49.551   7.122  17.889  0.00  0.00    +0.000 A 
ATOM     16  C   UNL     1      49.635   5.800  18.253  0.00  0.00    +0.000 A 
ATOM     17  C   UNL     1      49.252   4.895  17.291  0.00  0.00    +0.000 A 
ATOM     18  N   UNL     1      48.820   5.248  16.066  0.00  0.00    +0.000 NA
ENDBRANCH  12  13
ENDBRANCH  11  12
ENDBRANCH   4  11
TORSDOF 5
ENDMDL
MODEL 9
REMARK VINA RESULT:    -4.691      3.837      8.040
REMARK INTER + INTRA:          -6.294
REMARK INTER:                  -6.009
REMARK INTRA:                  -0.286
REMARK UNBOUND:                -0.369
REMARK  Name = 
REMARK  5 active torsions:
REMARK  status: ('A' for Active; 'I' for Inactive)
REMARK    1  A    between atoms: N_1  and  C_2
REMARK    2  A    between atoms: C_2  and  C_3
REMARK    3  A    between atoms: C_6  and  O_7
REMARK    4  A    between atoms: O_7  and  C_8
REMARK    5  A    between atoms: C_8  and  C_9
REMARK                            x       y       z     vdW  Elec       q    Type
REMARK                         _______ _______ _______ _____ _____    ______ ____
ROOT
ATOM      1  C   UNL     1      48.066   5.140  18.437  0.00  0.00    +0.000 A 
ATOM      2  C   UNL     1      47.288   4.142  17.833  0.00  0.00    +0.000 A 
ATOM      3  C   UNL     1      47.183   4.055  16.439  0.00  0.00    +0.000 A 
ATOM      4  C   UNL     1      47.851   4.972  15.629  0.00  0.00    +0.000 A 
ATOM      5  C   UNL     1      48.647   5.954  16.223  0.00  0.00    +0.000 A 
ATOM      6  C   UNL     1      48.749   6.045  17.614  0.00  0.00    +0.000 A 
ENDROOT
BRANCH   1   7
ATOM      7  C   UNL     1      48.148   5.247  19.939  0.00  0.00    +0.000 C 
BRANCH   7   8
ATOM      8  N   UNL     1      48.554   3.989  20.553  0.00  0.00    +0.000 NA
ATOM      9  H   UNL     1      49.414   4.137  21.077  0.00  0.00    +0.000 HD
ATOM     10  H   UNL     1      48.779   3.323  19.815  0.00  0.00    +0.000 HD
ENDBRANCH   7   8
ENDBRANCH   1   7
BRANCH   4  11
ATOM     11  O   UNL     1      47.846   4.975  14.262  0.00  0.00    +0.000 OA
BRANCH  11  12
ATOM     12  C   UNL     1      46.932   5.887  13.643  0.00  0.00    +0.000 C 
BRANCH  12  13
ATOM     13  C   UNL     1      46.042   5.144  12.668  0.00  0.00    +0.000 A 
ATOM     14  N   UNL     1      45.569   3.936  13.049  0.00  0.00    +0.000 NA
ATOM     15  C   UNL     1      44.774   3.295  12.174  0.00  0.00    +0.000 A 
ATOM     16  C   UNL     1      44.426   3.809  10.949  0.00  0.00    +0.000 A 
ATOM     17  C   UNL     1      44.949   5.046  10.654  0.00  0.00    +0.000 A 
ATOM     18  N   UNL     1      45.751   5.733  11.487  0.00  0.00    +0.000 NA
ENDBRANCH  12  13
ENDBRANCH  11  12
ENDBRANCH   4  11
TORSDOF 5
ENDMDL
