MODEL 1
REMARK VINA RESULT:    -7.698      0.000      0.000
REMARK INTER + INTRA:         -12.380
REMARK INTER:                 -11.073
REMARK INTRA:                  -1.306
REMARK UNBOUND:                -1.306
REMARK  Name = 
REMARK  11 active torsions:
REMARK  status: ('A' for Active; 'I' for Inactive)
REMARK    1  A    between atoms: C_1  and  C_2
REMARK    2  A    between atoms: C_6  and  O_7
REMARK    3  A    between atoms: O_7  and  C_8
REMARK    4  A    between atoms: C_12  and  C_13
REMARK    5  A    between atoms: C_13  and  C_14
REMARK    6  A    between atoms: C_13  and  C_15
REMARK    7  A    between atoms: C_13  and  C_16
REMARK    8  A    between atoms: C_16  and  N_17
REMARK    9  A    between atoms: N_17  and  C_18
REMARK   10  A    between atoms: C_21  and  S_22
REMARK   11  A    between atoms: S_22  and  N_23
REMARK                            x       y       z     vdW  Elec       q    Type
REMARK                         _______ _______ _______ _____ _____    ______ ____
ROOT
ATOM      1  C   UNL     1      43.826   4.804  12.331  0.00  0.00    +0.000 C 
ATOM      2  C   UNL     1      42.974   4.799  13.625  0.00  0.00    +0.000 C 
ATOM      3  C   UNL     1      43.063   5.652  11.282  0.00  0.00    +0.000 C 
ENDROOT
BRANCH   1   8
ATOM      4  C   UNL     1      47.300   5.528  13.829  0.00  0.00    +0.000 A 
ATOM      5  C   UNL     1      47.880   6.322  12.842  0.00  0.00    +0.000 A 
ATOM      6  C   UNL     1      47.125   6.745  11.754  0.00  0.00    +0.000 A 
ATOM      7  C   UNL     1      45.801   6.324  11.618  0.00  0.00    +0.000 A 
ATOM      8  C   UNL     1      45.214   5.453  12.554  0.00  0.00    +0.000 A 
ATOM      9  C   UNL     1      45.981   5.101  13.686  0.00  0.00    +0.000 A 
BRANCH   4  10
ATOM     10  O   UNL     1      48.137   5.159  14.839  0.00  0.00    +0.000 OA
BRANCH  10  16
ATOM     11  C   UNL     1      47.479   5.291  18.579  0.00  0.00    +0.000 C 
ATOM     12  C   UNL     1      48.258   5.443  17.268  0.00  0.00    +0.000 C 
ATOM     13  C   UNL     1      49.581   4.683  17.313  0.00  0.00    +0.000 C 
ATOM     14  N   UNL     1      49.272   3.288  16.968  0.00  0.00    +0.000 NA
ATOM     15  C   UNL     1      47.951   3.288  16.306  0.00  0.00    +0.000 C 
ATOM     16  C   UNL     1      47.560   4.757  16.093  0.00  0.00    +0.000 C 
ATOM     17  H   UNL     1      49.220   2.724  17.818  0.00  0.00    +0.000 HD
ENDBRANCH  10  16
ENDBRANCH   4  10
ENDBRANCH   1   8
BRANCH   1  18
ATOM     18  C   UNL     1      43.997   3.336  11.828  0.00  0.00    +0.000 C 
BRANCH  18  19
ATOM     19  N   UNL     1      43.644   3.185  10.414  0.00  0.00    +0.000 N 
ATOM     20  H   UNL     1      42.821   2.627  10.225  0.00  0.00    +0.000 HD
BRANCH  19  21
ATOM     21  C   UNL     1      44.616   3.054   9.425  0.00  0.00    +0.000 A 
ATOM     22  C   UNL     1      45.070   4.116   8.638  0.00  0.00    +0.000 A 
ATOM     23  C   UNL     1      45.989   3.906   7.608  0.00  0.00    +0.000 A 
ATOM     24  C   UNL     1      46.451   2.615   7.347  0.00  0.00    +0.000 A 
ATOM     25  C   UNL     1      45.981   1.534   8.086  0.00  0.00    +0.000 A 
ATOM     26  C   UNL     1      45.068   1.761   9.122  0.00  0.00    +0.000 A 
BRANCH  24  27
ATOM     27  S   UNL     1      47.620   2.347   6.055  0.00  0.00    +0.000 S 
ATOM     28  O   UNL     1      48.111   0.990   6.124  0.00  0.00    +0.000 OA
ATOM     29  O   UNL     1      47.128   2.933   4.830  0.00  0.00    +0.000 OA
BRANCH  27  30
ATOM     30  N   UNL     1      48.887   3.326   6.559  0.00  0.00    +0.000 NA
ATOM     31  H   UNL     1      49.769   2.981   6.181  0.00  0.00    +0.000 HD
ATOM     32  H   UNL     1      48.685   4.300   6.340  0.00  0.00    +0.000 HD
ENDBRANCH  27  30
ENDBRANCH  24  27
ENDBRANCH  19  21
ENDBRANCH  18  19
ENDBRANCH   1  18
TORSDOF 8
ENDMDL
MODEL 2
REMARK VINA RESULT:    -7.015      3.713      8.087
REMARK INTER + INTRA:         -11.398
REMARK INTER:                  -9.911
REMARK INTRA:                  -1.486
REMARK UNBOUND:                -1.306
REMARK  Name = 
REMARK  11 active torsions:
REMARK  status: ('A' for Active; 'I' for Inactive)
REMARK    1  A    between atoms: C_1  and  C_2
REMARK    2  A    between atoms: C_6  and  O_7
REMARK    3  A    between atoms: O_7  and  C_8
REMARK    4  A    between atoms: C_12  and  C_13
REMARK    5  A    between atoms: C_13  and  C_14
REMARK    6  A    between atoms: C_13  and  C_15
REMARK    7  A    between atoms: C_13  and  C_16
REMARK    8  A    between atoms: C_16  and  N_17
REMARK    9  A    between atoms: N_17  and  C_18
REMARK   10  A    between atoms: C_21  and  S_22
REMARK   11  A    between atoms: S_22  and  N_23
REMARK                            x       y       z     vdW  Elec       q    Type
REMARK                         _______ _______ _______ _____ _____    ______ ____
ROOT
ATOM      1  C   UNL     1      49.480   8.858  12.154  0.00  0.00    +0.000 C 
ATOM      2  C   UNL     1      50.374   7.811  11.443  0.00  0.00    +0.000 C 
ATOM      3  C   UNL     1      49.671  10.205  11.412  0.00  0.00    +0.000 C 
ENDROOT
BRANCH   1   8
ATOM      4  C   UNL     1      46.265   6.854  11.457  0.00  0.00    +0.000 A 
ATOM      5  C   UNL     1      45.324   7.548  12.212  0.00  0.00    +0.000 A 
ATOM      6  C   UNL     1      45.673   8.737  12.843  0.00  0.00    +0.000 A 
ATOM      7  C   UNL     1      46.986   9.206  12.769  0.00  0.00    +0.000 A 
ATOM      8  C   UNL     1      47.980   8.482  12.086  0.00  0.00    +0.000 A 
ATOM      9  C   UNL     1      47.578   7.318  11.393  0.00  0.00    +0.000 A 
BRANCH   4  10
ATOM     10  O   UNL     1      45.817   5.694  10.899  0.00  0.00    +0.000 OA
BRANCH  10  16
ATOM     11  C   UNL     1      43.227   4.242  13.268  0.00  0.00    +0.000 C 
ATOM     12  C   UNL     1      44.611   4.503  12.666  0.00  0.00    +0.000 C 
ATOM     13  C   UNL     1      45.317   3.200  12.299  0.00  0.00    +0.000 C 
ATOM     14  N   UNL     1      44.813   2.812  10.975  0.00  0.00    +0.000 NA
ATOM     15  C   UNL     1      44.207   4.017  10.371  0.00  0.00    +0.000 C 
ATOM     16  C   UNL     1      44.532   5.193  11.303  0.00  0.00    +0.000 C 
ATOM     17  H   UNL     1      44.097   2.091  11.073  0.00  0.00    +0.000 HD
ENDBRANCH  10  16
ENDBRANCH   4  10
ENDBRANCH   1   8
BRANCH   1  18
ATOM     18  C   UNL     1      49.931   8.986  13.643  0.00  0.00    +0.000 C 
BRANCH  18  19
ATOM     19  N   UNL     1      50.506   7.742  14.162  0.00  0.00    +0.000 N 
ATOM     20  H   UNL     1      51.030   7.190  13.494  0.00  0.00    +0.000 HD
BRANCH  19  21
ATOM     21  C   UNL     1      49.833   6.955  15.094  0.00  0.00    +0.000 A 
ATOM     22  C   UNL     1      50.388   6.546  16.309  0.00  0.00    +0.000 A 
ATOM     23  C   UNL     1      49.693   5.691  17.167  0.00  0.00    +0.000 A 
ATOM     24  C   UNL     1      48.430   5.224  16.801  0.00  0.00    +0.000 A 
ATOM     25  C   UNL     1      47.873   5.580  15.576  0.00  0.00    +0.000 A 
ATOM     26  C   UNL     1      48.578   6.444  14.731  0.00  0.00    +0.000 A 
BRANCH  24  27
ATOM     27  S   UNL     1      47.543   4.154  17.886  0.00  0.00    +0.000 S 
ATOM     28  O   UNL     1      46.668   3.303  17.113  0.00  0.00    +0.000 OA
ATOM     29  O   UNL     1      48.441   3.635  18.891  0.00  0.00    +0.000 OA
BRANCH  27  30
ATOM     30  N   UNL     1      46.548   5.250  18.676  0.00  0.00    +0.000 NA
ATOM     31  H   UNL     1      47.059   6.112  18.868  0.00  0.00    +0.000 HD
ATOM     32  H   UNL     1      45.684   5.378  18.153  0.00  0.00    +0.000 HD
ENDBRANCH  27  30
ENDBRANCH  24  27
ENDBRANCH  19  21
ENDBRANCH  18  19
ENDBRANCH   1  18
TORSDOF 8
ENDMDL
MODEL 3
REMARK VINA RESULT:    -6.820      2.643      3.532
REMARK INTER + INTRA:         -11.116
REMARK INTER:                  -9.987
REMARK INTRA:                  -1.129
REMARK UNBOUND:                -1.306
REMARK  Name = 
REMARK  11 active torsions:
REMARK  status: ('A' for Active; 'I' for Inactive)
REMARK    1  A    between atoms: C_1  and  C_2
REMARK    2  A    between atoms: C_6  and  O_7
REMARK    3  A    between atoms: O_7  and  C_8
REMARK    4  A    between atoms: C_12  and  C_13
REMARK    5  A    between atoms: C_13  and  C_14
REMARK    6  A    between atoms: C_13  and  C_15
REMARK    7  A    between atoms: C_13  and  C_16
REMARK    8  A    between atoms: C_16  and  N_17
REMARK    9  A    between atoms: N_17  and  C_18
REMARK   10  A    between atoms: C_21  and  S_22
REMARK   11  A    between atoms: S_22  and  N_23
REMARK                            x       y       z     vdW  Elec       q    Type
REMARK                         _______ _______ _______ _____ _____    ______ ____
ROOT
ATOM      1  C   UNL     1      44.121   5.328  12.177  0.00  0.00    +0.000 C 
ATOM      2  C   UNL     1      45.301   4.361  12.448  0.00  0.00    +0.000 C 
ATOM      3  C   UNL     1      43.098   5.137  13.325  0.00  0.00    +0.000 C 
ENDROOT
BRANCH   1   8
ATOM      4  C   UNL     1      46.249   8.477  12.806  0.00  0.00    +0.000 A 
ATOM      5  C   UNL     1      45.654   9.401  11.951  0.00  0.00    +0.000 A 
ATOM      6  C   UNL     1      44.490   9.072  11.267  0.00  0.00    +0.000 A 
ATOM      7  C   UNL     1      43.948   7.791  11.390  0.00  0.00    +0.000 A 
ATOM      8  C   UNL     1      44.573   6.808  12.179  0.00  0.00    +0.000 A 
ATOM      9  C   UNL     1      45.712   7.195  12.920  0.00  0.00    +0.000 A 
BRANCH   4  10
ATOM     10  O   UNL     1      47.395   8.901  13.410  0.00  0.00    +0.000 OA
BRANCH  10  16
ATOM     11  C   UNL     1      50.389   7.740  11.381  0.00  0.00    +0.000 C 
ATOM     12  C   UNL     1      49.315   7.706  12.472  0.00  0.00    +0.000 C 
ATOM     13  C   UNL     1      49.932   7.564  13.861  0.00  0.00    +0.000 C 
ATOM     14  N   UNL     1      50.319   8.917  14.284  0.00  0.00    +0.000 NA
ATOM     15  C   UNL     1      49.574   9.868  13.433  0.00  0.00    +0.000 C 
ATOM     16  C   UNL     1      48.579   9.040  12.608  0.00  0.00    +0.000 C 
ATOM     17  H   UNL     1      51.321   9.053  14.140  0.00  0.00    +0.000 HD
ENDBRANCH  10  16
ENDBRANCH   4  10
ENDBRANCH   1   8
BRANCH   1  18
ATOM     18  C   UNL     1      43.474   4.968  10.803  0.00  0.00    +0.000 C 
BRANCH  18  19
ATOM     19  N   UNL     1      43.675   3.563  10.441  0.00  0.00    +0.000 N 
ATOM     20  H   UNL     1      43.689   2.909  11.214  0.00  0.00    +0.000 HD
BRANCH  19  21
ATOM     21  C   UNL     1      44.530   3.186   9.408  0.00  0.00    +0.000 A 
ATOM     22  C   UNL     1      44.906   1.864   9.156  0.00  0.00    +0.000 A 
ATOM     23  C   UNL     1      45.830   1.557   8.155  0.00  0.00    +0.000 A 
ATOM     24  C   UNL     1      46.400   2.586   7.403  0.00  0.00    +0.000 A 
ATOM     25  C   UNL     1      46.077   3.914   7.664  0.00  0.00    +0.000 A 
ATOM     26  C   UNL     1      45.142   4.205   8.664  0.00  0.00    +0.000 A 
BRANCH  24  27
ATOM     27  S   UNL     1      47.558   2.202   6.130  0.00  0.00    +0.000 S 
ATOM     28  O   UNL     1      47.886   0.797   6.186  0.00  0.00    +0.000 OA
ATOM     29  O   UNL     1      47.163   2.860   4.906  0.00  0.00    +0.000 OA
BRANCH  27  30
ATOM     30  N   UNL     1      48.918   3.020   6.675  0.00  0.00    +0.000 NA
ATOM     31  H   UNL     1      48.669   3.971   6.949  0.00  0.00    +0.000 HD
ATOM     32  H   UNL     1      49.385   2.479   7.401  0.00  0.00    +0.000 HD
ENDBRANCH  27  30
ENDBRANCH  24  27
ENDBRANCH  19  21
ENDBRANCH  18  19
ENDBRANCH   1  18
TORSDOF 8
ENDMDL
MODEL 4
REMARK VINA RESULT:    -6.471      3.750      6.034
REMARK INTER + INTRA:         -10.614
REMARK INTER:                  -9.059
REMARK INTRA:                  -1.555
REMARK UNBOUND:                -1.306
REMARK  Name = 
REMARK  11 active torsions:
REMARK  status: ('A' for Active; 'I' for Inactive)
REMARK    1  A    between atoms: C_1  and  C_2
REMARK    2  A    between atoms: C_6  and  O_7
REMARK    3  A    between atoms: O_7  and  C_8
REMARK    4  A    between atoms: C_12  and  C_13
REMARK    5  A    between atoms: C_13  and  C_14
REMARK    6  A    between atoms: C_13  and  C_15
REMARK    7  A    between atoms: C_13  and  C_16
REMARK    8  A    between atoms: C_16  and  N_17
REMARK    9  A    between atoms: N_17  and  C_18
REMARK   10  A    between atoms: C_21  and  S_22
REMARK   11  A    between atoms: S_22  and  N_23
REMARK                            x       y       z     vdW  Elec       q    Type
REMARK                         _______ _______ _______ _____ _____    ______ ____
ROOT
ATOM      1  C   UNL     1      50.194   8.929  13.063  0.00  0.00    +0.000 C 
ATOM      2  C   UNL     1      50.437  10.457  13.144  0.00  0.00    +0.000 C 
ATOM      3  C   UNL     1      51.148   8.370  11.977  0.00  0.00    +0.000 C 
ENDROOT
BRANCH   1   8
ATOM      4  C   UNL     1      49.723   6.974  16.349  0.00  0.00    +0.000 A 
ATOM      5  C   UNL     1      51.032   6.617  16.661  0.00  0.00    +0.000 A 
ATOM      6  C   UNL     1      52.090   7.108  15.904  0.00  0.00    +0.000 A 
ATOM      7  C   UNL     1      51.836   7.912  14.791  0.00  0.00    +0.000 A 
ATOM      8  C   UNL     1      50.521   8.219  14.399  0.00  0.00    +0.000 A 
ATOM      9  C   UNL     1      49.471   7.768  15.230  0.00  0.00    +0.000 A 
BRANCH   4  10
ATOM     10  O   UNL     1      48.766   6.421  17.147  0.00  0.00    +0.000 OA
BRANCH  10  16
ATOM     11  C   UNL     1      49.086   2.636  17.109  0.00  0.00    +0.000 C 
ATOM     12  C   UNL     1      48.566   4.020  16.710  0.00  0.00    +0.000 C 
ATOM     13  C   UNL     1      47.047   4.104  16.830  0.00  0.00    +0.000 C 
ATOM     14  N   UNL     1      46.756   4.400  18.239  0.00  0.00    +0.000 NA
ATOM     15  C   UNL     1      48.001   4.925  18.838  0.00  0.00    +0.000 C 
ATOM     16  C   UNL     1      49.002   5.111  17.689  0.00  0.00    +0.000 C 
ATOM     17  H   UNL     1      46.485   3.544  18.726  0.00  0.00    +0.000 HD
ENDBRANCH  10  16
ENDBRANCH   4  10
ENDBRANCH   1   8
BRANCH   1  18
ATOM     18  C   UNL     1      48.706   8.669  12.670  0.00  0.00    +0.000 C 
BRANCH  18  19
ATOM     19  N   UNL     1      48.547   7.466  11.850  0.00  0.00    +0.000 N 
ATOM     20  H   UNL     1      48.939   7.515  10.918  0.00  0.00    +0.000 HD
BRANCH  19  21
ATOM     21  C   UNL     1      47.391   6.690  11.903  0.00  0.00    +0.000 A 
ATOM     22  C   UNL     1      46.429   6.660  10.889  0.00  0.00    +0.000 A 
ATOM     23  C   UNL     1      45.252   5.924  11.034  0.00  0.00    +0.000 A 
ATOM     24  C   UNL     1      45.021   5.219  12.216  0.00  0.00    +0.000 A 
ATOM     25  C   UNL     1      45.941   5.268  13.259  0.00  0.00    +0.000 A 
ATOM     26  C   UNL     1      47.120   6.002  13.095  0.00  0.00    +0.000 A 
BRANCH  24  27
ATOM     27  S   UNL     1      43.541   4.278  12.400  0.00  0.00    +0.000 S 
ATOM     28  O   UNL     1      42.902   4.130  11.113  0.00  0.00    +0.000 OA
ATOM     29  O   UNL     1      43.789   3.157  13.277  0.00  0.00    +0.000 OA
BRANCH  27  30
ATOM     30  N   UNL     1      42.587   5.346  13.274  0.00  0.00    +0.000 NA
ATOM     31  H   UNL     1      41.872   5.752  12.671  0.00  0.00    +0.000 HD
ATOM     32  H   UNL     1      42.227   4.890  14.110  0.00  0.00    +0.000 HD
ENDBRANCH  27  30
ENDBRANCH  24  27
ENDBRANCH  19  21
ENDBRANCH  18  19
ENDBRANCH   1  18
TORSDOF 8
ENDMDL
MODEL 5
REMARK VINA RESULT:    -6.392      3.716      5.897
REMARK INTER + INTRA:         -10.501
REMARK INTER:                  -8.698
REMARK INTRA:                  -1.803
REMARK UNBOUND:                -1.306
REMARK  Name = 
REMARK  11 active torsions:
REMARK  status: ('A' for Active; 'I' for Inactive)
REMARK    1  A    between atoms: C_1  and  C_2
REMARK    2  A    between atoms: C_6  and  O_7
REMARK    3  A    between atoms: O_7  and  C_8
REMARK    4  A    between atoms: C_12  and  C_13
REMARK    5  A    between atoms: C_13  and  C_14
REMARK    6  A    between atoms: C_13  and  C_15
REMARK    7  A    between atoms: C_13  and  C_16
REMARK    8  A    between atoms: C_16  and  N_17
REMARK    9  A    between atoms: N_17  and  C_18
REMARK   10  A    between atoms: C_21  and  S_22
REMARK   11  A    between atoms: S_22  and  N_23
REMARK                            x       y       z     vdW  Elec       q    Type
REMARK                         _______ _______ _______ _____ _____    ______ ____
ROOT
ATOM      1  C   UNL     1      49.791   8.667  13.481  0.00  0.00    +0.000 C 
ATOM      2  C   UNL     1      49.121   9.800  12.664  0.00  0.00    +0.000 C 
ATOM      3  C   UNL     1      51.290   9.033  13.630  0.00  0.00    +0.000 C 
ENDROOT
BRANCH   1   8
ATOM      4  C   UNL     1      48.973   7.251  16.969  0.00  0.00    +0.000 A 
ATOM      5  C   UNL     1      48.420   8.359  17.606  0.00  0.00    +0.000 A 
ATOM      6  C   UNL     1      48.178   9.527  16.893  0.00  0.00    +0.000 A 
ATOM      7  C   UNL     1      48.547   9.612  15.549  0.00  0.00    +0.000 A 
ATOM      8  C   UNL     1      49.186   8.540  14.900  0.00  0.00    +0.000 A 
ATOM      9  C   UNL     1      49.350   7.341  15.629  0.00  0.00    +0.000 A 
BRANCH   4  10
ATOM     10  O   UNL     1      49.182   6.168  17.769  0.00  0.00    +0.000 OA
BRANCH  10  16
ATOM     11  C   UNL     1      47.856   3.237  15.748  0.00  0.00    +0.000 C 
ATOM     12  C   UNL     1      47.815   4.459  16.670  0.00  0.00    +0.000 C 
ATOM     13  C   UNL     1      47.112   4.143  17.988  0.00  0.00    +0.000 C 
ATOM     14  N   UNL     1      48.120   3.521  18.857  0.00  0.00    +0.000 NA
ATOM     15  C   UNL     1      49.445   3.858  18.297  0.00  0.00    +0.000 C 
ATOM     16  C   UNL     1      49.204   4.865  17.163  0.00  0.00    +0.000 C 
ATOM     17  H   UNL     1      48.003   2.506  18.854  0.00  0.00    +0.000 HD
ENDBRANCH  10  16
ENDBRANCH   4  10
ENDBRANCH   1   8
BRANCH   1  18
ATOM     18  C   UNL     1      49.632   7.319  12.709  0.00  0.00    +0.000 C 
BRANCH  18  19
ATOM     19  N   UNL     1      48.526   7.353  11.749  0.00  0.00    +0.000 N 
ATOM     20  H   UNL     1      48.380   8.238  11.280  0.00  0.00    +0.000 HD
BRANCH  19  21
ATOM     21  C   UNL     1      47.336   6.666  11.975  0.00  0.00    +0.000 A 
ATOM     22  C   UNL     1      47.018   6.041  13.184  0.00  0.00    +0.000 A 
ATOM     23  C   UNL     1      45.844   5.299  13.324  0.00  0.00    +0.000 A 
ATOM     24  C   UNL     1      44.979   5.164  12.237  0.00  0.00    +0.000 A 
ATOM     25  C   UNL     1      45.293   5.738  11.009  0.00  0.00    +0.000 A 
ATOM     26  C   UNL     1      46.469   6.486  10.886  0.00  0.00    +0.000 A 
BRANCH  24  27
ATOM     27  S   UNL     1      43.489   4.238  12.413  0.00  0.00    +0.000 S 
ATOM     28  O   UNL     1      42.801   4.189  11.143  0.00  0.00    +0.000 OA
ATOM     29  O   UNL     1      43.746   3.056  13.202  0.00  0.00    +0.000 OA
BRANCH  27  30
ATOM     30  N   UNL     1      42.588   5.261  13.391  0.00  0.00    +0.000 NA
ATOM     31  H   UNL     1      42.169   4.734  14.157  0.00  0.00    +0.000 HD
ATOM     32  H   UNL     1      43.155   6.055  13.684  0.00  0.00    +0.000 HD
ENDBRANCH  27  30
ENDBRANCH  24  27
ENDBRANCH  19  21
ENDBRANCH  18  19
ENDBRANCH   1  18
TORSDOF 8
ENDMDL
MODEL 6
REMARK VINA RESULT:    -5.757      3.275      6.137
REMARK INTER + INTRA:          -9.588
REMARK INTER:                  -8.730
REMARK INTRA:                  -0.858
REMARK UNBOUND:                -1.306
REMARK  Name = 
REMARK  11 active torsions:
REMARK  status: ('A' for Active; 'I' for Inactive)
REMARK    1  A    between atoms: C_1  and  C_2
REMARK    2  A    between atoms: C_6  and  O_7
REMARK    3  A    between atoms: O_7  and  C_8
REMARK    4  A    between atoms: C_12  and  C_13
REMARK    5  A    between atoms: C_13  and  C_14
REMARK    6  A    between atoms: C_13  and  C_15
REMARK    7  A    between atoms: C_13  and  C_16
REMARK    8  A    between atoms: C_16  and  N_17
REMARK    9  A    between atoms: N_17  and  C_18
REMARK   10  A    between atoms: C_21  and  S_22
REMARK   11  A    between atoms: S_22  and  N_23
REMARK                            x       y       z     vdW  Elec       q    Type
REMARK                         _______ _______ _______ _____ _____    ______ ____
ROOT
ATOM      1  C   UNL     1      48.562   5.093  17.406  0.00  0.00    +0.000 C 
ATOM      2  C   UNL     1      49.715   4.058  17.443  0.00  0.00    +0.000 C 
ATOM      3  C   UNL     1      47.946   5.145  18.827  0.00  0.00    +0.000 C 
ENDROOT
BRANCH   1   8
ATOM      4  C   UNL     1      50.257   7.971  15.488  0.00  0.00    +0.000 A 
ATOM      5  C   UNL     1      49.745   9.091  16.139  0.00  0.00    +0.000 A 
ATOM      6  C   UNL     1      48.962   8.941  17.278  0.00  0.00    +0.000 A 
ATOM      7  C   UNL     1      48.638   7.663  17.736  0.00  0.00    +0.000 A 
ATOM      8  C   UNL     1      49.068   6.512  17.051  0.00  0.00    +0.000 A 
ATOM      9  C   UNL     1      49.923   6.696  15.942  0.00  0.00    +0.000 A 
BRANCH   4  10
ATOM     10  O   UNL     1      50.995   8.237  14.374  0.00  0.00    +0.000 OA
BRANCH  10  16
ATOM     11  C   UNL     1      48.223   9.317  12.011  0.00  0.00    +0.000 C 
ATOM     12  C   UNL     1      49.043   8.380  12.903  0.00  0.00    +0.000 C 
ATOM     13  C   UNL     1      49.500   7.139  12.140  0.00  0.00    +0.000 C 
ATOM     14  N   UNL     1      50.722   7.522  11.419  0.00  0.00    +0.000 NA
ATOM     15  C   UNL     1      51.236   8.751  12.058  0.00  0.00    +0.000 C 
ATOM     16  C   UNL     1      50.384   8.989  13.312  0.00  0.00    +0.000 C 
ATOM     17  H   UNL     1      50.501   7.720  10.442  0.00  0.00    +0.000 HD
ENDBRANCH  10  16
ENDBRANCH   4  10
ENDBRANCH   1   8
BRANCH   1  18
ATOM     18  C   UNL     1      47.495   4.630  16.364  0.00  0.00    +0.000 C 
BRANCH  18  19
ATOM     19  N   UNL     1      47.620   5.335  15.086  0.00  0.00    +0.000 N 
ATOM     20  H   UNL     1      47.810   6.328  15.150  0.00  0.00    +0.000 HD
BRANCH  19  21
ATOM     21  C   UNL     1      46.822   5.014  13.991  0.00  0.00    +0.000 A 
ATOM     22  C   UNL     1      46.071   5.951  13.276  0.00  0.00    +0.000 A 
ATOM     23  C   UNL     1      45.228   5.555  12.236  0.00  0.00    +0.000 A 
ATOM     24  C   UNL     1      45.119   4.202  11.912  0.00  0.00    +0.000 A 
ATOM     25  C   UNL     1      45.822   3.244  12.636  0.00  0.00    +0.000 A 
ATOM     26  C   UNL     1      46.670   3.656  13.670  0.00  0.00    +0.000 A 
BRANCH  24  27
ATOM     27  S   UNL     1      44.065   3.699  10.592  0.00  0.00    +0.000 S 
ATOM     28  O   UNL     1      44.869   3.281   9.467  0.00  0.00    +0.000 OA
ATOM     29  O   UNL     1      42.986   2.894  11.116  0.00  0.00    +0.000 OA
BRANCH  27  30
ATOM     30  N   UNL     1      43.377   5.165  10.153  0.00  0.00    +0.000 NA
ATOM     31  H   UNL     1      42.361   5.112  10.227  0.00  0.00    +0.000 HD
ATOM     32  H   UNL     1      43.801   5.924  10.683  0.00  0.00    +0.000 HD
ENDBRANCH  27  30
ENDBRANCH  24  27
ENDBRANCH  19  21
ENDBRANCH  18  19
ENDBRANCH   1  18
TORSDOF 8
ENDMDL
MODEL 7
REMARK VINA RESULT:    -5.652      3.351      5.742
REMARK INTER + INTRA:          -9.436
REMARK INTER:                  -8.397
REMARK INTRA:                  -1.040
REMARK UNBOUND:                -1.306
REMARK  Name = 
REMARK  11 active torsions:
REMARK  status: ('A' for Active; 'I' for Inactive)
REMARK    1  A    between atoms: C_1  and  C_2
REMARK    2  A    between atoms: C_6  and  O_7
REMARK    3  A    between atoms: O_7  and  C_8
REMARK    4  A    between atoms: C_12  and  C_13
REMARK    5  A    between atoms: C_13  and  C_14
REMARK    6  A    between atoms: C_13  and  C_15
REMARK    7  A    between atoms: C_13  and  C_16
REMARK    8  A    between atoms: C_16  and  N_17
REMARK    9  A    between atoms: N_17  and  C_18
REMARK   10  A    between atoms: C_21  and  S_22
REMARK   11  A    between atoms: S_22  and  N_23
REMARK                            x       y       z     vdW  Elec       q    Type
REMARK                         _______ _______ _______ _____ _____    ______ ____
ROOT
ATOM      1  C   UNL     1      49.549   8.451  14.411  0.00  0.00    +0.000 C 
ATOM      2  C   UNL     1      48.730   9.689  13.968  0.00  0.00    +0.000 C 
ATOM      3  C   UNL     1      50.925   8.533  13.704  0.00  0.00    +0.000 C 
ENDROOT
BRANCH   1   8
ATOM      4  C   UNL     1      49.563   7.270  18.078  0.00  0.00    +0.000 A 
ATOM      5  C   UNL     1      50.482   8.142  18.657  0.00  0.00    +0.000 A 
ATOM      6  C   UNL     1      51.005   9.198  17.919  0.00  0.00    +0.000 A 
ATOM      7  C   UNL     1      50.654   9.350  16.576  0.00  0.00    +0.000 A 
ATOM      8  C   UNL     1      49.796   8.436  15.939  0.00  0.00    +0.000 A 
ATOM      9  C   UNL     1      49.223   7.418  16.734  0.00  0.00    +0.000 A 
BRANCH   4  10
ATOM     10  O   UNL     1      49.132   6.263  18.888  0.00  0.00    +0.000 OA
BRANCH  10  16
ATOM     11  C   UNL     1      50.848   3.054  17.797  0.00  0.00    +0.000 C 
ATOM     12  C   UNL     1      49.769   4.139  17.848  0.00  0.00    +0.000 C 
ATOM     13  C   UNL     1      48.396   3.550  18.163  0.00  0.00    +0.000 C 
ATOM     14  N   UNL     1      48.328   3.412  19.624  0.00  0.00    +0.000 NA
ATOM     15  C   UNL     1      49.378   4.282  20.192  0.00  0.00    +0.000 C 
ATOM     16  C   UNL     1      49.959   5.096  19.027  0.00  0.00    +0.000 C 
ATOM     17  H   UNL     1      48.514   2.444  19.891  0.00  0.00    +0.000 HD
ENDBRANCH  10  16
ENDBRANCH   4  10
ENDBRANCH   1   8
BRANCH   1  18
ATOM     18  C   UNL     1      48.789   7.157  13.980  0.00  0.00    +0.000 C 
BRANCH  18  19
ATOM     19  N   UNL     1      47.350   7.381  13.820  0.00  0.00    +0.000 N 
ATOM     20  H   UNL     1      46.873   7.759  14.629  0.00  0.00    +0.000 HD
BRANCH  19  21
ATOM     21  C   UNL     1      46.549   6.510  13.086  0.00  0.00    +0.000 A 
ATOM     22  C   UNL     1      46.311   5.181  13.450  0.00  0.00    +0.000 A 
ATOM     23  C   UNL     1      45.564   4.333  12.631  0.00  0.00    +0.000 A 
ATOM     24  C   UNL     1      45.058   4.811  11.422  0.00  0.00    +0.000 A 
ATOM     25  C   UNL     1      45.317   6.116  11.014  0.00  0.00    +0.000 A 
ATOM     26  C   UNL     1      46.060   6.957  11.849  0.00  0.00    +0.000 A 
BRANCH  24  27
ATOM     27  S   UNL     1      44.102   3.748  10.390  0.00  0.00    +0.000 S 
ATOM     28  O   UNL     1      42.931   3.304  11.110  0.00  0.00    +0.000 OA
ATOM     29  O   UNL     1      44.031   4.304   9.059  0.00  0.00    +0.000 OA
BRANCH  27  30
ATOM     30  N   UNL     1      45.114   2.413  10.280  0.00  0.00    +0.000 NA
ATOM     31  H   UNL     1      45.777   2.538   9.515  0.00  0.00    +0.000 HD
ATOM     32  H   UNL     1      45.541   2.222  11.184  0.00  0.00    +0.000 HD
ENDBRANCH  27  30
ENDBRANCH  24  27
ENDBRANCH  19  21
ENDBRANCH  18  19
ENDBRANCH   1  18
TORSDOF 8
ENDMDL
MODEL 8
REMARK VINA RESULT:    -5.548      3.548      6.198
REMARK INTER + INTRA:          -9.287
REMARK INTER:                  -8.075
REMARK INTRA:                  -1.212
REMARK UNBOUND:                -1.306
REMARK  Name = 
REMARK  11 active torsions:
REMARK  status: ('A' for Active; 'I' for Inactive)
REMARK    1  A    between atoms: C_1  and  C_2
REMARK    2  A    between atoms: C_6  and  O_7
REMARK    3  A    between atoms: O_7  and  C_8
REMARK    4  A    between atoms: C_12  and  C_13
REMARK    5  A    between atoms: C_13  and  C_14
REMARK    6  A    between atoms: C_13  and  C_15
REMARK    7  A    between atoms: C_13  and  C_16
REMARK    8  A    between atoms: C_16  and  N_17
REMARK    9  A    between atoms: N_17  and  C_18
REMARK   10  A    between atoms: C_21  and  S_22
REMARK   11  A    between atoms: S_22  and  N_23
REMARK                            x       y       z     vdW  Elec       q    Type
REMARK                         _______ _______ _______ _____ _____    ______ ____
ROOT
ATOM      1  C   UNL     1      48.363   3.737  17.051  0.00  0.00    +0.000 C 
ATOM      2  C   UNL     1      49.287   2.519  16.800  0.00  0.00    +0.000 C 
ATOM      3  C   UNL     1      46.958   3.183  17.398  0.00  0.00    +0.000 C 
ENDROOT
BRANCH   1   8
ATOM      4  C   UNL     1      49.570   6.776  19.087  0.00  0.00    +0.000 A 
ATOM      5  C   UNL     1      49.411   6.327  20.396  0.00  0.00    +0.000 A 
ATOM      6  C   UNL     1      49.046   5.008  20.642  0.00  0.00    +0.000 A 
ATOM      7  C   UNL     1      48.780   4.148  19.576  0.00  0.00    +0.000 A 
ATOM      8  C   UNL     1      48.848   4.595  18.244  0.00  0.00    +0.000 A 
ATOM      9  C   UNL     1      49.293   5.918  18.024  0.00  0.00    +0.000 A 
BRANCH   4  10
ATOM     10  O   UNL     1      49.912   8.089  18.964  0.00  0.00    +0.000 OA
BRANCH  10  16
ATOM     11  C   UNL     1      46.725   9.923  19.921  0.00  0.00    +0.000 C 
ATOM     12  C   UNL     1      47.697   9.130  19.042  0.00  0.00    +0.000 C 
ATOM     13  C   UNL     1      47.962   9.842  17.718  0.00  0.00    +0.000 C 
ATOM     14  N   UNL     1      49.011  10.836  17.983  0.00  0.00    +0.000 NA
ATOM     15  C   UNL     1      49.671  10.444  19.246  0.00  0.00    +0.000 C 
ATOM     16  C   UNL     1      49.105   9.071  19.635  0.00  0.00    +0.000 C 
ATOM     17  H   UNL     1      48.594  11.761  18.096  0.00  0.00    +0.000 HD
ENDBRANCH  10  16
ENDBRANCH   4  10
ENDBRANCH   1   8
BRANCH   1  18
ATOM     18  C   UNL     1      48.304   4.607  15.756  0.00  0.00    +0.000 C 
BRANCH  18  19
ATOM     19  N   UNL     1      46.932   4.957  15.381  0.00  0.00    +0.000 N 
ATOM     20  H   UNL     1      46.219   4.731  16.063  0.00  0.00    +0.000 HD
BRANCH  19  21
ATOM     21  C   UNL     1      46.475   4.832  14.071  0.00  0.00    +0.000 A 
ATOM     22  C   UNL     1      46.201   5.920  13.238  0.00  0.00    +0.000 A 
ATOM     23  C   UNL     1      45.668   5.733  11.961  0.00  0.00    +0.000 A 
ATOM     24  C   UNL     1      45.391   4.441  11.512  0.00  0.00    +0.000 A 
ATOM     25  C   UNL     1      45.612   3.343  12.338  0.00  0.00    +0.000 A 
ATOM     26  C   UNL     1      46.154   3.546  13.611  0.00  0.00    +0.000 A 
BRANCH  24  27
ATOM     27  S   UNL     1      44.730   4.198   9.895  0.00  0.00    +0.000 S 
ATOM     28  O   UNL     1      45.121   2.896   9.407  0.00  0.00    +0.000 OA
ATOM     29  O   UNL     1      43.362   4.662   9.859  0.00  0.00    +0.000 OA
BRANCH  27  30
ATOM     30  N   UNL     1      45.620   5.313   9.013  0.00  0.00    +0.000 NA
ATOM     31  H   UNL     1      45.107   5.587   8.175  0.00  0.00    +0.000 HD
ATOM     32  H   UNL     1      45.900   6.089   9.610  0.00  0.00    +0.000 HD
ENDBRANCH  27  30
ENDBRANCH  24  27
ENDBRANCH  19  21
ENDBRANCH  18  19
ENDBRANCH   1  18
TORSDOF 8
ENDMDL
MODEL 9
REMARK VINA RESULT:    -5.434      4.673      7.115
REMARK INTER + INTRA:          -9.122
REMARK INTER:                  -8.104
REMARK INTRA:                  -1.018
REMARK UNBOUND:                -1.306
REMARK  Name = 
REMARK  11 active torsions:
REMARK  status: ('A' for Active; 'I' for Inactive)
REMARK    1  A    between atoms: C_1  and  C_2
REMARK    2  A    between atoms: C_6  and  O_7
REMARK    3  A    between atoms: O_7  and  C_8
REMARK    4  A    between atoms: C_12  and  C_13
REMARK    5  A    between atoms: C_13  and  C_14
REMARK    6  A    between atoms: C_13  and  C_15
REMARK    7  A    between atoms: C_13  and  C_16
REMARK    8  A    between atoms: C_16  and  N_17
REMARK    9  A    between atoms: N_17  and  C_18
REMARK   10  A    between atoms: C_21  and  S_22
REMARK   11  A    between atoms: S_22  and  N_23
REMARK                            x       y       z     vdW  Elec       q    Type
REMARK                         _______ _______ _______ _____ _____    ______ ____
ROOT
ATOM      1  C   UNL     1      49.228   7.892  15.366  0.00  0.00    +0.000 C 
ATOM      2  C   UNL     1      48.942   6.954  16.566  0.00  0.00    +0.000 C 
ATOM      3  C   UNL     1      48.921   9.338  15.830  0.00  0.00    +0.000 C 
ENDROOT
BRANCH   1   8
ATOM      4  C   UNL     1      52.436   8.490  13.319  0.00  0.00    +0.000 A 
ATOM      5  C   UNL     1      53.425   8.081  14.209  0.00  0.00    +0.000 A 
ATOM      6  C   UNL     1      53.076   7.486  15.416  0.00  0.00    +0.000 A 
ATOM      7  C   UNL     1      51.731   7.353  15.764  0.00  0.00    +0.000 A 
ATOM      8  C   UNL     1      50.711   7.834  14.925  0.00  0.00    +0.000 A 
ATOM      9  C   UNL     1      51.093   8.365  13.673  0.00  0.00    +0.000 A 
BRANCH   4  10
ATOM     10  O   UNL     1      52.892   9.075  12.176  0.00  0.00    +0.000 OA
BRANCH  10  16
ATOM     11  C   UNL     1      52.426   6.982   9.039  0.00  0.00    +0.000 C 
ATOM     12  C   UNL     1      53.165   7.650  10.203  0.00  0.00    +0.000 C 
ATOM     13  C   UNL     1      54.319   8.519   9.710  0.00  0.00    +0.000 C 
ATOM     14  N   UNL     1      53.735   9.814   9.336  0.00  0.00    +0.000 NA
ATOM     15  C   UNL     1      52.412   9.898   9.990  0.00  0.00    +0.000 C 
ATOM     16  C   UNL     1      52.301   8.686  10.925  0.00  0.00    +0.000 C 
ATOM     17  H   UNL     1      53.611   9.861   8.324  0.00  0.00    +0.000 HD
ENDBRANCH  10  16
ENDBRANCH   4  10
ENDBRANCH   1   8
BRANCH   1  18
ATOM     18  C   UNL     1      48.301   7.492  14.175  0.00  0.00    +0.000 C 
BRANCH  18  19
ATOM     19  N   UNL     1      47.551   6.261  14.439  0.00  0.00    +0.000 N 
ATOM     20  H   UNL     1      47.991   5.608  15.076  0.00  0.00    +0.000 HD
BRANCH  19  21
ATOM     21  C   UNL     1      46.816   5.622  13.444  0.00  0.00    +0.000 A 
ATOM     22  C   UNL     1      46.325   6.267  12.306  0.00  0.00    +0.000 A 
ATOM     23  C   UNL     1      45.525   5.591  11.383  0.00  0.00    +0.000 A 
ATOM     24  C   UNL     1      45.196   4.253  11.606  0.00  0.00    +0.000 A 
ATOM     25  C   UNL     1      45.634   3.599  12.753  0.00  0.00    +0.000 A 
ATOM     26  C   UNL     1      46.442   4.287  13.664  0.00  0.00    +0.000 A 
BRANCH  24  27
ATOM     27  S   UNL     1      44.196   3.391  10.437  0.00  0.00    +0.000 S 
ATOM     28  O   UNL     1      45.035   2.552   9.613  0.00  0.00    +0.000 OA
ATOM     29  O   UNL     1      43.008   2.895  11.091  0.00  0.00    +0.000 OA
BRANCH  27  30
ATOM     30  N   UNL     1      43.690   4.652   9.453  0.00  0.00    +0.000 NA
ATOM     31  H   UNL     1      44.289   4.718   8.630  0.00  0.00    +0.000 HD
ATOM     32  H   UNL     1      42.697   4.560   9.248  0.00  0.00    +0.000 HD
ENDBRANCH  27  30
ENDBRANCH  24  27
ENDBRANCH  19  21
ENDBRANCH  18  19
ENDBRANCH   1  18
TORSDOF 8
ENDMDL
