MODEL 1
REMARK VINA RESULT:    -9.162      0.000      0.000
REMARK INTER + INTRA:         -11.485
REMARK INTER:                 -11.572
REMARK INTRA:                   0.087
REMARK UNBOUND:                 0.087
REMARK  Name = 
REMARK  5 active torsions:
REMARK  status: ('A' for Active; 'I' for Inactive)
REMARK    1  A    between atoms: C_2  and  C_4
REMARK    2  A    between atoms: N_8  and  C_9
REMARK    3  A    between atoms: C_9  and  C_10
REMARK    4  A    between atoms: C_14  and  C_15
REMARK    5  A    between atoms: C_18  and  O_19
REMARK                            x       y       z     vdW  Elec       q    Type
REMARK                         _______ _______ _______ _____ _____    ______ ____
ROOT
ATOM      1  C   UNL     1      43.951   4.946  11.321  0.00  0.00    +0.000 C 
ATOM      2  C   UNL     1      43.023   3.837  11.810  0.00  0.00    +0.000 C 
ATOM      3  C   UNL     1      42.518   5.234  11.741  0.00  0.00    +0.000 C 
ENDROOT
BRANCH   1   8
ATOM      4  C   UNL     1      46.280   2.072   7.875  0.00  0.00    +0.000 A 
ATOM      5  C   UNL     1      46.327   3.373   7.375  0.00  0.00    +0.000 A 
ATOM      6  C   UNL     1      45.595   4.371   8.017  0.00  0.00    +0.000 A 
ATOM      7  C   UNL     1      44.876   4.062   9.172  0.00  0.00    +0.000 A 
ATOM      8  N   UNL     1      44.271   5.128   9.883  0.00  0.00    +0.000 N 
ATOM      9  N   UNL     1      44.750   2.782   9.593  0.00  0.00    +0.000 NA
ATOM     10  C   UNL     1      45.430   1.814   8.932  0.00  0.00    +0.000 A 
ATOM     11  H   UNL     1      44.812   5.975   9.733  0.00  0.00    +0.000 HD
BRANCH   4  13
ATOM     12  N   UNL     1      46.768  -0.283   7.685  0.00  0.00    +0.000 N 
ATOM     13  C   UNL     1      47.140   0.990   7.360  0.00  0.00    +0.000 C 
ATOM     14  O   UNL     1      48.087   1.215   6.625  0.00  0.00    +0.000 OA
ATOM     15  H   UNL     1      47.255  -1.031   7.207  0.00  0.00    +0.000 HD
ATOM     16  H   UNL     1      45.849  -0.494   8.055  0.00  0.00    +0.000 HD
ENDBRANCH   4  13
ENDBRANCH   1   8
BRANCH   1  17
ATOM     17  C   UNL     1      45.090   5.240  12.300  0.00  0.00    +0.000 A 
ATOM     18  C   UNL     1      45.630   4.264  13.143  0.00  0.00    +0.000 A 
ATOM     19  C   UNL     1      46.922   4.410  13.642  0.00  0.00    +0.000 A 
ATOM     20  C   UNL     1      47.677   5.543  13.319  0.00  0.00    +0.000 A 
ATOM     21  C   UNL     1      47.124   6.606  12.586  0.00  0.00    +0.000 A 
ATOM     22  C   UNL     1      45.796   6.447  12.168  0.00  0.00    +0.000 A 
BRANCH  21  23
ATOM     23  C   UNL     1      47.912   7.781  12.151  0.00  0.00    +0.000 A 
ATOM     24  C   UNL     1      49.275   7.687  11.798  0.00  0.00    +0.000 A 
ATOM     25  C   UNL     1      50.019   8.812  11.441  0.00  0.00    +0.000 A 
ATOM     26  C   UNL     1      49.381  10.035  11.459  0.00  0.00    +0.000 A 
ATOM     27  N   UNL     1      48.090  10.202  11.784  0.00  0.00    +0.000 NA
ATOM     28  C   UNL     1      47.397   9.082  12.120  0.00  0.00    +0.000 A 
BRANCH  26  29
ATOM     29  O   UNL     1      50.049  11.180  11.144  0.00  0.00    +0.000 OA
ATOM     30  H   UNL     1      50.380  11.090  10.240  0.00  0.00    +0.000 HD
ENDBRANCH  26  29
ENDBRANCH  21  23
ENDBRANCH   1  17
TORSDOF 5
ENDMDL
MODEL 2
REMARK VINA RESULT:    -9.021      3.246      4.317
REMARK INTER + INTRA:         -11.307
REMARK INTER:                 -11.360
REMARK INTRA:                   0.053
REMARK UNBOUND:                 0.087
REMARK  Name = 
REMARK  5 active torsions:
REMARK  status: ('A' for Active; 'I' for Inactive)
REMARK    1  A    between atoms: C_2  and  C_4
REMARK    2  A    between atoms: N_8  and  C_9
REMARK    3  A    between atoms: C_9  and  C_10
REMARK    4  A    between atoms: C_14  and  C_15
REMARK    5  A    between atoms: C_18  and  O_19
REMARK                            x       y       z     vdW  Elec       q    Type
REMARK                         _______ _______ _______ _____ _____    ______ ____
ROOT
ATOM      1  C   UNL     1      44.223   4.795  11.679  0.00  0.00    +0.000 C 
ATOM      2  C   UNL     1      43.564   3.772  12.600  0.00  0.00    +0.000 C 
ATOM      3  C   UNL     1      43.044   5.164  12.566  0.00  0.00    +0.000 C 
ENDROOT
BRANCH   1   8
ATOM      4  C   UNL     1      46.149   2.178   7.805  0.00  0.00    +0.000 A 
ATOM      5  C   UNL     1      45.589   3.325   7.245  0.00  0.00    +0.000 A 
ATOM      6  C   UNL     1      44.809   4.158   8.045  0.00  0.00    +0.000 A 
ATOM      7  C   UNL     1      44.650   3.859   9.399  0.00  0.00    +0.000 A 
ATOM      8  N   UNL     1      43.982   4.808  10.214  0.00  0.00    +0.000 N 
ATOM      9  N   UNL     1      45.107   2.695   9.913  0.00  0.00    +0.000 NA
ATOM     10  C   UNL     1      45.824   1.870   9.112  0.00  0.00    +0.000 A 
ATOM     11  H   UNL     1      44.126   5.736   9.828  0.00  0.00    +0.000 HD
BRANCH   4  13
ATOM     12  N   UNL     1      48.206   1.955   6.566  0.00  0.00    +0.000 N 
ATOM     13  C   UNL     1      47.110   1.325   7.081  0.00  0.00    +0.000 C 
ATOM     14  O   UNL     1      46.971   0.116   7.011  0.00  0.00    +0.000 OA
ATOM     15  H   UNL     1      48.943   1.358   6.210  0.00  0.00    +0.000 HD
ATOM     16  H   UNL     1      48.468   2.892   6.848  0.00  0.00    +0.000 HD
ENDBRANCH   4  13
ENDBRANCH   1   8
BRANCH   1  17
ATOM     17  C   UNL     1      45.639   5.167  12.125  0.00  0.00    +0.000 A 
ATOM     18  C   UNL     1      46.358   6.220  11.552  0.00  0.00    +0.000 A 
ATOM     19  C   UNL     1      47.388   6.830  12.262  0.00  0.00    +0.000 A 
ATOM     20  C   UNL     1      47.723   6.379  13.544  0.00  0.00    +0.000 A 
ATOM     21  C   UNL     1      47.117   5.240  14.100  0.00  0.00    +0.000 A 
ATOM     22  C   UNL     1      46.136   4.615  13.317  0.00  0.00    +0.000 A 
BRANCH  21  23
ATOM     23  C   UNL     1      47.379   4.780  15.481  0.00  0.00    +0.000 A 
ATOM     24  C   UNL     1      48.320   5.413  16.322  0.00  0.00    +0.000 A 
ATOM     25  C   UNL     1      48.596   4.936  17.603  0.00  0.00    +0.000 A 
ATOM     26  C   UNL     1      47.927   3.804  18.024  0.00  0.00    +0.000 A 
ATOM     27  N   UNL     1      47.021   3.150  17.282  0.00  0.00    +0.000 NA
ATOM     28  C   UNL     1      46.775   3.649  16.042  0.00  0.00    +0.000 A 
BRANCH  26  29
ATOM     29  O   UNL     1      48.161   3.268  19.254  0.00  0.00    +0.000 OA
ATOM     30  H   UNL     1      48.915   3.734  19.642  0.00  0.00    +0.000 HD
ENDBRANCH  26  29
ENDBRANCH  21  23
ENDBRANCH   1  17
TORSDOF 5
ENDMDL
MODEL 3
REMARK VINA RESULT:    -8.121      3.144      7.267
REMARK INTER + INTRA:         -10.170
REMARK INTER:                  -9.671
REMARK INTRA:                  -0.499
REMARK UNBOUND:                 0.087
REMARK  Name = 
REMARK  5 active torsions:
REMARK  status: ('A' for Active; 'I' for Inactive)
REMARK    1  A    between atoms: C_2  and  C_4
REMARK    2  A    between atoms: N_8  and  C_9
REMARK    3  A    between atoms: C_9  and  C_10
REMARK    4  A    between atoms: C_14  and  C_15
REMARK    5  A    between atoms: C_18  and  O_19
REMARK                            x       y       z     vdW  Elec       q    Type
REMARK                         _______ _______ _______ _____ _____    ______ ____
ROOT
ATOM      1  C   UNL     1      44.712   5.356  11.985  0.00  0.00    +0.000 C 
ATOM      2  C   UNL     1      43.584   6.233  11.447  0.00  0.00    +0.000 C 
ATOM      3  C   UNL     1      43.575   5.828  12.878  0.00  0.00    +0.000 C 
ENDROOT
BRANCH   1   8
ATOM      4  C   UNL     1      47.875   4.891  15.902  0.00  0.00    +0.000 A 
ATOM      5  C   UNL     1      48.280   6.040  15.224  0.00  0.00    +0.000 A 
ATOM      6  C   UNL     1      47.715   6.329  13.983  0.00  0.00    +0.000 A 
ATOM      7  C   UNL     1      46.720   5.495  13.470  0.00  0.00    +0.000 A 
ATOM      8  N   UNL     1      46.061   5.902  12.283  0.00  0.00    +0.000 N 
ATOM      9  N   UNL     1      46.405   4.329  14.079  0.00  0.00    +0.000 NA
ATOM     10  C   UNL     1      46.997   4.037  15.263  0.00  0.00    +0.000 A 
ATOM     11  H   UNL     1      46.064   6.916  12.233  0.00  0.00    +0.000 HD
BRANCH   4  13
ATOM     12  N   UNL     1      47.306   4.268  18.162  0.00  0.00    +0.000 N 
ATOM     13  C   UNL     1      48.300   4.589  17.282  0.00  0.00    +0.000 C 
ATOM     14  O   UNL     1      49.476   4.554  17.600  0.00  0.00    +0.000 OA
ATOM     15  H   UNL     1      47.600   3.907  19.061  0.00  0.00    +0.000 HD
ATOM     16  H   UNL     1      46.372   4.028  17.852  0.00  0.00    +0.000 HD
ENDBRANCH   4  13
ENDBRANCH   1   8
BRANCH   1  17
ATOM     17  C   UNL     1      44.678   3.935  11.420  0.00  0.00    +0.000 A 
ATOM     18  C   UNL     1      43.640   3.039  11.691  0.00  0.00    +0.000 A 
ATOM     19  C   UNL     1      43.384   1.982  10.822  0.00  0.00    +0.000 A 
ATOM     20  C   UNL     1      44.176   1.800   9.684  0.00  0.00    +0.000 A 
ATOM     21  C   UNL     1      45.309   2.595   9.446  0.00  0.00    +0.000 A 
ATOM     22  C   UNL     1      45.571   3.600  10.388  0.00  0.00    +0.000 A 
BRANCH  21  23
ATOM     23  C   UNL     1      46.123   2.492   8.215  0.00  0.00    +0.000 A 
ATOM     24  C   UNL     1      46.268   3.569   7.313  0.00  0.00    +0.000 A 
ATOM     25  C   UNL     1      46.995   3.440   6.129  0.00  0.00    +0.000 A 
ATOM     26  C   UNL     1      47.561   2.212   5.854  0.00  0.00    +0.000 A 
ATOM     27  N   UNL     1      47.465   1.145   6.662  0.00  0.00    +0.000 NA
ATOM     28  C   UNL     1      46.755   1.311   7.808  0.00  0.00    +0.000 A 
BRANCH  26  29
ATOM     29  O   UNL     1      48.265   2.005   4.707  0.00  0.00    +0.000 OA
ATOM     30  H   UNL     1      47.908   2.596   4.029  0.00  0.00    +0.000 HD
ENDBRANCH  26  29
ENDBRANCH  21  23
ENDBRANCH   1  17
TORSDOF 5
ENDMDL
MODEL 4
REMARK VINA RESULT:    -7.646      3.993      7.872
REMARK INTER + INTRA:          -9.570
REMARK INTER:                  -9.450
REMARK INTRA:                  -0.121
REMARK UNBOUND:                 0.087
REMARK  Name = 
REMARK  5 active torsions:
REMARK  status: ('A' for Active; 'I' for Inactive)
REMARK    1  A    between atoms: C_2  and  C_4
REMARK    2  A    between atoms: N_8  and  C_9
REMARK    3  A    between atoms: C_9  and  C_10
REMARK    4  A    between atoms: C_14  and  C_15
REMARK    5  A    between atoms: C_18  and  O_19
REMARK                            x       y       z     vdW  Elec       q    Type
REMARK                         _______ _______ _______ _____ _____    ______ ____
ROOT
ATOM      1  C   UNL     1      48.574   8.238  13.135  0.00  0.00    +0.000 C 
ATOM      2  C   UNL     1      49.320   7.424  12.082  0.00  0.00    +0.000 C 
ATOM      3  C   UNL     1      49.492   8.899  12.120  0.00  0.00    +0.000 C 
ENDROOT
BRANCH   1   8
ATOM      4  C   UNL     1      48.071   5.062  17.037  0.00  0.00    +0.000 A 
ATOM      5  C   UNL     1      48.350   6.307  17.597  0.00  0.00    +0.000 A 
ATOM      6  C   UNL     1      48.730   7.356  16.761  0.00  0.00    +0.000 A 
ATOM      7  C   UNL     1      48.771   7.155  15.381  0.00  0.00    +0.000 A 
ATOM      8  N   UNL     1      49.010   8.281  14.554  0.00  0.00    +0.000 N 
ATOM      9  N   UNL     1      48.602   5.923  14.851  0.00  0.00    +0.000 NA
ATOM     10  C   UNL     1      48.278   4.901  15.680  0.00  0.00    +0.000 A 
ATOM     11  H   UNL     1      48.662   9.114  15.018  0.00  0.00    +0.000 HD
BRANCH   4  13
ATOM     12  N   UNL     1      48.024   3.770  19.073  0.00  0.00    +0.000 N 
ATOM     13  C   UNL     1      47.513   3.943  17.819  0.00  0.00    +0.000 C 
ATOM     14  O   UNL     1      46.597   3.258  17.398  0.00  0.00    +0.000 OA
ATOM     15  H   UNL     1      47.540   3.111  19.670  0.00  0.00    +0.000 HD
ATOM     16  H   UNL     1      48.577   4.485  19.530  0.00  0.00    +0.000 HD
ENDBRANCH   4  13
ENDBRANCH   1   8
BRANCH   1  17
ATOM     17  C   UNL     1      47.061   8.262  12.902  0.00  0.00    +0.000 A 
ATOM     18  C   UNL     1      46.390   9.390  12.421  0.00  0.00    +0.000 A 
ATOM     19  C   UNL     1      45.163   9.252  11.779  0.00  0.00    +0.000 A 
ATOM     20  C   UNL     1      44.585   7.986  11.630  0.00  0.00    +0.000 A 
ATOM     21  C   UNL     1      45.161   6.846  12.215  0.00  0.00    +0.000 A 
ATOM     22  C   UNL     1      46.358   7.046  12.915  0.00  0.00    +0.000 A 
BRANCH  21  23
ATOM     23  C   UNL     1      44.631   5.480  12.011  0.00  0.00    +0.000 A 
ATOM     24  C   UNL     1      44.292   4.985  10.733  0.00  0.00    +0.000 A 
ATOM     25  C   UNL     1      43.742   3.715  10.562  0.00  0.00    +0.000 A 
ATOM     26  C   UNL     1      43.522   2.953  11.692  0.00  0.00    +0.000 A 
ATOM     27  N   UNL     1      43.818   3.356  12.936  0.00  0.00    +0.000 NA
ATOM     28  C   UNL     1      44.357   4.597  13.062  0.00  0.00    +0.000 A 
BRANCH  26  29
ATOM     29  O   UNL     1      42.969   1.711  11.604  0.00  0.00    +0.000 OA
ATOM     30  H   UNL     1      43.541   1.097  12.084  0.00  0.00    +0.000 HD
ENDBRANCH  26  29
ENDBRANCH  21  23
ENDBRANCH   1  17
TORSDOF 5
ENDMDL
MODEL 5
REMARK VINA RESULT:    -7.442      1.741      7.096
REMARK INTER + INTRA:          -9.313
REMARK INTER:                  -8.789
REMARK INTRA:                  -0.525
REMARK UNBOUND:                 0.087
REMARK  Name = 
REMARK  5 active torsions:
REMARK  status: ('A' for Active; 'I' for Inactive)
REMARK    1  A    between atoms: C_2  and  C_4
REMARK    2  A    between atoms: N_8  and  C_9
REMARK    3  A    between atoms: C_9  and  C_10
REMARK    4  A    between atoms: C_14  and  C_15
REMARK    5  A    between atoms: C_18  and  O_19
REMARK                            x       y       z     vdW  Elec       q    Type
REMARK                         _______ _______ _______ _____ _____    ______ ____
ROOT
ATOM      1  C   UNL     1      45.907   5.276  13.162  0.00  0.00    +0.000 C 
ATOM      2  C   UNL     1      46.054   4.349  14.365  0.00  0.00    +0.000 C 
ATOM      3  C   UNL     1      47.224   4.586  13.480  0.00  0.00    +0.000 C 
ENDROOT
BRANCH   1   8
ATOM      4  C   UNL     1      49.149   8.958  11.942  0.00  0.00    +0.000 A 
ATOM      5  C   UNL     1      48.298   9.507  12.898  0.00  0.00    +0.000 A 
ATOM      6  C   UNL     1      47.170   8.789  13.294  0.00  0.00    +0.000 A 
ATOM      7  C   UNL     1      46.946   7.517  12.766  0.00  0.00    +0.000 A 
ATOM      8  N   UNL     1      45.879   6.754  13.303  0.00  0.00    +0.000 N 
ATOM      9  N   UNL     1      47.715   7.032  11.764  0.00  0.00    +0.000 NA
ATOM     10  C   UNL     1      48.782   7.762  11.357  0.00  0.00    +0.000 A 
ATOM     11  H   UNL     1      45.731   7.026  14.271  0.00  0.00    +0.000 HD
BRANCH   4  13
ATOM     12  N   UNL     1      51.447   8.709  11.249  0.00  0.00    +0.000 N 
ATOM     13  C   UNL     1      50.441   9.571  11.580  0.00  0.00    +0.000 C 
ATOM     14  O   UNL     1      50.582  10.780  11.508  0.00  0.00    +0.000 OA
ATOM     15  H   UNL     1      52.280   9.121  10.849  0.00  0.00    +0.000 HD
ATOM     16  H   UNL     1      51.269   7.733  11.041  0.00  0.00    +0.000 HD
ENDBRANCH   4  13
ENDBRANCH   1   8
BRANCH   1  17
ATOM     17  C   UNL     1      45.003   4.694  12.073  0.00  0.00    +0.000 A 
ATOM     18  C   UNL     1      43.688   5.125  11.874  0.00  0.00    +0.000 A 
ATOM     19  C   UNL     1      43.076   4.952  10.636  0.00  0.00    +0.000 A 
ATOM     20  C   UNL     1      43.766   4.327   9.591  0.00  0.00    +0.000 A 
ATOM     21  C   UNL     1      45.036   3.761   9.789  0.00  0.00    +0.000 A 
ATOM     22  C   UNL     1      45.582   3.895  11.073  0.00  0.00    +0.000 A 
BRANCH  21  23
ATOM     23  C   UNL     1      45.834   3.168   8.693  0.00  0.00    +0.000 A 
ATOM     24  C   UNL     1      46.002   1.774   8.551  0.00  0.00    +0.000 A 
ATOM     25  C   UNL     1      46.802   1.232   7.544  0.00  0.00    +0.000 A 
ATOM     26  C   UNL     1      47.444   2.107   6.692  0.00  0.00    +0.000 A 
ATOM     27  N   UNL     1      47.332   3.442   6.767  0.00  0.00    +0.000 NA
ATOM     28  C   UNL     1      46.540   3.933   7.756  0.00  0.00    +0.000 A 
BRANCH  26  29
ATOM     29  O   UNL     1      48.258   1.652   5.700  0.00  0.00    +0.000 OA
ATOM     30  H   UNL     1      47.770   0.983   5.200  0.00  0.00    +0.000 HD
ENDBRANCH  26  29
ENDBRANCH  21  23
ENDBRANCH   1  17
TORSDOF 5
ENDMDL
MODEL 6
REMARK VINA RESULT:    -7.086      4.790      8.050
REMARK INTER + INTRA:          -8.863
REMARK INTER:                  -8.680
REMARK INTRA:                  -0.183
REMARK UNBOUND:                 0.087
REMARK  Name = 
REMARK  5 active torsions:
REMARK  status: ('A' for Active; 'I' for Inactive)
REMARK    1  A    between atoms: C_2  and  C_4
REMARK    2  A    between atoms: N_8  and  C_9
REMARK    3  A    between atoms: C_9  and  C_10
REMARK    4  A    between atoms: C_14  and  C_15
REMARK    5  A    between atoms: C_18  and  O_19
REMARK                            x       y       z     vdW  Elec       q    Type
REMARK                         _______ _______ _______ _____ _____    ______ ____
ROOT
ATOM      1  C   UNL     1      48.669   8.660  16.625  0.00  0.00    +0.000 C 
ATOM      2  C   UNL     1      49.852   9.490  17.116  0.00  0.00    +0.000 C 
ATOM      3  C   UNL     1      48.498  10.102  17.078  0.00  0.00    +0.000 C 
ENDROOT
BRANCH   1   8
ATOM      4  C   UNL     1      49.581   3.745  17.378  0.00  0.00    +0.000 A 
ATOM      5  C   UNL     1      48.268   3.953  17.794  0.00  0.00    +0.000 A 
ATOM      6  C   UNL     1      47.785   5.257  17.886  0.00  0.00    +0.000 A 
ATOM      7  C   UNL     1      48.605   6.322  17.511  0.00  0.00    +0.000 A 
ATOM      8  N   UNL     1      48.033   7.618  17.470  0.00  0.00    +0.000 N 
ATOM      9  N   UNL     1      49.908   6.124  17.208  0.00  0.00    +0.000 NA
ATOM     10  C   UNL     1      50.378   4.853  17.167  0.00  0.00    +0.000 A 
ATOM     11  H   UNL     1      47.041   7.537  17.265  0.00  0.00    +0.000 HD
BRANCH   4  13
ATOM     12  N   UNL     1      51.068   1.942  17.976  0.00  0.00    +0.000 N 
ATOM     13  C   UNL     1      50.126   2.402  17.102  0.00  0.00    +0.000 C 
ATOM     14  O   UNL     1      49.707   1.713  16.187  0.00  0.00    +0.000 OA
ATOM     15  H   UNL     1      51.328   0.967  17.887  0.00  0.00    +0.000 HD
ATOM     16  H   UNL     1      51.222   2.378  18.877  0.00  0.00    +0.000 HD
ENDBRANCH   4  13
ENDBRANCH   1   8
BRANCH   1  17
ATOM     17  C   UNL     1      48.743   8.351  15.128  0.00  0.00    +0.000 A 
ATOM     18  C   UNL     1      49.865   8.651  14.350  0.00  0.00    +0.000 A 
ATOM     19  C   UNL     1      50.102   7.955  13.168  0.00  0.00    +0.000 A 
ATOM     20  C   UNL     1      49.209   6.966  12.743  0.00  0.00    +0.000 A 
ATOM     21  C   UNL     1      48.003   6.728  13.423  0.00  0.00    +0.000 A 
ATOM     22  C   UNL     1      47.772   7.505  14.567  0.00  0.00    +0.000 A 
BRANCH  21  23
ATOM     23  C   UNL     1      47.073   5.638  13.058  0.00  0.00    +0.000 A 
ATOM     24  C   UNL     1      46.100   5.783  12.045  0.00  0.00    +0.000 A 
ATOM     25  C   UNL     1      45.193   4.765  11.748  0.00  0.00    +0.000 A 
ATOM     26  C   UNL     1      45.266   3.604  12.491  0.00  0.00    +0.000 A 
ATOM     27  N   UNL     1      46.162   3.394  13.467  0.00  0.00    +0.000 NA
ATOM     28  C   UNL     1      47.032   4.407  13.723  0.00  0.00    +0.000 A 
BRANCH  26  29
ATOM     29  O   UNL     1      44.400   2.576  12.272  0.00  0.00    +0.000 OA
ATOM     30  H   UNL     1      43.515   2.876  12.519  0.00  0.00    +0.000 HD
ENDBRANCH  26  29
ENDBRANCH  21  23
ENDBRANCH   1  17
TORSDOF 5
ENDMDL
MODEL 7
REMARK VINA RESULT:    -6.977      1.785      6.723
REMARK INTER + INTRA:          -8.726
REMARK INTER:                  -8.868
REMARK INTRA:                   0.142
REMARK UNBOUND:                 0.087
REMARK  Name = 
REMARK  5 active torsions:
REMARK  status: ('A' for Active; 'I' for Inactive)
REMARK    1  A    between atoms: C_2  and  C_4
REMARK    2  A    between atoms: N_8  and  C_9
REMARK    3  A    between atoms: C_9  and  C_10
REMARK    4  A    between atoms: C_14  and  C_15
REMARK    5  A    between atoms: C_18  and  O_19
REMARK                            x       y       z     vdW  Elec       q    Type
REMARK                         _______ _______ _______ _____ _____    ______ ____
ROOT
ATOM      1  C   UNL     1      44.115   4.968  12.085  0.00  0.00    +0.000 C 
ATOM      2  C   UNL     1      43.619   6.016  11.093  0.00  0.00    +0.000 C 
ATOM      3  C   UNL     1      42.725   5.574  12.195  0.00  0.00    +0.000 C 
ENDROOT
BRANCH   1   8
ATOM      4  C   UNL     1      48.533   7.424  12.207  0.00  0.00    +0.000 A 
ATOM      5  C   UNL     1      48.496   6.656  13.369  0.00  0.00    +0.000 A 
ATOM      6  C   UNL     1      47.311   6.008  13.715  0.00  0.00    +0.000 A 
ATOM      7  C   UNL     1      46.206   6.096  12.867  0.00  0.00    +0.000 A 
ATOM      8  N   UNL     1      45.073   5.301  13.170  0.00  0.00    +0.000 N 
ATOM      9  N   UNL     1      46.213   6.923  11.797  0.00  0.00    +0.000 NA
ATOM     10  C   UNL     1      47.358   7.584  11.498  0.00  0.00    +0.000 A 
ATOM     11  H   UNL     1      45.375   4.464  13.660  0.00  0.00    +0.000 HD
BRANCH   4  13
ATOM     12  N   UNL     1      50.810   7.149  11.459  0.00  0.00    +0.000 N 
ATOM     13  C   UNL     1      49.778   8.015  11.681  0.00  0.00    +0.000 C 
ATOM     14  O   UNL     1      49.857   9.196  11.392  0.00  0.00    +0.000 OA
ATOM     15  H   UNL     1      51.606   7.516  10.953  0.00  0.00    +0.000 HD
ATOM     16  H   UNL     1      50.672   6.145  11.434  0.00  0.00    +0.000 HD
ENDBRANCH   4  13
ENDBRANCH   1   8
BRANCH   1  17
ATOM     17  C   UNL     1      44.280   3.584  11.452  0.00  0.00    +0.000 A 
ATOM     18  C   UNL     1      43.350   2.556  11.633  0.00  0.00    +0.000 A 
ATOM     19  C   UNL     1      43.261   1.523  10.705  0.00  0.00    +0.000 A 
ATOM     20  C   UNL     1      44.115   1.498   9.596  0.00  0.00    +0.000 A 
ATOM     21  C   UNL     1      45.150   2.436   9.449  0.00  0.00    +0.000 A 
ATOM     22  C   UNL     1      45.247   3.414  10.448  0.00  0.00    +0.000 A 
BRANCH  21  23
ATOM     23  C   UNL     1      46.019   2.497   8.253  0.00  0.00    +0.000 A 
ATOM     24  C   UNL     1      46.099   3.645   7.435  0.00  0.00    +0.000 A 
ATOM     25  C   UNL     1      46.881   3.669   6.280  0.00  0.00    +0.000 A 
ATOM     26  C   UNL     1      47.570   2.520   5.948  0.00  0.00    +0.000 A 
ATOM     27  N   UNL     1      47.542   1.393   6.675  0.00  0.00    +0.000 NA
ATOM     28  C   UNL     1      46.774   1.410   7.796  0.00  0.00    +0.000 A 
BRANCH  26  29
ATOM     29  O   UNL     1      48.336   2.462   4.823  0.00  0.00    +0.000 OA
ATOM     30  H   UNL     1      48.124   1.639   4.362  0.00  0.00    +0.000 HD
ENDBRANCH  26  29
ENDBRANCH  21  23
ENDBRANCH   1  17
TORSDOF 5
ENDMDL
MODEL 8
REMARK VINA RESULT:    -6.645      2.796      3.488
REMARK INTER + INTRA:          -8.306
REMARK INTER:                  -7.912
REMARK INTRA:                  -0.394
REMARK UNBOUND:                 0.087
REMARK  Name = 
REMARK  5 active torsions:
REMARK  status: ('A' for Active; 'I' for Inactive)
REMARK    1  A    between atoms: C_2  and  C_4
REMARK    2  A    between atoms: N_8  and  C_9
REMARK    3  A    between atoms: C_9  and  C_10
REMARK    4  A    between atoms: C_14  and  C_15
REMARK    5  A    between atoms: C_18  and  O_19
REMARK                            x       y       z     vdW  Elec       q    Type
REMARK                         _______ _______ _______ _____ _____    ______ ____
ROOT
ATOM      1  C   UNL     1      44.009   5.264  11.824  0.00  0.00    +0.000 C 
ATOM      2  C   UNL     1      42.821   5.492  12.754  0.00  0.00    +0.000 C 
ATOM      3  C   UNL     1      42.622   5.575  11.283  0.00  0.00    +0.000 C 
ENDROOT
BRANCH   1   8
ATOM      4  C   UNL     1      46.069   3.095   7.747  0.00  0.00    +0.000 A 
ATOM      5  C   UNL     1      45.639   2.046   8.556  0.00  0.00    +0.000 A 
ATOM      6  C   UNL     1      45.196   2.324   9.848  0.00  0.00    +0.000 A 
ATOM      7  C   UNL     1      45.141   3.647  10.286  0.00  0.00    +0.000 A 
ATOM      8  N   UNL     1      44.542   3.906  11.544  0.00  0.00    +0.000 N 
ATOM      9  N   UNL     1      45.655   4.650   9.538  0.00  0.00    +0.000 NA
ATOM     10  C   UNL     1      46.125   4.360   8.301  0.00  0.00    +0.000 A 
ATOM     11  H   UNL     1      43.843   3.193  11.732  0.00  0.00    +0.000 HD
BRANCH   4  13
ATOM     12  N   UNL     1      46.791   4.040   5.648  0.00  0.00    +0.000 N 
ATOM     13  C   UNL     1      46.405   2.917   6.322  0.00  0.00    +0.000 C 
ATOM     14  O   UNL     1      46.408   1.818   5.795  0.00  0.00    +0.000 OA
ATOM     15  H   UNL     1      47.173   3.900   4.721  0.00  0.00    +0.000 HD
ATOM     16  H   UNL     1      47.053   4.891   6.131  0.00  0.00    +0.000 HD
ENDBRANCH   4  13
ENDBRANCH   1   8
BRANCH   1  17
ATOM     17  C   UNL     1      45.048   6.384  11.904  0.00  0.00    +0.000 A 
ATOM     18  C   UNL     1      44.809   7.672  11.416  0.00  0.00    +0.000 A 
ATOM     19  C   UNL     1      45.532   8.752  11.912  0.00  0.00    +0.000 A 
ATOM     20  C   UNL     1      46.515   8.553  12.888  0.00  0.00    +0.000 A 
ATOM     21  C   UNL     1      46.878   7.262  13.307  0.00  0.00    +0.000 A 
ATOM     22  C   UNL     1      46.174   6.200  12.725  0.00  0.00    +0.000 A 
BRANCH  21  23
ATOM     23  C   UNL     1      47.849   7.011  14.394  0.00  0.00    +0.000 A 
ATOM     24  C   UNL     1      48.701   8.020  14.894  0.00  0.00    +0.000 A 
ATOM     25  C   UNL     1      49.650   7.756  15.882  0.00  0.00    +0.000 A 
ATOM     26  C   UNL     1      49.744   6.461  16.351  0.00  0.00    +0.000 A 
ATOM     27  N   UNL     1      48.969   5.452  15.925  0.00  0.00    +0.000 NA
ATOM     28  C   UNL     1      48.054   5.750  14.966  0.00  0.00    +0.000 A 
BRANCH  26  29
ATOM     29  O   UNL     1      50.661   6.124  17.300  0.00  0.00    +0.000 OA
ATOM     30  H   UNL     1      50.376   5.293  17.706  0.00  0.00    +0.000 HD
ENDBRANCH  26  29
ENDBRANCH  21  23
ENDBRANCH   1  17
TORSDOF 5
ENDMDL
MODEL 9
REMARK VINA RESULT:    -6.431      4.245      9.046
REMARK INTER + INTRA:          -8.037
REMARK INTER:                  -7.564
REMARK INTRA:                  -0.472
REMARK UNBOUND:                 0.087
REMARK  Name = 
REMARK  5 active torsions:
REMARK  status: ('A' for Active; 'I' for Inactive)
REMARK    1  A    between atoms: C_2  and  C_4
REMARK    2  A    between atoms: N_8  and  C_9
REMARK    3  A    between atoms: C_9  and  C_10
REMARK    4  A    between atoms: C_14  and  C_15
REMARK    5  A    between atoms: C_18  and  O_19
REMARK                            x       y       z     vdW  Elec       q    Type
REMARK                         _______ _______ _______ _____ _____    ______ ____
ROOT
ATOM      1  C   UNL     1      49.146   7.851  13.390  0.00  0.00    +0.000 C 
ATOM      2  C   UNL     1      49.955   8.133  12.127  0.00  0.00    +0.000 C 
ATOM      3  C   UNL     1      50.066   9.056  13.287  0.00  0.00    +0.000 C 
ENDROOT
BRANCH   1   8
ATOM      4  C   UNL     1      49.624   7.737  18.422  0.00  0.00    +0.000 A 
ATOM      5  C   UNL     1      50.370   6.660  17.947  0.00  0.00    +0.000 A 
ATOM      6  C   UNL     1      50.279   6.313  16.600  0.00  0.00    +0.000 A 
ATOM      7  C   UNL     1      49.487   7.081  15.745  0.00  0.00    +0.000 A 
ATOM      8  N   UNL     1      49.539   6.795  14.358  0.00  0.00    +0.000 N 
ATOM      9  N   UNL     1      48.686   8.058  16.227  0.00  0.00    +0.000 NA
ATOM     10  C   UNL     1      48.750   8.355  17.548  0.00  0.00    +0.000 A 
ATOM     11  H   UNL     1      50.452   6.413  14.132  0.00  0.00    +0.000 HD
BRANCH   4  13
ATOM     12  N   UNL     1      48.884   7.817  20.716  0.00  0.00    +0.000 N 
ATOM     13  C   UNL     1      49.776   8.271  19.788  0.00  0.00    +0.000 C 
ATOM     14  O   UNL     1      50.691   9.020  20.088  0.00  0.00    +0.000 OA
ATOM     15  H   UNL     1      49.078   8.053  21.682  0.00  0.00    +0.000 HD
ATOM     16  H   UNL     1      48.304   7.003  20.549  0.00  0.00    +0.000 HD
ENDBRANCH   4  13
ENDBRANCH   1   8
BRANCH   1  17
ATOM     17  C   UNL     1      47.641   8.039  13.183  0.00  0.00    +0.000 A 
ATOM     18  C   UNL     1      47.082   9.250  12.767  0.00  0.00    +0.000 A 
ATOM     19  C   UNL     1      45.840   9.268  12.140  0.00  0.00    +0.000 A 
ATOM     20  C   UNL     1      45.136   8.075  11.940  0.00  0.00    +0.000 A 
ATOM     21  C   UNL     1      45.599   6.856  12.461  0.00  0.00    +0.000 A 
ATOM     22  C   UNL     1      46.819   6.900  13.150  0.00  0.00    +0.000 A 
BRANCH  21  23
ATOM     23  C   UNL     1      44.931   5.562  12.202  0.00  0.00    +0.000 A 
ATOM     24  C   UNL     1      43.713   5.470  11.495  0.00  0.00    +0.000 A 
ATOM     25  C   UNL     1      43.067   4.249  11.304  0.00  0.00    +0.000 A 
ATOM     26  C   UNL     1      43.651   3.122  11.846  0.00  0.00    +0.000 A 
ATOM     27  N   UNL     1      44.806   3.132  12.529  0.00  0.00    +0.000 NA
ATOM     28  C   UNL     1      45.408   4.339  12.689  0.00  0.00    +0.000 A 
BRANCH  26  29
ATOM     29  O   UNL     1      43.067   1.898  11.719  0.00  0.00    +0.000 OA
ATOM     30  H   UNL     1      43.762   1.229  11.785  0.00  0.00    +0.000 HD
ENDBRANCH  26  29
ENDBRANCH  21  23
ENDBRANCH   1  17
TORSDOF 5
ENDMDL
