MODEL 1
REMARK VINA RESULT:    -7.032      0.000      0.000
REMARK INTER + INTRA:         -15.634
REMARK INTER:                 -13.404
REMARK INTRA:                  -2.230
REMARK UNBOUND:                -2.230
REMARK  Name = 
REMARK  16 active torsions:
REMARK  status: ('A' for Active; 'I' for Inactive)
REMARK    1  A    between atoms: N_1  and  C_2
REMARK    2  A    between atoms: C_2  and  C_3
REMARK    3  A    between atoms: C_3  and  C_4
REMARK    4  A    between atoms: C_4  and  C_5
REMARK    5  A    between atoms: C_5  and  N_6
REMARK    6  A    between atoms: C_5  and  C_31
REMARK    7  A    between atoms: N_6  and  C_7
REMARK    8  A    between atoms: C_7  and  C_8
REMARK    9  A    between atoms: C_11  and  C_12
REMARK   10  A    between atoms: C_12  and  N_13
REMARK   11  A    between atoms: N_13  and  C_14
REMARK   12  A    between atoms: C_14  and  C_15
REMARK   13  A    between atoms: C_18  and  C_19
REMARK   14  A    between atoms: C_19  and  O_20
REMARK   15  A    between atoms: O_20  and  C_21
REMARK   16  A    between atoms: C_21  and  C_22
REMARK                            x       y       z     vdW  Elec       q    Type
REMARK                         _______ _______ _______ _____ _____    ______ ____
ROOT
ATOM      1  C   UNL     1      50.201   7.240  15.615  0.00  0.00    +0.000 A 
ATOM      2  C   UNL     1      50.289   8.625  15.525  0.00  0.00    +0.000 A 
ATOM      3  N   UNL     1      49.434   9.371  14.786  0.00  0.00    +0.000 NA
ATOM      4  C   UNL     1      48.468   8.675  14.129  0.00  0.00    +0.000 A 
ATOM      5  C   UNL     1      48.372   7.293  14.228  0.00  0.00    +0.000 A 
ATOM      6  N   UNL     1      49.221   6.555  14.972  0.00  0.00    +0.000 NA
ENDROOT
BRANCH   4   7
ATOM      7  C   UNL     1      47.514   9.436  13.240  0.00  0.00    +0.000 C 
BRANCH   7   8
ATOM      8  N   UNL     1      46.928   8.640  12.155  0.00  0.00    +0.000 NA
ATOM      9  H   UNL     1      47.374   7.719  12.179  0.00  0.00    +0.000 HD
BRANCH   8  10
ATOM     10  C   UNL     1      45.484   8.425  12.340  0.00  0.00    +0.000 C 
BRANCH  10  11
ATOM     11  C   UNL     1      45.081   7.013  11.966  0.00  0.00    +0.000 A 
ATOM     12  C   UNL     1      45.939   5.949  12.234  0.00  0.00    +0.000 A 
ATOM     13  C   UNL     1      45.526   4.655  11.927  0.00  0.00    +0.000 A 
ATOM     14  C   UNL     1      44.268   4.450  11.355  0.00  0.00    +0.000 A 
ATOM     15  C   UNL     1      43.486   5.574  11.113  0.00  0.00    +0.000 A 
ATOM     16  N   UNL     1      43.862   6.839  11.401  0.00  0.00    +0.000 NA
BRANCH  14  17
ATOM     17  C   UNL     1      43.778   3.083  10.986  0.00  0.00    +0.000 C 
BRANCH  17  18
ATOM     18  O   UNL     1      44.754   2.425  10.176  0.00  0.00    +0.000 OA
BRANCH  18  19
ATOM     19  C   UNL     1      44.543   2.740   8.794  0.00  0.00    +0.000 C 
BRANCH  19  20
ATOM     20  C   UNL     1      45.810   2.493   8.053  0.00  0.00    +0.000 A 
ATOM     21  N   UNL     1      46.529   3.385   7.401  0.00  0.00    +0.000 NA
ATOM     22  C   UNL     1      47.595   2.696   6.883  0.00  0.00    +0.000 A 
ATOM     23  C   UNL     1      47.527   1.367   7.223  0.00  0.00    +0.000 A 
ATOM     24  N   UNL     1      46.386   1.249   7.963  0.00  0.00    +0.000 N 
ATOM     25  H   UNL     1      46.002   0.412   8.385  0.00  0.00    +0.000 HD
ENDBRANCH  19  20
ENDBRANCH  18  19
ENDBRANCH  17  18
ENDBRANCH  14  17
ENDBRANCH  10  11
ENDBRANCH   8  10
ENDBRANCH   7   8
ENDBRANCH   4   7
BRANCH   1  26
ATOM     26  C   UNL     1      51.151   6.457  16.491  0.00  0.00    +0.000 C 
BRANCH  26  27
ATOM     27  N   UNL     1      50.621   5.144  16.893  0.00  0.00    +0.000 NA
ATOM     28  H   UNL     1      51.234   4.420  16.516  0.00  0.00    +0.000 HD
BRANCH  27  29
ATOM     29  C   UNL     1      50.528   4.973  18.348  0.00  0.00    +0.000 C 
BRANCH  29  30
ATOM     30  C   UNL     1      51.744   4.154  18.777  0.00  0.00    +0.000 A 
ATOM     31  C   UNL     1      52.692   4.573  19.701  0.00  0.00    +0.000 A 
ATOM     32  S   UNL     1      53.972   3.465  19.925  0.00  0.00    +0.000 S 
ATOM     33  C   UNL     1      53.276   2.353  18.843  0.00  0.00    +0.000 A 
ATOM     34  N   UNL     1      53.866   1.151  18.598  0.00  0.00    +0.000 NA
ATOM     35  C   UNL     1      53.211   0.393  17.784  0.00  0.00    +0.000 A 
ATOM     36  N   UNL     1      52.027   0.742  17.176  0.00  0.00    +0.000 N 
ATOM     37  C   UNL     1      51.420   1.967  17.348  0.00  0.00    +0.000 A 
ATOM     38  O   UNL     1      50.402   2.269  16.735  0.00  0.00    +0.000 OA
ATOM     39  C   UNL     1      52.101   2.836  18.293  0.00  0.00    +0.000 A 
ATOM     40  H   UNL     1      51.573   0.103  16.539  0.00  0.00    +0.000 HD
ENDBRANCH  29  30
BRANCH  29  41
ATOM     41  C   UNL     1      49.187   4.325  18.777  0.00  0.00    +0.000 C 
BRANCH  41  42
ATOM     42  C   UNL     1      47.993   4.925  18.037  0.00  0.00    +0.000 C 
BRANCH  42  43
ATOM     43  C   UNL     1      47.289   3.874  17.185  0.00  0.00    +0.000 C 
BRANCH  43  44
ATOM     44  N   UNL     1      47.903   3.839  15.863  0.00  0.00    +0.000 NA
ATOM     45  H   UNL     1      47.380   4.436  15.229  0.00  0.00    +0.000 HD
ATOM     46  H   UNL     1      47.850   2.893  15.486  0.00  0.00    +0.000 HD
ENDBRANCH  43  44
ENDBRANCH  42  43
ENDBRANCH  41  42
ENDBRANCH  29  41
ENDBRANCH  27  29
ENDBRANCH  26  27
ENDBRANCH   1  26
TORSDOF 16
ENDMDL
MODEL 2
REMARK VINA RESULT:    -6.567      2.517      4.788
REMARK INTER + INTRA:         -14.749
REMARK INTER:                 -12.171
REMARK INTRA:                  -2.577
REMARK UNBOUND:                -2.230
REMARK  Name = 
REMARK  16 active torsions:
REMARK  status: ('A' for Active; 'I' for Inactive)
REMARK    1  A    between atoms: N_1  and  C_2
REMARK    2  A    between atoms: C_2  and  C_3
REMARK    3  A    between atoms: C_3  and  C_4
REMARK    4  A    between atoms: C_4  and  C_5
REMARK    5  A    between atoms: C_5  and  N_6
REMARK    6  A    between atoms: C_5  and  C_31
REMARK    7  A    between atoms: N_6  and  C_7
REMARK    8  A    between atoms: C_7  and  C_8
REMARK    9  A    between atoms: C_11  and  C_12
REMARK   10  A    between atoms: C_12  and  N_13
REMARK   11  A    between atoms: N_13  and  C_14
REMARK   12  A    between atoms: C_14  and  C_15
REMARK   13  A    between atoms: C_18  and  C_19
REMARK   14  A    between atoms: C_19  and  O_20
REMARK   15  A    between atoms: O_20  and  C_21
REMARK   16  A    between atoms: C_21  and  C_22
REMARK                            x       y       z     vdW  Elec       q    Type
REMARK                         _______ _______ _______ _____ _____    ______ ____
ROOT
ATOM      1  C   UNL     1      50.401   4.791  19.117  0.00  0.00    +0.000 A 
ATOM      2  C   UNL     1      50.962   4.167  18.008  0.00  0.00    +0.000 A 
ATOM      3  N   UNL     1      50.221   3.554  17.054  0.00  0.00    +0.000 NA
ATOM      4  C   UNL     1      48.876   3.586  17.247  0.00  0.00    +0.000 A 
ATOM      5  C   UNL     1      48.314   4.219  18.349  0.00  0.00    +0.000 A 
ATOM      6  N   UNL     1      49.055   4.837  19.291  0.00  0.00    +0.000 NA
ENDROOT
BRANCH   4   7
ATOM      7  C   UNL     1      47.991   2.872  16.254  0.00  0.00    +0.000 C 
BRANCH   7   8
ATOM      8  N   UNL     1      46.856   3.668  15.769  0.00  0.00    +0.000 NA
ATOM      9  H   UNL     1      46.496   4.200  16.566  0.00  0.00    +0.000 HD
BRANCH   8  10
ATOM     10  C   UNL     1      47.258   4.644  14.744  0.00  0.00    +0.000 C 
BRANCH  10  11
ATOM     11  C   UNL     1      46.342   4.591  13.539  0.00  0.00    +0.000 A 
ATOM     12  C   UNL     1      46.054   5.755  12.829  0.00  0.00    +0.000 A 
ATOM     13  C   UNL     1      45.249   5.672  11.696  0.00  0.00    +0.000 A 
ATOM     14  C   UNL     1      44.746   4.433  11.296  0.00  0.00    +0.000 A 
ATOM     15  C   UNL     1      45.077   3.329  12.073  0.00  0.00    +0.000 A 
ATOM     16  N   UNL     1      45.855   3.380  13.176  0.00  0.00    +0.000 NA
BRANCH  14  17
ATOM     17  C   UNL     1      43.859   4.286  10.096  0.00  0.00    +0.000 C 
BRANCH  17  18
ATOM     18  O   UNL     1      44.447   3.368   9.174  0.00  0.00    +0.000 OA
BRANCH  18  19
ATOM     19  C   UNL     1      45.384   4.047   8.329  0.00  0.00    +0.000 C 
BRANCH  19  20
ATOM     20  C   UNL     1      46.312   3.040   7.745  0.00  0.00    +0.000 A 
ATOM     21  N   UNL     1      46.337   1.747   8.002  0.00  0.00    +0.000 NA
ATOM     22  C   UNL     1      47.353   1.236   7.237  0.00  0.00    +0.000 A 
ATOM     23  C   UNL     1      47.955   2.227   6.503  0.00  0.00    +0.000 A 
ATOM     24  N   UNL     1      47.288   3.370   6.837  0.00  0.00    +0.000 N 
ATOM     25  H   UNL     1      47.455   4.310   6.497  0.00  0.00    +0.000 HD
ENDBRANCH  19  20
ENDBRANCH  18  19
ENDBRANCH  17  18
ENDBRANCH  14  17
ENDBRANCH  10  11
ENDBRANCH   8  10
ENDBRANCH   7   8
ENDBRANCH   4   7
BRANCH   1  26
ATOM     26  C   UNL     1      51.268   5.503  20.128  0.00  0.00    +0.000 C 
BRANCH  26  27
ATOM     27  N   UNL     1      51.924   6.704  19.588  0.00  0.00    +0.000 NA
ATOM     28  H   UNL     1      52.644   6.408  18.927  0.00  0.00    +0.000 HD
BRANCH  27  29
ATOM     29  C   UNL     1      51.001   7.618  18.904  0.00  0.00    +0.000 C 
BRANCH  29  30
ATOM     30  C   UNL     1      51.760   8.209  17.719  0.00  0.00    +0.000 A 
ATOM     31  C   UNL     1      52.932   8.948  17.820  0.00  0.00    +0.000 A 
ATOM     32  S   UNL     1      53.510   9.530  16.322  0.00  0.00    +0.000 S 
ATOM     33  C   UNL     1      52.253   8.765  15.472  0.00  0.00    +0.000 A 
ATOM     34  N   UNL     1      52.176   8.841  14.116  0.00  0.00    +0.000 NA
ATOM     35  C   UNL     1      51.193   8.184  13.600  0.00  0.00    +0.000 A 
ATOM     36  N   UNL     1      50.264   7.474  14.326  0.00  0.00    +0.000 N 
ATOM     37  C   UNL     1      50.266   7.413  15.702  0.00  0.00    +0.000 A 
ATOM     38  O   UNL     1      49.382   6.828  16.319  0.00  0.00    +0.000 OA
ATOM     39  C   UNL     1      51.384   8.102  16.323  0.00  0.00    +0.000 A 
ATOM     40  H   UNL     1      49.511   6.991  13.858  0.00  0.00    +0.000 HD
ENDBRANCH  29  30
BRANCH  29  41
ATOM     41  C   UNL     1      50.436   8.702  19.856  0.00  0.00    +0.000 C 
BRANCH  41  42
ATOM     42  C   UNL     1      48.954   8.488  20.160  0.00  0.00    +0.000 C 
BRANCH  42  43
ATOM     43  C   UNL     1      48.093   8.807  18.942  0.00  0.00    +0.000 C 
BRANCH  43  44
ATOM     44  N   UNL     1      47.405   7.597  18.510  0.00  0.00    +0.000 NA
ATOM     45  H   UNL     1      48.065   6.975  18.054  0.00  0.00    +0.000 HD
ATOM     46  H   UNL     1      46.697   7.834  17.816  0.00  0.00    +0.000 HD
ENDBRANCH  43  44
ENDBRANCH  42  43
ENDBRANCH  41  42
ENDBRANCH  29  41
ENDBRANCH  27  29
ENDBRANCH  26  27
ENDBRANCH   1  26
TORSDOF 16
ENDMDL
MODEL 3
REMARK VINA RESULT:    -6.203      3.299      9.123
REMARK INTER + INTRA:         -14.054
REMARK INTER:                 -11.639
REMARK INTRA:                  -2.415
REMARK UNBOUND:                -2.230
REMARK  Name = 
REMARK  16 active torsions:
REMARK  status: ('A' for Active; 'I' for Inactive)
REMARK    1  A    between atoms: N_1  and  C_2
REMARK    2  A    between atoms: C_2  and  C_3
REMARK    3  A    between atoms: C_3  and  C_4
REMARK    4  A    between atoms: C_4  and  C_5
REMARK    5  A    between atoms: C_5  and  N_6
REMARK    6  A    between atoms: C_5  and  C_31
REMARK    7  A    between atoms: N_6  and  C_7
REMARK    8  A    between atoms: C_7  and  C_8
REMARK    9  A    between atoms: C_11  and  C_12
REMARK   10  A    between atoms: C_12  and  N_13
REMARK   11  A    between atoms: N_13  and  C_14
REMARK   12  A    between atoms: C_14  and  C_15
REMARK   13  A    between atoms: C_18  and  C_19
REMARK   14  A    between atoms: C_19  and  O_20
REMARK   15  A    between atoms: O_20  and  C_21
REMARK   16  A    between atoms: C_21  and  C_22
REMARK                            x       y       z     vdW  Elec       q    Type
REMARK                         _______ _______ _______ _____ _____    ______ ____
ROOT
ATOM      1  C   UNL     1      48.857   7.108  14.758  0.00  0.00    +0.000 A 
ATOM      2  C   UNL     1      48.885   8.462  15.071  0.00  0.00    +0.000 A 
ATOM      3  N   UNL     1      48.891   8.924  16.343  0.00  0.00    +0.000 NA
ATOM      4  C   UNL     1      48.870   7.971  17.313  0.00  0.00    +0.000 A 
ATOM      5  C   UNL     1      48.854   6.617  17.001  0.00  0.00    +0.000 A 
ATOM      6  N   UNL     1      48.857   6.161  15.732  0.00  0.00    +0.000 NA
ENDROOT
BRANCH   4   7
ATOM      7  C   UNL     1      48.817   8.414  18.755  0.00  0.00    +0.000 C 
BRANCH   7   8
ATOM      8  N   UNL     1      49.993   9.171  19.202  0.00  0.00    +0.000 NA
ATOM      9  H   UNL     1      49.660  10.077  19.541  0.00  0.00    +0.000 HD
BRANCH   8  10
ATOM     10  C   UNL     1      50.682   8.516  20.326  0.00  0.00    +0.000 C 
BRANCH  10  11
ATOM     11  C   UNL     1      51.278   7.186  19.911  0.00  0.00    +0.000 A 
ATOM     12  C   UNL     1      52.222   7.134  18.888  0.00  0.00    +0.000 A 
ATOM     13  C   UNL     1      52.792   5.907  18.558  0.00  0.00    +0.000 A 
ATOM     14  C   UNL     1      52.407   4.758  19.253  0.00  0.00    +0.000 A 
ATOM     15  C   UNL     1      51.449   4.906  20.249  0.00  0.00    +0.000 A 
ATOM     16  N   UNL     1      50.880   6.084  20.589  0.00  0.00    +0.000 NA
BRANCH  14  17
ATOM     17  C   UNL     1      52.972   3.408  18.929  0.00  0.00    +0.000 C 
BRANCH  17  18
ATOM     18  O   UNL     1      52.573   3.024  17.612  0.00  0.00    +0.000 OA
BRANCH  18  19
ATOM     19  C   UNL     1      51.812   1.811  17.661  0.00  0.00    +0.000 C 
BRANCH  19  20
ATOM     20  C   UNL     1      50.400   2.122  17.305  0.00  0.00    +0.000 A 
ATOM     21  N   UNL     1      49.768   1.768  16.203  0.00  0.00    +0.000 NA
ATOM     22  C   UNL     1      48.502   2.279  16.321  0.00  0.00    +0.000 A 
ATOM     23  C   UNL     1      48.358   2.954  17.508  0.00  0.00    +0.000 A 
ATOM     24  N   UNL     1      49.573   2.852  18.122  0.00  0.00    +0.000 N 
ATOM     25  H   UNL     1      49.850   3.232  19.020  0.00  0.00    +0.000 HD
ENDBRANCH  19  20
ENDBRANCH  18  19
ENDBRANCH  17  18
ENDBRANCH  14  17
ENDBRANCH  10  11
ENDBRANCH   8  10
ENDBRANCH   7   8
ENDBRANCH   4   7
BRANCH   1  26
ATOM     26  C   UNL     1      48.900   6.641  13.322  0.00  0.00    +0.000 C 
BRANCH  26  27
ATOM     27  N   UNL     1      47.717   5.857  12.929  0.00  0.00    +0.000 NA
ATOM     28  H   UNL     1      47.315   5.440  13.769  0.00  0.00    +0.000 HD
BRANCH  27  29
ATOM     29  C   UNL     1      46.684   6.655  12.256  0.00  0.00    +0.000 C 
BRANCH  29  30
ATOM     30  C   UNL     1      45.948   5.714  11.306  0.00  0.00    +0.000 A 
ATOM     31  C   UNL     1      46.042   5.756   9.921  0.00  0.00    +0.000 A 
ATOM     32  S   UNL     1      45.049   4.616   9.128  0.00  0.00    +0.000 S 
ATOM     33  C   UNL     1      44.501   3.977  10.605  0.00  0.00    +0.000 A 
ATOM     34  N   UNL     1      43.633   2.931  10.637  0.00  0.00    +0.000 NA
ATOM     35  C   UNL     1      43.330   2.526  11.824  0.00  0.00    +0.000 A 
ATOM     36  N   UNL     1      43.805   3.091  12.985  0.00  0.00    +0.000 N 
ATOM     37  C   UNL     1      44.641   4.186  13.006  0.00  0.00    +0.000 A 
ATOM     38  O   UNL     1      44.988   4.707  14.061  0.00  0.00    +0.000 OA
ATOM     39  C   UNL     1      45.043   4.648  11.689  0.00  0.00    +0.000 A 
ATOM     40  H   UNL     1      43.517   2.731  13.884  0.00  0.00    +0.000 HD
ENDBRANCH  29  30
BRANCH  29  41
ATOM     41  C   UNL     1      47.276   7.893  11.537  0.00  0.00    +0.000 C 
BRANCH  41  42
ATOM     42  C   UNL     1      46.751   9.204  12.119  0.00  0.00    +0.000 C 
BRANCH  42  43
ATOM     43  C   UNL     1      45.458   8.981  12.897  0.00  0.00    +0.000 C 
BRANCH  43  44
ATOM     44  N   UNL     1      44.485   9.994  12.509  0.00  0.00    +0.000 NA
ATOM     45  H   UNL     1      44.464  10.732  13.206  0.00  0.00    +0.000 HD
ATOM     46  H   UNL     1      43.552   9.583  12.489  0.00  0.00    +0.000 HD
ENDBRANCH  43  44
ENDBRANCH  42  43
ENDBRANCH  41  42
ENDBRANCH  29  41
ENDBRANCH  27  29
ENDBRANCH  26  27
ENDBRANCH   1  26
TORSDOF 16
ENDMDL
MODEL 4
REMARK VINA RESULT:    -6.160      3.883      9.258
REMARK INTER + INTRA:         -13.972
REMARK INTER:                 -10.781
REMARK INTRA:                  -3.191
REMARK UNBOUND:                -2.230
REMARK  Name = 
REMARK  16 active torsions:
REMARK  status: ('A' for Active; 'I' for Inactive)
REMARK    1  A    between atoms: N_1  and  C_2
REMARK    2  A    between atoms: C_2  and  C_3
REMARK    3  A    between atoms: C_3  and  C_4
REMARK    4  A    between atoms: C_4  and  C_5
REMARK    5  A    between atoms: C_5  and  N_6
REMARK    6  A    between atoms: C_5  and  C_31
REMARK    7  A    between atoms: N_6  and  C_7
REMARK    8  A    between atoms: C_7  and  C_8
REMARK    9  A    between atoms: C_11  and  C_12
REMARK   10  A    between atoms: C_12  and  N_13
REMARK   11  A    between atoms: N_13  and  C_14
REMARK   12  A    between atoms: C_14  and  C_15
REMARK   13  A    between atoms: C_18  and  C_19
REMARK   14  A    between atoms: C_19  and  O_20
REMARK   15  A    between atoms: O_20  and  C_21
REMARK   16  A    between atoms: C_21  and  C_22
REMARK                            x       y       z     vdW  Elec       q    Type
REMARK                         _______ _______ _______ _____ _____    ______ ____
ROOT
ATOM      1  C   UNL     1      47.387   3.826  14.938  0.00  0.00    +0.000 A 
ATOM      2  C   UNL     1      47.526   4.988  15.690  0.00  0.00    +0.000 A 
ATOM      3  N   UNL     1      48.152   5.018  16.890  0.00  0.00    +0.000 NA
ATOM      4  C   UNL     1      48.645   3.828  17.324  0.00  0.00    +0.000 A 
ATOM      5  C   UNL     1      48.516   2.669  16.569  0.00  0.00    +0.000 A 
ATOM      6  N   UNL     1      47.901   2.645  15.368  0.00  0.00    +0.000 NA
ENDROOT
BRANCH   4   7
ATOM      7  C   UNL     1      49.304   3.775  18.681  0.00  0.00    +0.000 C 
BRANCH   7   8
ATOM      8  N   UNL     1      48.368   3.661  19.807  0.00  0.00    +0.000 NA
ATOM      9  H   UNL     1      48.453   2.711  20.178  0.00  0.00    +0.000 HD
BRANCH   8  10
ATOM     10  C   UNL     1      48.702   4.584  20.903  0.00  0.00    +0.000 C 
BRANCH  10  11
ATOM     11  C   UNL     1      48.689   6.026  20.438  0.00  0.00    +0.000 A 
ATOM     12  C   UNL     1      49.850   6.793  20.511  0.00  0.00    +0.000 A 
ATOM     13  C   UNL     1      49.826   8.100  20.031  0.00  0.00    +0.000 A 
ATOM     14  C   UNL     1      48.646   8.616  19.491  0.00  0.00    +0.000 A 
ATOM     15  C   UNL     1      47.535   7.779  19.471  0.00  0.00    +0.000 A 
ATOM     16  N   UNL     1      47.531   6.509  19.929  0.00  0.00    +0.000 NA
BRANCH  14  17
ATOM     17  C   UNL     1      48.556  10.020  18.977  0.00  0.00    +0.000 C 
BRANCH  17  18
ATOM     18  O   UNL     1      49.743  10.343  18.251  0.00  0.00    +0.000 OA
BRANCH  18  19
ATOM     19  C   UNL     1      49.537  10.133  16.848  0.00  0.00    +0.000 C 
BRANCH  19  20
ATOM     20  C   UNL     1      50.419   9.022  16.400  0.00  0.00    +0.000 A 
ATOM     21  N   UNL     1      50.066   7.767  16.198  0.00  0.00    +0.000 NA
ATOM     22  C   UNL     1      51.207   7.120  15.799  0.00  0.00    +0.000 A 
ATOM     23  C   UNL     1      52.269   7.989  15.756  0.00  0.00    +0.000 A 
ATOM     24  N   UNL     1      51.757   9.194  16.145  0.00  0.00    +0.000 N 
ATOM     25  H   UNL     1      52.246  10.076  16.239  0.00  0.00    +0.000 HD
ENDBRANCH  19  20
ENDBRANCH  18  19
ENDBRANCH  17  18
ENDBRANCH  14  17
ENDBRANCH  10  11
ENDBRANCH   8  10
ENDBRANCH   7   8
ENDBRANCH   4   7
BRANCH   1  26
ATOM     26  C   UNL     1      46.723   3.854  13.582  0.00  0.00    +0.000 C 
BRANCH  26  27
ATOM     27  N   UNL     1      45.908   5.058  13.357  0.00  0.00    +0.000 NA
ATOM     28  H   UNL     1      46.215   5.781  14.009  0.00  0.00    +0.000 HD
BRANCH  27  29
ATOM     29  C   UNL     1      46.004   5.583  11.990  0.00  0.00    +0.000 C 
BRANCH  29  30
ATOM     30  C   UNL     1      46.082   7.104  12.104  0.00  0.00    +0.000 A 
ATOM     31  C   UNL     1      45.013   7.968  11.901  0.00  0.00    +0.000 A 
ATOM     32  S   UNL     1      45.427   9.619  12.036  0.00  0.00    +0.000 S 
ATOM     33  C   UNL     1      47.037   9.244  12.435  0.00  0.00    +0.000 A 
ATOM     34  N   UNL     1      47.937  10.225  12.711  0.00  0.00    +0.000 NA
ATOM     35  C   UNL     1      49.111   9.796  13.033  0.00  0.00    +0.000 A 
ATOM     36  N   UNL     1      49.469   8.468  13.081  0.00  0.00    +0.000 N 
ATOM     37  C   UNL     1      48.610   7.441  12.756  0.00  0.00    +0.000 A 
ATOM     38  O   UNL     1      48.984   6.273  12.743  0.00  0.00    +0.000 OA
ATOM     39  C   UNL     1      47.263   7.877  12.431  0.00  0.00    +0.000 A 
ATOM     40  H   UNL     1      50.411   8.202  13.330  0.00  0.00    +0.000 HD
ENDBRANCH  29  30
BRANCH  29  41
ATOM     41  C   UNL     1      44.831   5.108  11.096  0.00  0.00    +0.000 C 
BRANCH  41  42
ATOM     42  C   UNL     1      43.678   4.531  11.915  0.00  0.00    +0.000 C 
BRANCH  42  43
ATOM     43  C   UNL     1      43.304   3.134  11.431  0.00  0.00    +0.000 C 
BRANCH  43  44
ATOM     44  N   UNL     1      43.514   2.180  12.512  0.00  0.00    +0.000 NA
ATOM     45  H   UNL     1      42.974   1.338  12.334  0.00  0.00    +0.000 HD
ATOM     46  H   UNL     1      43.166   2.571  13.387  0.00  0.00    +0.000 HD
ENDBRANCH  43  44
ENDBRANCH  42  43
ENDBRANCH  41  42
ENDBRANCH  29  41
ENDBRANCH  27  29
ENDBRANCH  26  27
ENDBRANCH   1  26
TORSDOF 16
ENDMDL
MODEL 5
REMARK VINA RESULT:    -6.127      2.945      3.962
REMARK INTER + INTRA:         -13.910
REMARK INTER:                 -10.911
REMARK INTRA:                  -2.999
REMARK UNBOUND:                -2.230
REMARK  Name = 
REMARK  16 active torsions:
REMARK  status: ('A' for Active; 'I' for Inactive)
REMARK    1  A    between atoms: N_1  and  C_2
REMARK    2  A    between atoms: C_2  and  C_3
REMARK    3  A    between atoms: C_3  and  C_4
REMARK    4  A    between atoms: C_4  and  C_5
REMARK    5  A    between atoms: C_5  and  N_6
REMARK    6  A    between atoms: C_5  and  C_31
REMARK    7  A    between atoms: N_6  and  C_7
REMARK    8  A    between atoms: C_7  and  C_8
REMARK    9  A    between atoms: C_11  and  C_12
REMARK   10  A    between atoms: C_12  and  N_13
REMARK   11  A    between atoms: N_13  and  C_14
REMARK   12  A    between atoms: C_14  and  C_15
REMARK   13  A    between atoms: C_18  and  C_19
REMARK   14  A    between atoms: C_19  and  O_20
REMARK   15  A    between atoms: O_20  and  C_21
REMARK   16  A    between atoms: C_21  and  C_22
REMARK                            x       y       z     vdW  Elec       q    Type
REMARK                         _______ _______ _______ _____ _____    ______ ____
ROOT
ATOM      1  C   UNL     1      50.823   9.800  16.058  0.00  0.00    +0.000 A 
ATOM      2  C   UNL     1      49.514   9.988  15.630  0.00  0.00    +0.000 A 
ATOM      3  N   UNL     1      49.118   9.777  14.353  0.00  0.00    +0.000 NA
ATOM      4  C   UNL     1      50.091   9.361  13.499  0.00  0.00    +0.000 A 
ATOM      5  C   UNL     1      51.398   9.161  13.928  0.00  0.00    +0.000 A 
ATOM      6  N   UNL     1      51.785   9.364  15.204  0.00  0.00    +0.000 NA
ENDROOT
BRANCH   4   7
ATOM      7  C   UNL     1      49.735   9.162  12.046  0.00  0.00    +0.000 C 
BRANCH   7   8
ATOM      8  N   UNL     1      48.558   8.314  11.819  0.00  0.00    +0.000 NA
ATOM      9  H   UNL     1      48.494   8.145  10.812  0.00  0.00    +0.000 HD
BRANCH   8  10
ATOM     10  C   UNL     1      48.685   7.000  12.470  0.00  0.00    +0.000 C 
BRANCH  10  11
ATOM     11  C   UNL     1      47.332   6.351  12.677  0.00  0.00    +0.000 A 
ATOM     12  C   UNL     1      46.172   7.017  12.289  0.00  0.00    +0.000 A 
ATOM     13  C   UNL     1      44.944   6.379  12.445  0.00  0.00    +0.000 A 
ATOM     14  C   UNL     1      44.898   5.093  12.988  0.00  0.00    +0.000 A 
ATOM     15  C   UNL     1      46.106   4.514  13.358  0.00  0.00    +0.000 A 
ATOM     16  N   UNL     1      47.311   5.109  13.218  0.00  0.00    +0.000 NA
BRANCH  14  17
ATOM     17  C   UNL     1      43.604   4.366  13.197  0.00  0.00    +0.000 C 
BRANCH  17  18
ATOM     18  O   UNL     1      42.981   4.121  11.935  0.00  0.00    +0.000 OA
BRANCH  18  19
ATOM     19  C   UNL     1      43.381   2.842  11.427  0.00  0.00    +0.000 C 
BRANCH  19  20
ATOM     20  C   UNL     1      44.143   3.050  10.166  0.00  0.00    +0.000 A 
ATOM     21  N   UNL     1      44.169   4.145   9.431  0.00  0.00    +0.000 NA
ATOM     22  C   UNL     1      44.999   3.865   8.377  0.00  0.00    +0.000 A 
ATOM     23  C   UNL     1      45.487   2.585   8.468  0.00  0.00    +0.000 A 
ATOM     24  N   UNL     1      44.932   2.075   9.606  0.00  0.00    +0.000 N 
ATOM     25  H   UNL     1      45.057   1.150   9.999  0.00  0.00    +0.000 HD
ENDBRANCH  19  20
ENDBRANCH  18  19
ENDBRANCH  17  18
ENDBRANCH  14  17
ENDBRANCH  10  11
ENDBRANCH   8  10
ENDBRANCH   7   8
ENDBRANCH   4   7
BRANCH   1  26
ATOM     26  C   UNL     1      51.205  10.003  17.505  0.00  0.00    +0.000 C 
BRANCH  26  27
ATOM     27  N   UNL     1      50.628   8.991  18.406  0.00  0.00    +0.000 NA
ATOM     28  H   UNL     1      49.616   8.983  18.275  0.00  0.00    +0.000 HD
BRANCH  27  29
ATOM     29  C   UNL     1      51.146   7.638  18.173  0.00  0.00    +0.000 C 
BRANCH  29  30
ATOM     30  C   UNL     1      50.108   6.665  18.728  0.00  0.00    +0.000 A 
ATOM     31  C   UNL     1      49.931   6.384  20.077  0.00  0.00    +0.000 A 
ATOM     32  S   UNL     1      48.734   5.205  20.382  0.00  0.00    +0.000 S 
ATOM     33  C   UNL     1      48.361   5.069  18.729  0.00  0.00    +0.000 A 
ATOM     34  N   UNL     1      47.379   4.233  18.299  0.00  0.00    +0.000 NA
ATOM     35  C   UNL     1      47.179   4.257  17.024  0.00  0.00    +0.000 A 
ATOM     36  N   UNL     1      47.893   5.031  16.138  0.00  0.00    +0.000 N 
ATOM     37  C   UNL     1      48.933   5.850  16.518  0.00  0.00    +0.000 A 
ATOM     38  O   UNL     1      49.593   6.472  15.692  0.00  0.00    +0.000 OA
ATOM     39  C   UNL     1      49.163   5.888  17.951  0.00  0.00    +0.000 A 
ATOM     40  H   UNL     1      47.691   4.992  15.149  0.00  0.00    +0.000 HD
ENDBRANCH  29  30
BRANCH  29  41
ATOM     41  C   UNL     1      52.552   7.434  18.791  0.00  0.00    +0.000 C 
BRANCH  41  42
ATOM     42  C   UNL     1      53.601   7.085  17.737  0.00  0.00    +0.000 C 
BRANCH  42  43
ATOM     43  C   UNL     1      53.003   6.220  16.632  0.00  0.00    +0.000 C 
BRANCH  43  44
ATOM     44  N   UNL     1      53.480   6.697  15.339  0.00  0.00    +0.000 NA
ATOM     45  H   UNL     1      54.278   6.143  15.045  0.00  0.00    +0.000 HD
ATOM     46  H   UNL     1      53.806   7.659  15.428  0.00  0.00    +0.000 HD
ENDBRANCH  43  44
ENDBRANCH  42  43
ENDBRANCH  41  42
ENDBRANCH  29  41
ENDBRANCH  27  29
ENDBRANCH  26  27
ENDBRANCH   1  26
TORSDOF 16
ENDMDL
MODEL 6
REMARK VINA RESULT:    -6.051      3.931      9.036
REMARK INTER + INTRA:         -13.764
REMARK INTER:                 -11.170
REMARK INTRA:                  -2.594
REMARK UNBOUND:                -2.230
REMARK  Name = 
REMARK  16 active torsions:
REMARK  status: ('A' for Active; 'I' for Inactive)
REMARK    1  A    between atoms: N_1  and  C_2
REMARK    2  A    between atoms: C_2  and  C_3
REMARK    3  A    between atoms: C_3  and  C_4
REMARK    4  A    between atoms: C_4  and  C_5
REMARK    5  A    between atoms: C_5  and  N_6
REMARK    6  A    between atoms: C_5  and  C_31
REMARK    7  A    between atoms: N_6  and  C_7
REMARK    8  A    between atoms: C_7  and  C_8
REMARK    9  A    between atoms: C_11  and  C_12
REMARK   10  A    between atoms: C_12  and  N_13
REMARK   11  A    between atoms: N_13  and  C_14
REMARK   12  A    between atoms: C_14  and  C_15
REMARK   13  A    between atoms: C_18  and  C_19
REMARK   14  A    between atoms: C_19  and  O_20
REMARK   15  A    between atoms: O_20  and  C_21
REMARK   16  A    between atoms: C_21  and  C_22
REMARK                            x       y       z     vdW  Elec       q    Type
REMARK                         _______ _______ _______ _____ _____    ______ ____
ROOT
ATOM      1  C   UNL     1      47.469   4.838  14.765  0.00  0.00    +0.000 A 
ATOM      2  C   UNL     1      46.798   3.937  15.584  0.00  0.00    +0.000 A 
ATOM      3  N   UNL     1      46.992   3.872  16.923  0.00  0.00    +0.000 NA
ATOM      4  C   UNL     1      47.896   4.755  17.427  0.00  0.00    +0.000 A 
ATOM      5  C   UNL     1      48.558   5.663  16.611  0.00  0.00    +0.000 A 
ATOM      6  N   UNL     1      48.354   5.731  15.279  0.00  0.00    +0.000 NA
ENDROOT
BRANCH   4   7
ATOM      7  C   UNL     1      48.206   4.700  18.903  0.00  0.00    +0.000 C 
BRANCH   7   8
ATOM      8  N   UNL     1      47.307   5.500  19.744  0.00  0.00    +0.000 NA
ATOM      9  H   UNL     1      46.936   4.879  20.468  0.00  0.00    +0.000 HD
BRANCH   8  10
ATOM     10  C   UNL     1      48.013   6.593  20.432  0.00  0.00    +0.000 C 
BRANCH  10  11
ATOM     11  C   UNL     1      48.368   7.712  19.474  0.00  0.00    +0.000 A 
ATOM     12  C   UNL     1      47.365   8.517  18.939  0.00  0.00    +0.000 A 
ATOM     13  C   UNL     1      47.721   9.570  18.100  0.00  0.00    +0.000 A 
ATOM     14  C   UNL     1      49.068   9.797  17.810  0.00  0.00    +0.000 A 
ATOM     15  C   UNL     1      49.997   8.934  18.381  0.00  0.00    +0.000 A 
ATOM     16  N   UNL     1      49.680   7.905  19.197  0.00  0.00    +0.000 NA
BRANCH  14  17
ATOM     17  C   UNL     1      49.509  10.902  16.900  0.00  0.00    +0.000 C 
BRANCH  17  18
ATOM     18  O   UNL     1      50.009  10.351  15.681  0.00  0.00    +0.000 OA
BRANCH  18  19
ATOM     19  C   UNL     1      48.923   9.937  14.843  0.00  0.00    +0.000 C 
BRANCH  19  20
ATOM     20  C   UNL     1      49.483   9.292  13.624  0.00  0.00    +0.000 A 
ATOM     21  N   UNL     1      50.267   9.853  12.725  0.00  0.00    +0.000 NA
ATOM     22  C   UNL     1      50.520   8.880  11.794  0.00  0.00    +0.000 A 
ATOM     23  C   UNL     1      49.884   7.710  12.128  0.00  0.00    +0.000 A 
ATOM     24  N   UNL     1      49.224   7.986  13.291  0.00  0.00    +0.000 N 
ATOM     25  H   UNL     1      48.640   7.364  13.837  0.00  0.00    +0.000 HD
ENDBRANCH  19  20
ENDBRANCH  18  19
ENDBRANCH  17  18
ENDBRANCH  14  17
ENDBRANCH  10  11
ENDBRANCH   8  10
ENDBRANCH   7   8
ENDBRANCH   4   7
BRANCH   1  26
ATOM     26  C   UNL     1      47.182   4.904  13.284  0.00  0.00    +0.000 C 
BRANCH  26  27
ATOM     27  N   UNL     1      46.710   6.226  12.841  0.00  0.00    +0.000 NA
ATOM     28  H   UNL     1      47.024   6.376  11.882  0.00  0.00    +0.000 HD
BRANCH  27  29
ATOM     29  C   UNL     1      45.250   6.372  12.889  0.00  0.00    +0.000 C 
BRANCH  29  30
ATOM     30  C   UNL     1      44.659   5.121  12.243  0.00  0.00    +0.000 A 
ATOM     31  C   UNL     1      43.825   4.217  12.889  0.00  0.00    +0.000 A 
ATOM     32  S   UNL     1      43.378   2.882  11.924  0.00  0.00    +0.000 S 
ATOM     33  C   UNL     1      44.228   3.491  10.583  0.00  0.00    +0.000 A 
ATOM     34  N   UNL     1      44.229   2.829   9.394  0.00  0.00    +0.000 NA
ATOM     35  C   UNL     1      44.885   3.423   8.455  0.00  0.00    +0.000 A 
ATOM     36  N   UNL     1      45.560   4.612   8.608  0.00  0.00    +0.000 N 
ATOM     37  C   UNL     1      45.636   5.290   9.804  0.00  0.00    +0.000 A 
ATOM     38  O   UNL     1      46.306   6.311   9.921  0.00  0.00    +0.000 OA
ATOM     39  C   UNL     1      44.873   4.680  10.879  0.00  0.00    +0.000 A 
ATOM     40  H   UNL     1      46.064   5.016   7.832  0.00  0.00    +0.000 HD
ENDBRANCH  29  30
BRANCH  29  41
ATOM     41  C   UNL     1      44.770   7.681  12.212  0.00  0.00    +0.000 C 
BRANCH  41  42
ATOM     42  C   UNL     1      45.712   8.852  12.486  0.00  0.00    +0.000 C 
BRANCH  42  43
ATOM     43  C   UNL     1      45.146  10.154  11.929  0.00  0.00    +0.000 C 
BRANCH  43  44
ATOM     44  N   UNL     1      43.722  10.227  12.233  0.00  0.00    +0.000 NA
ATOM     45  H   UNL     1      43.357   9.291  12.381  0.00  0.00    +0.000 HD
ATOM     46  H   UNL     1      43.221  10.615  11.435  0.00  0.00    +0.000 HD
ENDBRANCH  43  44
ENDBRANCH  42  43
ENDBRANCH  41  42
ENDBRANCH  29  41
ENDBRANCH  27  29
ENDBRANCH  26  27
ENDBRANCH   1  26
TORSDOF 16
ENDMDL
MODEL 7
REMARK VINA RESULT:    -5.945      3.690      8.615
REMARK INTER + INTRA:         -13.563
REMARK INTER:                 -10.882
REMARK INTRA:                  -2.681
REMARK UNBOUND:                -2.230
REMARK  Name = 
REMARK  16 active torsions:
REMARK  status: ('A' for Active; 'I' for Inactive)
REMARK    1  A    between atoms: N_1  and  C_2
REMARK    2  A    between atoms: C_2  and  C_3
REMARK    3  A    between atoms: C_3  and  C_4
REMARK    4  A    between atoms: C_4  and  C_5
REMARK    5  A    between atoms: C_5  and  N_6
REMARK    6  A    between atoms: C_5  and  C_31
REMARK    7  A    between atoms: N_6  and  C_7
REMARK    8  A    between atoms: C_7  and  C_8
REMARK    9  A    between atoms: C_11  and  C_12
REMARK   10  A    between atoms: C_12  and  N_13
REMARK   11  A    between atoms: N_13  and  C_14
REMARK   12  A    between atoms: C_14  and  C_15
REMARK   13  A    between atoms: C_18  and  C_19
REMARK   14  A    between atoms: C_19  and  O_20
REMARK   15  A    between atoms: O_20  and  C_21
REMARK   16  A    between atoms: C_21  and  C_22
REMARK                            x       y       z     vdW  Elec       q    Type
REMARK                         _______ _______ _______ _____ _____    ______ ____
ROOT
ATOM      1  C   UNL     1      48.811   7.813  13.330  0.00  0.00    +0.000 A 
ATOM      2  C   UNL     1      50.088   8.339  13.176  0.00  0.00    +0.000 A 
ATOM      3  N   UNL     1      50.617   9.251  14.026  0.00  0.00    +0.000 NA
ATOM      4  C   UNL     1      49.813   9.626  15.056  0.00  0.00    +0.000 A 
ATOM      5  C   UNL     1      48.541   9.092  15.218  0.00  0.00    +0.000 A 
ATOM      6  N   UNL     1      48.022   8.177  14.374  0.00  0.00    +0.000 NA
ENDROOT
BRANCH   4   7
ATOM      7  C   UNL     1      50.315  10.683  16.011  0.00  0.00    +0.000 C 
BRANCH   7   8
ATOM      8  N   UNL     1      49.624  10.709  17.306  0.00  0.00    +0.000 NA
ATOM      9  H   UNL     1      48.814  10.088  17.231  0.00  0.00    +0.000 HD
BRANCH   8  10
ATOM     10  C   UNL     1      50.466  10.191  18.397  0.00  0.00    +0.000 C 
BRANCH  10  11
ATOM     11  C   UNL     1      50.260   8.704  18.596  0.00  0.00    +0.000 A 
ATOM     12  C   UNL     1      51.360   7.858  18.722  0.00  0.00    +0.000 A 
ATOM     13  C   UNL     1      51.145   6.502  18.954  0.00  0.00    +0.000 A 
ATOM     14  C   UNL     1      49.839   6.017  19.053  0.00  0.00    +0.000 A 
ATOM     15  C   UNL     1      48.805   6.934  18.901  0.00  0.00    +0.000 A 
ATOM     16  N   UNL     1      48.985   8.254  18.676  0.00  0.00    +0.000 NA
BRANCH  14  17
ATOM     17  C   UNL     1      49.547   4.565  19.282  0.00  0.00    +0.000 C 
BRANCH  17  18
ATOM     18  O   UNL     1      48.260   4.244  18.752  0.00  0.00    +0.000 OA
BRANCH  18  19
ATOM     19  C   UNL     1      48.356   3.117  17.872  0.00  0.00    +0.000 C 
BRANCH  19  20
ATOM     20  C   UNL     1      47.871   3.526  16.525  0.00  0.00    +0.000 A 
ATOM     21  N   UNL     1      47.858   2.786  15.434  0.00  0.00    +0.000 NA
ATOM     22  C   UNL     1      47.330   3.583  14.451  0.00  0.00    +0.000 A 
ATOM     23  C   UNL     1      47.017   4.824  14.947  0.00  0.00    +0.000 A 
ATOM     24  N   UNL     1      47.369   4.777  16.265  0.00  0.00    +0.000 N 
ATOM     25  H   UNL     1      47.290   5.513  16.957  0.00  0.00    +0.000 HD
ENDBRANCH  19  20
ENDBRANCH  18  19
ENDBRANCH  17  18
ENDBRANCH  14  17
ENDBRANCH  10  11
ENDBRANCH   8  10
ENDBRANCH   7   8
ENDBRANCH   4   7
BRANCH   1  26
ATOM     26  C   UNL     1      48.284   6.762  12.381  0.00  0.00    +0.000 C 
BRANCH  26  27
ATOM     27  N   UNL     1      47.337   7.296  11.389  0.00  0.00    +0.000 NA
ATOM     28  H   UNL     1      47.556   6.884  10.481  0.00  0.00    +0.000 HD
BRANCH  27  29
ATOM     29  C   UNL     1      45.933   7.013  11.710  0.00  0.00    +0.000 C 
BRANCH  29  30
ATOM     30  C   UNL     1      45.528   5.791  10.889  0.00  0.00    +0.000 A 
ATOM     31  C   UNL     1      45.888   5.573   9.566  0.00  0.00    +0.000 A 
ATOM     32  S   UNL     1      45.229   4.146   8.899  0.00  0.00    +0.000 S 
ATOM     33  C   UNL     1      44.488   3.730  10.371  0.00  0.00    +0.000 A 
ATOM     34  N   UNL     1      43.774   2.578  10.495  0.00  0.00    +0.000 NA
ATOM     35  C   UNL     1      43.298   2.372  11.677  0.00  0.00    +0.000 A 
ATOM     36  N   UNL     1      43.456   3.229  12.741  0.00  0.00    +0.000 N 
ATOM     37  C   UNL     1      44.121   4.432  12.651  0.00  0.00    +0.000 A 
ATOM     38  O   UNL     1      44.181   5.203  13.603  0.00  0.00    +0.000 OA
ATOM     39  C   UNL     1      44.713   4.684  11.349  0.00  0.00    +0.000 A 
ATOM     40  H   UNL     1      43.045   3.011  13.638  0.00  0.00    +0.000 HD
ENDBRANCH  29  30
BRANCH  29  41
ATOM     41  C   UNL     1      45.016   8.237  11.457  0.00  0.00    +0.000 C 
BRANCH  41  42
ATOM     42  C   UNL     1      45.265   9.361  12.461  0.00  0.00    +0.000 C 
BRANCH  42  43
ATOM     43  C   UNL     1      45.963  10.545  11.799  0.00  0.00    +0.000 C 
BRANCH  43  44
ATOM     44  N   UNL     1      47.128  10.919  12.591  0.00  0.00    +0.000 NA
ATOM     45  H   UNL     1      46.897  10.875  13.579  0.00  0.00    +0.000 HD
ATOM     46  H   UNL     1      47.382  11.886  12.392  0.00  0.00    +0.000 HD
ENDBRANCH  43  44
ENDBRANCH  42  43
ENDBRANCH  41  42
ENDBRANCH  29  41
ENDBRANCH  27  29
ENDBRANCH  26  27
ENDBRANCH   1  26
TORSDOF 16
ENDMDL
MODEL 8
REMARK VINA RESULT:    -5.653      5.210      7.238
REMARK INTER + INTRA:         -13.006
REMARK INTER:                 -11.496
REMARK INTRA:                  -1.510
REMARK UNBOUND:                -2.230
REMARK  Name = 
REMARK  16 active torsions:
REMARK  status: ('A' for Active; 'I' for Inactive)
REMARK    1  A    between atoms: N_1  and  C_2
REMARK    2  A    between atoms: C_2  and  C_3
REMARK    3  A    between atoms: C_3  and  C_4
REMARK    4  A    between atoms: C_4  and  C_5
REMARK    5  A    between atoms: C_5  and  N_6
REMARK    6  A    between atoms: C_5  and  C_31
REMARK    7  A    between atoms: N_6  and  C_7
REMARK    8  A    between atoms: C_7  and  C_8
REMARK    9  A    between atoms: C_11  and  C_12
REMARK   10  A    between atoms: C_12  and  N_13
REMARK   11  A    between atoms: N_13  and  C_14
REMARK   12  A    between atoms: C_14  and  C_15
REMARK   13  A    between atoms: C_18  and  C_19
REMARK   14  A    between atoms: C_19  and  O_20
REMARK   15  A    between atoms: O_20  and  C_21
REMARK   16  A    between atoms: C_21  and  C_22
REMARK                            x       y       z     vdW  Elec       q    Type
REMARK                         _______ _______ _______ _____ _____    ______ ____
ROOT
ATOM      1  C   UNL     1      51.156   9.452  11.686  0.00  0.00    +0.000 A 
ATOM      2  C   UNL     1      51.197   9.118  13.036  0.00  0.00    +0.000 A 
ATOM      3  N   UNL     1      50.085   8.887  13.772  0.00  0.00    +0.000 NA
ATOM      4  C   UNL     1      48.906   9.000  13.104  0.00  0.00    +0.000 A 
ATOM      5  C   UNL     1      48.864   9.322  11.753  0.00  0.00    +0.000 A 
ATOM      6  N   UNL     1      49.975   9.542  11.021  0.00  0.00    +0.000 NA
ENDROOT
BRANCH   4   7
ATOM      7  C   UNL     1      47.622   8.813  13.876  0.00  0.00    +0.000 C 
BRANCH   7   8
ATOM      8  N   UNL     1      47.493   7.507  14.533  0.00  0.00    +0.000 NA
ATOM      9  H   UNL     1      46.494   7.336  14.676  0.00  0.00    +0.000 HD
BRANCH   8  10
ATOM     10  C   UNL     1      48.001   6.409  13.694  0.00  0.00    +0.000 C 
BRANCH  10  11
ATOM     11  C   UNL     1      46.889   5.761  12.895  0.00  0.00    +0.000 A 
ATOM     12  C   UNL     1      46.533   6.275  11.650  0.00  0.00    +0.000 A 
ATOM     13  C   UNL     1      45.541   5.632  10.914  0.00  0.00    +0.000 A 
ATOM     14  C   UNL     1      44.923   4.494  11.434  0.00  0.00    +0.000 A 
ATOM     15  C   UNL     1      45.335   4.062  12.690  0.00  0.00    +0.000 A 
ATOM     16  N   UNL     1      46.294   4.666  13.426  0.00  0.00    +0.000 NA
BRANCH  14  17
ATOM     17  C   UNL     1      43.837   3.772  10.696  0.00  0.00    +0.000 C 
BRANCH  17  18
ATOM     18  O   UNL     1      44.249   3.530   9.350  0.00  0.00    +0.000 OA
BRANCH  18  19
ATOM     19  C   UNL     1      44.590   2.149   9.179  0.00  0.00    +0.000 C 
BRANCH  19  20
ATOM     20  C   UNL     1      45.790   2.062   8.302  0.00  0.00    +0.000 A 
ATOM     21  N   UNL     1      46.500   0.982   8.043  0.00  0.00    +0.000 NA
ATOM     22  C   UNL     1      47.498   1.388   7.196  0.00  0.00    +0.000 A 
ATOM     23  C   UNL     1      47.397   2.732   6.934  0.00  0.00    +0.000 A 
ATOM     24  N   UNL     1      46.310   3.150   7.647  0.00  0.00    +0.000 N 
ATOM     25  H   UNL     1      45.927   4.086   7.705  0.00  0.00    +0.000 HD
ENDBRANCH  19  20
ENDBRANCH  18  19
ENDBRANCH  17  18
ENDBRANCH  14  17
ENDBRANCH  10  11
ENDBRANCH   8  10
ENDBRANCH   7   8
ENDBRANCH   4   7
BRANCH   1  26
ATOM     26  C   UNL     1      52.427   9.652  10.896  0.00  0.00    +0.000 C 
BRANCH  26  27
ATOM     27  N   UNL     1      53.082   8.390  10.517  0.00  0.00    +0.000 NA
ATOM     28  H   UNL     1      52.539   7.958   9.769  0.00  0.00    +0.000 HD
BRANCH  27  29
ATOM     29  C   UNL     1      54.465   8.564  10.057  0.00  0.00    +0.000 C 
BRANCH  29  30
ATOM     30  C   UNL     1      54.499   8.148   8.588  0.00  0.00    +0.000 A 
ATOM     31  C   UNL     1      54.868   8.980   7.539  0.00  0.00    +0.000 A 
ATOM     32  S   UNL     1      54.743   8.247   6.002  0.00  0.00    +0.000 S 
ATOM     33  C   UNL     1      54.251   6.768   6.682  0.00  0.00    +0.000 A 
ATOM     34  N   UNL     1      54.003   5.685   5.898  0.00  0.00    +0.000 NA
ATOM     35  C   UNL     1      53.673   4.621   6.548  0.00  0.00    +0.000 A 
ATOM     36  N   UNL     1      53.548   4.551   7.917  0.00  0.00    +0.000 N 
ATOM     37  C   UNL     1      53.734   5.634   8.749  0.00  0.00    +0.000 A 
ATOM     38  O   UNL     1      53.545   5.552   9.958  0.00  0.00    +0.000 OA
ATOM     39  C   UNL     1      54.151   6.843   8.061  0.00  0.00    +0.000 A 
ATOM     40  H   UNL     1      53.274   3.687   8.362  0.00  0.00    +0.000 HD
ENDBRANCH  29  30
BRANCH  29  41
ATOM     41  C   UNL     1      55.476   7.776  10.928  0.00  0.00    +0.000 C 
BRANCH  41  42
ATOM     42  C   UNL     1      55.258   8.012  12.421  0.00  0.00    +0.000 C 
BRANCH  42  43
ATOM     43  C   UNL     1      55.428   6.719  13.212  0.00  0.00    +0.000 C 
BRANCH  43  44
ATOM     44  N   UNL     1      55.046   5.590  12.373  0.00  0.00    +0.000 NA
ATOM     45  H   UNL     1      54.232   5.837  11.818  0.00  0.00    +0.000 HD
ATOM     46  H   UNL     1      54.772   4.803  12.961  0.00  0.00    +0.000 HD
ENDBRANCH  43  44
ENDBRANCH  42  43
ENDBRANCH  41  42
ENDBRANCH  29  41
ENDBRANCH  27  29
ENDBRANCH  26  27
ENDBRANCH   1  26
TORSDOF 16
ENDMDL
MODEL 9
REMARK VINA RESULT:    -5.583      3.235      9.332
REMARK INTER + INTRA:         -12.872
REMARK INTER:                 -11.006
REMARK INTRA:                  -1.867
REMARK UNBOUND:                -2.230
REMARK  Name = 
REMARK  16 active torsions:
REMARK  status: ('A' for Active; 'I' for Inactive)
REMARK    1  A    between atoms: N_1  and  C_2
REMARK    2  A    between atoms: C_2  and  C_3
REMARK    3  A    between atoms: C_3  and  C_4
REMARK    4  A    between atoms: C_4  and  C_5
REMARK    5  A    between atoms: C_5  and  N_6
REMARK    6  A    between atoms: C_5  and  C_31
REMARK    7  A    between atoms: N_6  and  C_7
REMARK    8  A    between atoms: C_7  and  C_8
REMARK    9  A    between atoms: C_11  and  C_12
REMARK   10  A    between atoms: C_12  and  N_13
REMARK   11  A    between atoms: N_13  and  C_14
REMARK   12  A    between atoms: C_14  and  C_15
REMARK   13  A    between atoms: C_18  and  C_19
REMARK   14  A    between atoms: C_19  and  O_20
REMARK   15  A    between atoms: O_20  and  C_21
REMARK   16  A    between atoms: C_21  and  C_22
REMARK                            x       y       z     vdW  Elec       q    Type
REMARK                         _______ _______ _______ _____ _____    ______ ____
ROOT
ATOM      1  C   UNL     1      48.631   7.042  13.218  0.00  0.00    +0.000 A 
ATOM      2  C   UNL     1      48.684   7.750  14.413  0.00  0.00    +0.000 A 
ATOM      3  N   UNL     1      49.643   8.665  14.686  0.00  0.00    +0.000 NA
ATOM      4  C   UNL     1      50.565   8.857  13.705  0.00  0.00    +0.000 A 
ATOM      5  C   UNL     1      50.506   8.159  12.505  0.00  0.00    +0.000 A 
ATOM      6  N   UNL     1      49.543   7.254  12.235  0.00  0.00    +0.000 NA
ENDROOT
BRANCH   4   7
ATOM      7  C   UNL     1      51.698   9.821  13.962  0.00  0.00    +0.000 C 
BRANCH   7   8
ATOM      8  N   UNL     1      52.096   9.929  15.371  0.00  0.00    +0.000 NA
ATOM      9  H   UNL     1      51.257   9.772  15.937  0.00  0.00    +0.000 HD
BRANCH   8  10
ATOM     10  C   UNL     1      53.073   8.897  15.755  0.00  0.00    +0.000 C 
BRANCH  10  11
ATOM     11  C   UNL     1      52.490   7.930  16.765  0.00  0.00    +0.000 A 
ATOM     12  C   UNL     1      52.153   6.635  16.378  0.00  0.00    +0.000 A 
ATOM     13  C   UNL     1      51.665   5.750  17.335  0.00  0.00    +0.000 A 
ATOM     14  C   UNL     1      51.520   6.175  18.658  0.00  0.00    +0.000 A 
ATOM     15  C   UNL     1      51.870   7.489  18.948  0.00  0.00    +0.000 A 
ATOM     16  N   UNL     1      52.346   8.368  18.039  0.00  0.00    +0.000 NA
BRANCH  14  17
ATOM     17  C   UNL     1      50.982   5.272  19.727  0.00  0.00    +0.000 C 
BRANCH  17  18
ATOM     18  O   UNL     1      49.611   5.586  19.976  0.00  0.00    +0.000 OA
BRANCH  18  19
ATOM     19  C   UNL     1      48.842   4.383  20.088  0.00  0.00    +0.000 C 
BRANCH  19  20
ATOM     20  C   UNL     1      48.355   4.003  18.734  0.00  0.00    +0.000 A 
ATOM     21  N   UNL     1      48.858   3.072  17.948  0.00  0.00    +0.000 NA
ATOM     22  C   UNL     1      48.087   3.086  16.815  0.00  0.00    +0.000 A 
ATOM     23  C   UNL     1      47.101   4.037  16.909  0.00  0.00    +0.000 A 
ATOM     24  N   UNL     1      47.284   4.616  18.132  0.00  0.00    +0.000 N 
ATOM     25  H   UNL     1      46.747   5.365  18.552  0.00  0.00    +0.000 HD
ENDBRANCH  19  20
ENDBRANCH  18  19
ENDBRANCH  17  18
ENDBRANCH  14  17
ENDBRANCH  10  11
ENDBRANCH   8  10
ENDBRANCH   7   8
ENDBRANCH   4   7
BRANCH   1  26
ATOM     26  C   UNL     1      47.512   6.065  12.942  0.00  0.00    +0.000 C 
BRANCH  26  27
ATOM     27  N   UNL     1      46.696   6.430  11.773  0.00  0.00    +0.000 NA
ATOM     28  H   UNL     1      46.851   5.735  11.043  0.00  0.00    +0.000 HD
BRANCH  27  29
ATOM     29  C   UNL     1      45.258   6.500  12.062  0.00  0.00    +0.000 C 
BRANCH  29  30
ATOM     30  C   UNL     1      44.684   5.112  11.788  0.00  0.00    +0.000 A 
ATOM     31  C   UNL     1      43.945   4.368  12.699  0.00  0.00    +0.000 A 
ATOM     32  S   UNL     1      43.495   2.825  12.124  0.00  0.00    +0.000 S 
ATOM     33  C   UNL     1      44.214   3.113  10.611  0.00  0.00    +0.000 A 
ATOM     34  N   UNL     1      44.160   2.183   9.621  0.00  0.00    +0.000 NA
ATOM     35  C   UNL     1      44.716   2.549   8.515  0.00  0.00    +0.000 A 
ATOM     36  N   UNL     1      45.341   3.759   8.320  0.00  0.00    +0.000 N 
ATOM     37  C   UNL     1      45.471   4.710   9.308  0.00  0.00    +0.000 A 
ATOM     38  O   UNL     1      46.096   5.748   9.119  0.00  0.00    +0.000 OA
ATOM     39  C   UNL     1      44.819   4.358  10.557  0.00  0.00    +0.000 A 
ATOM     40  H   UNL     1      45.767   3.976   7.431  0.00  0.00    +0.000 HD
ENDBRANCH  29  30
BRANCH  29  41
ATOM     41  C   UNL     1      44.551   7.614  11.250  0.00  0.00    +0.000 C 
BRANCH  41  42
ATOM     42  C   UNL     1      44.933   9.011  11.733  0.00  0.00    +0.000 C 
BRANCH  42  43
ATOM     43  C   UNL     1      43.886  10.041  11.318  0.00  0.00    +0.000 C 
BRANCH  43  44
ATOM     44  N   UNL     1      42.759   9.356  10.699  0.00  0.00    +0.000 NA
ATOM     45  H   UNL     1      41.896   9.640  11.153  0.00  0.00    +0.000 HD
ATOM     46  H   UNL     1      42.848   8.350  10.843  0.00  0.00    +0.000 HD
ENDBRANCH  43  44
ENDBRANCH  42  43
ENDBRANCH  41  42
ENDBRANCH  29  41
ENDBRANCH  27  29
ENDBRANCH  26  27
ENDBRANCH   1  26
TORSDOF 16
ENDMDL
