MODEL 1
REMARK VINA RESULT:    -8.767      0.000      0.000
REMARK INTER + INTRA:         -13.428
REMARK INTER:                 -12.354
REMARK INTRA:                  -1.073
REMARK UNBOUND:                -1.073
REMARK  Name = 
REMARK  7 active torsions:
REMARK  status: ('A' for Active; 'I' for Inactive)
REMARK    1  A    between atoms: C_2  and  C_4
REMARK    2  A    between atoms: C_7  and  O_8
REMARK    3  A    between atoms: O_8  and  C_9
REMARK    4  A    between atoms: C_9  and  C_10
REMARK    5  A    between atoms: C_10  and  C_13
REMARK    6  A    between atoms: C_17  and  O_18
REMARK    7  A    between atoms: O_18  and  C_19
REMARK                            x       y       z     vdW  Elec       q    Type
REMARK                         _______ _______ _______ _____ _____    ______ ____
ROOT
ATOM      1  C   UNL     1      43.845   4.614  12.495  0.00  0.00    +0.000 C 
ATOM      2  F   UNL     1      42.938   5.301  13.254  0.00  0.00    +0.000 F 
ATOM      3  F   UNL     1      43.767   3.317  12.921  0.00  0.00    +0.000 F 
ENDROOT
BRANCH   1   4
ATOM      4  C   UNL     1      45.246   5.176  12.658  0.00  0.00    +0.000 A 
ATOM      5  C   UNL     1      45.771   6.068  11.715  0.00  0.00    +0.000 A 
ATOM      6  C   UNL     1      47.045   6.614  11.897  0.00  0.00    +0.000 A 
ATOM      7  C   UNL     1      47.812   6.271  13.016  0.00  0.00    +0.000 A 
ATOM      8  C   UNL     1      47.311   5.363  13.945  0.00  0.00    +0.000 A 
ATOM      9  C   UNL     1      46.033   4.824  13.767  0.00  0.00    +0.000 A 
BRANCH   8  10
ATOM     10  O   UNL     1      47.951   4.962  15.091  0.00  0.00    +0.000 OA
BRANCH  10  11
ATOM     11  C   UNL     1      47.300   4.024  15.980  0.00  0.00    +0.000 C 
ATOM     12  C   UNL     1      47.149   4.413  17.455  0.00  0.00    +0.000 C 
ATOM     13  O   UNL     1      47.911   3.267  17.897  0.00  0.00    +0.000 OA
ATOM     14  C   UNL     1      48.205   2.907  16.528  0.00  0.00    +0.000 C 
ENDBRANCH  10  11
ENDBRANCH   8  10
ENDBRANCH   1   4
BRANCH   1  15
ATOM     15  C   UNL     1      43.392   4.675  11.026  0.00  0.00    +0.000 C 
BRANCH  15  16
ATOM     16  O   UNL     1      43.502   3.379  10.413  0.00  0.00    +0.000 OA
BRANCH  16  20
ATOM     17  C   UNL     1      46.414   2.605   7.623  0.00  0.00    +0.000 A 
ATOM     18  C   UNL     1      45.986   3.922   7.726  0.00  0.00    +0.000 A 
ATOM     19  C   UNL     1      44.996   4.233   8.658  0.00  0.00    +0.000 A 
ATOM     20  C   UNL     1      44.466   3.226   9.458  0.00  0.00    +0.000 A 
ATOM     21  C   UNL     1      44.957   1.933   9.275  0.00  0.00    +0.000 A 
ATOM     22  N   UNL     1      45.916   1.588   8.376  0.00  0.00    +0.000 NA
BRANCH  17  24
ATOM     23  N   UNL     1      47.481   2.989   5.472  0.00  0.00    +0.000 N 
ATOM     24  C   UNL     1      47.485   2.262   6.634  0.00  0.00    +0.000 C 
ATOM     25  O   UNL     1      48.323   1.398   6.845  0.00  0.00    +0.000 OA
ATOM     26  H   UNL     1      48.209   2.830   4.793  0.00  0.00    +0.000 HD
ATOM     27  H   UNL     1      46.820   3.749   5.356  0.00  0.00    +0.000 HD
ENDBRANCH  17  24
ENDBRANCH  16  20
ENDBRANCH  15  16
ENDBRANCH   1  15
TORSDOF 7
ENDMDL
MODEL 2
REMARK VINA RESULT:    -7.982      1.430      1.726
REMARK INTER + INTRA:         -12.321
REMARK INTER:                 -11.350
REMARK INTRA:                  -0.971
REMARK UNBOUND:                -1.073
REMARK  Name = 
REMARK  7 active torsions:
REMARK  status: ('A' for Active; 'I' for Inactive)
REMARK    1  A    between atoms: C_2  and  C_4
REMARK    2  A    between atoms: C_7  and  O_8
REMARK    3  A    between atoms: O_8  and  C_9
REMARK    4  A    between atoms: C_9  and  C_10
REMARK    5  A    between atoms: C_10  and  C_13
REMARK    6  A    between atoms: C_17  and  O_18
REMARK    7  A    between atoms: O_18  and  C_19
REMARK                            x       y       z     vdW  Elec       q    Type
REMARK                         _______ _______ _______ _____ _____    ______ ____
ROOT
ATOM      1  C   UNL     1      44.313   4.122  12.422  0.00  0.00    +0.000 C 
ATOM      2  F   UNL     1      43.484   4.164  13.509  0.00  0.00    +0.000 F 
ATOM      3  F   UNL     1      44.960   2.921  12.505  0.00  0.00    +0.000 F 
ENDROOT
BRANCH   1   4
ATOM      4  C   UNL     1      45.287   5.287  12.420  0.00  0.00    +0.000 A 
ATOM      5  C   UNL     1      44.967   6.484  11.769  0.00  0.00    +0.000 A 
ATOM      6  C   UNL     1      45.852   7.565  11.810  0.00  0.00    +0.000 A 
ATOM      7  C   UNL     1      47.068   7.462  12.494  0.00  0.00    +0.000 A 
ATOM      8  C   UNL     1      47.410   6.267  13.121  0.00  0.00    +0.000 A 
ATOM      9  C   UNL     1      46.519   5.188  13.087  0.00  0.00    +0.000 A 
BRANCH   8  10
ATOM     10  O   UNL     1      48.558   6.044  13.839  0.00  0.00    +0.000 OA
BRANCH  10  11
ATOM     11  C   UNL     1      48.816   6.825  15.030  0.00  0.00    +0.000 C 
ATOM     12  C   UNL     1      50.276   7.075  15.426  0.00  0.00    +0.000 C 
ATOM     13  O   UNL     1      50.102   6.426  16.706  0.00  0.00    +0.000 OA
ATOM     14  C   UNL     1      48.755   6.040  16.351  0.00  0.00    +0.000 C 
ENDBRANCH  10  11
ENDBRANCH   8  10
ENDBRANCH   1   4
BRANCH   1  15
ATOM     15  C   UNL     1      43.445   4.124  11.151  0.00  0.00    +0.000 C 
BRANCH  15  16
ATOM     16  O   UNL     1      43.624   2.898  10.421  0.00  0.00    +0.000 OA
BRANCH  16  20
ATOM     17  C   UNL     1      46.479   2.592   7.486  0.00  0.00    +0.000 A 
ATOM     18  C   UNL     1      45.940   3.855   7.700  0.00  0.00    +0.000 A 
ATOM     19  C   UNL     1      44.964   4.007   8.684  0.00  0.00    +0.000 A 
ATOM     20  C   UNL     1      44.558   2.902   9.426  0.00  0.00    +0.000 A 
ATOM     21  C   UNL     1      45.154   1.676   9.131  0.00  0.00    +0.000 A 
ATOM     22  N   UNL     1      46.103   1.484   8.177  0.00  0.00    +0.000 NA
BRANCH  17  24
ATOM     23  N   UNL     1      47.431   3.235   5.343  0.00  0.00    +0.000 N 
ATOM     24  C   UNL     1      47.536   2.420   6.438  0.00  0.00    +0.000 C 
ATOM     25  O   UNL     1      48.446   1.611   6.551  0.00  0.00    +0.000 OA
ATOM     26  H   UNL     1      48.144   3.192   4.631  0.00  0.00    +0.000 HD
ATOM     27  H   UNL     1      46.709   3.946   5.311  0.00  0.00    +0.000 HD
ENDBRANCH  17  24
ENDBRANCH  16  20
ENDBRANCH  15  16
ENDBRANCH   1  15
TORSDOF 7
ENDMDL
MODEL 3
REMARK VINA RESULT:    -7.778      2.224      3.740
REMARK INTER + INTRA:         -12.035
REMARK INTER:                 -11.151
REMARK INTRA:                  -0.884
REMARK UNBOUND:                -1.073
REMARK  Name = 
REMARK  7 active torsions:
REMARK  status: ('A' for Active; 'I' for Inactive)
REMARK    1  A    between atoms: C_2  and  C_4
REMARK    2  A    between atoms: C_7  and  O_8
REMARK    3  A    between atoms: O_8  and  C_9
REMARK    4  A    between atoms: C_9  and  C_10
REMARK    5  A    between atoms: C_10  and  C_13
REMARK    6  A    between atoms: C_17  and  O_18
REMARK    7  A    between atoms: O_18  and  C_19
REMARK                            x       y       z     vdW  Elec       q    Type
REMARK                         _______ _______ _______ _____ _____    ______ ____
ROOT
ATOM      1  C   UNL     1      43.862   4.565  12.473  0.00  0.00    +0.000 C 
ATOM      2  F   UNL     1      42.831   4.973  13.273  0.00  0.00    +0.000 F 
ATOM      3  F   UNL     1      43.924   3.208  12.624  0.00  0.00    +0.000 F 
ENDROOT
BRANCH   1   4
ATOM      4  C   UNL     1      45.168   5.235  12.863  0.00  0.00    +0.000 A 
ATOM      5  C   UNL     1      46.034   4.629  13.781  0.00  0.00    +0.000 A 
ATOM      6  C   UNL     1      47.253   5.232  14.101  0.00  0.00    +0.000 A 
ATOM      7  C   UNL     1      47.619   6.449  13.515  0.00  0.00    +0.000 A 
ATOM      8  C   UNL     1      46.753   7.074  12.622  0.00  0.00    +0.000 A 
ATOM      9  C   UNL     1      45.537   6.465  12.296  0.00  0.00    +0.000 A 
BRANCH   8  10
ATOM     10  O   UNL     1      47.001   8.253  11.965  0.00  0.00    +0.000 OA
BRANCH  10  11
ATOM     11  C   UNL     1      46.447   9.487  12.482  0.00  0.00    +0.000 C 
ATOM     12  C   UNL     1      45.059   9.916  11.991  0.00  0.00    +0.000 C 
ATOM     13  O   UNL     1      45.568  11.157  11.453  0.00  0.00    +0.000 OA
ATOM     14  C   UNL     1      46.922  10.765  11.769  0.00  0.00    +0.000 C 
ENDBRANCH  10  11
ENDBRANCH   8  10
ENDBRANCH   1   4
BRANCH   1  15
ATOM     15  C   UNL     1      43.494   4.878  11.012  0.00  0.00    +0.000 C 
BRANCH  15  16
ATOM     16  O   UNL     1      43.398   3.664  10.248  0.00  0.00    +0.000 OA
BRANCH  16  20
ATOM     17  C   UNL     1      46.479   2.517   7.787  0.00  0.00    +0.000 A 
ATOM     18  C   UNL     1      46.145   3.865   7.779  0.00  0.00    +0.000 A 
ATOM     19  C   UNL     1      45.103   4.302   8.596  0.00  0.00    +0.000 A 
ATOM     20  C   UNL     1      44.428   3.385   9.397  0.00  0.00    +0.000 A 
ATOM     21  C   UNL     1      44.833   2.052   9.330  0.00  0.00    +0.000 A 
ATOM     22  N   UNL     1      45.839   1.585   8.544  0.00  0.00    +0.000 NA
BRANCH  17  24
ATOM     23  N   UNL     1      48.156   2.976   6.088  0.00  0.00    +0.000 N 
ATOM     24  C   UNL     1      47.604   2.039   6.922  0.00  0.00    +0.000 C 
ATOM     25  O   UNL     1      48.019   0.890   6.958  0.00  0.00    +0.000 OA
ATOM     26  H   UNL     1      48.948   2.717   5.519  0.00  0.00    +0.000 HD
ATOM     27  H   UNL     1      47.841   3.938   6.132  0.00  0.00    +0.000 HD
ENDBRANCH  17  24
ENDBRANCH  16  20
ENDBRANCH  15  16
ENDBRANCH   1  15
TORSDOF 7
ENDMDL
MODEL 4
REMARK VINA RESULT:    -7.591      2.082      3.550
REMARK INTER + INTRA:         -11.770
REMARK INTER:                 -10.841
REMARK INTRA:                  -0.929
REMARK UNBOUND:                -1.073
REMARK  Name = 
REMARK  7 active torsions:
REMARK  status: ('A' for Active; 'I' for Inactive)
REMARK    1  A    between atoms: C_2  and  C_4
REMARK    2  A    between atoms: C_7  and  O_8
REMARK    3  A    between atoms: O_8  and  C_9
REMARK    4  A    between atoms: C_9  and  C_10
REMARK    5  A    between atoms: C_10  and  C_13
REMARK    6  A    between atoms: C_17  and  O_18
REMARK    7  A    between atoms: O_18  and  C_19
REMARK                            x       y       z     vdW  Elec       q    Type
REMARK                         _______ _______ _______ _____ _____    ______ ____
ROOT
ATOM      1  C   UNL     1      44.118   4.499  12.478  0.00  0.00    +0.000 C 
ATOM      2  F   UNL     1      43.091   4.883  13.295  0.00  0.00    +0.000 F 
ATOM      3  F   UNL     1      44.124   3.133  12.519  0.00  0.00    +0.000 F 
ENDROOT
BRANCH   1   4
ATOM      4  C   UNL     1      45.443   5.081  12.938  0.00  0.00    +0.000 A 
ATOM      5  C   UNL     1      46.067   4.606  14.097  0.00  0.00    +0.000 A 
ATOM      6  C   UNL     1      47.307   5.118  14.488  0.00  0.00    +0.000 A 
ATOM      7  C   UNL     1      47.935   6.115  13.732  0.00  0.00    +0.000 A 
ATOM      8  C   UNL     1      47.310   6.615  12.593  0.00  0.00    +0.000 A 
ATOM      9  C   UNL     1      46.073   6.095  12.198  0.00  0.00    +0.000 A 
BRANCH   8  10
ATOM     10  O   UNL     1      47.827   7.572  11.757  0.00  0.00    +0.000 OA
BRANCH  10  11
ATOM     11  C   UNL     1      48.994   8.323  12.169  0.00  0.00    +0.000 C 
ATOM     12  C   UNL     1      49.285   9.651  11.460  0.00  0.00    +0.000 C 
ATOM     13  O   UNL     1      50.575   9.191  10.999  0.00  0.00    +0.000 OA
ATOM     14  C   UNL     1      50.319   7.872  11.530  0.00  0.00    +0.000 C 
ENDBRANCH  10  11
ENDBRANCH   8  10
ENDBRANCH   1   4
BRANCH   1  15
ATOM     15  C   UNL     1      43.786   4.945  11.043  0.00  0.00    +0.000 C 
BRANCH  15  16
ATOM     16  O   UNL     1      43.475   3.805  10.224  0.00  0.00    +0.000 OA
BRANCH  16  20
ATOM     17  C   UNL     1      46.432   2.775   7.566  0.00  0.00    +0.000 A 
ATOM     18  C   UNL     1      45.954   1.762   8.389  0.00  0.00    +0.000 A 
ATOM     19  C   UNL     1      44.952   2.065   9.310  0.00  0.00    +0.000 A 
ATOM     20  C   UNL     1      44.455   3.363   9.382  0.00  0.00    +0.000 A 
ATOM     21  C   UNL     1      45.003   4.311   8.518  0.00  0.00    +0.000 A 
ATOM     22  N   UNL     1      45.984   4.059   7.611  0.00  0.00    +0.000 NA
BRANCH  17  24
ATOM     23  N   UNL     1      47.455   3.170   5.397  0.00  0.00    +0.000 N 
ATOM     24  C   UNL     1      47.500   2.458   6.566  0.00  0.00    +0.000 C 
ATOM     25  O   UNL     1      48.371   1.626   6.776  0.00  0.00    +0.000 OA
ATOM     26  H   UNL     1      48.180   3.029   4.710  0.00  0.00    +0.000 HD
ATOM     27  H   UNL     1      46.767   3.906   5.280  0.00  0.00    +0.000 HD
ENDBRANCH  17  24
ENDBRANCH  16  20
ENDBRANCH  15  16
ENDBRANCH   1  15
TORSDOF 7
ENDMDL
MODEL 5
REMARK VINA RESULT:    -7.141      3.175      7.810
REMARK INTER + INTRA:         -11.137
REMARK INTER:                 -10.491
REMARK INTRA:                  -0.646
REMARK UNBOUND:                -1.073
REMARK  Name = 
REMARK  7 active torsions:
REMARK  status: ('A' for Active; 'I' for Inactive)
REMARK    1  A    between atoms: C_2  and  C_4
REMARK    2  A    between atoms: C_7  and  O_8
REMARK    3  A    between atoms: O_8  and  C_9
REMARK    4  A    between atoms: C_9  and  C_10
REMARK    5  A    between atoms: C_10  and  C_13
REMARK    6  A    between atoms: C_17  and  O_18
REMARK    7  A    between atoms: O_18  and  C_19
REMARK                            x       y       z     vdW  Elec       q    Type
REMARK                         _______ _______ _______ _____ _____    ______ ____
ROOT
ATOM      1  C   UNL     1      45.641   6.334  11.327  0.00  0.00    +0.000 C 
ATOM      2  F   UNL     1      44.753   7.348  11.095  0.00  0.00    +0.000 F 
ATOM      3  F   UNL     1      46.852   6.809  10.910  0.00  0.00    +0.000 F 
ENDROOT
BRANCH   1   4
ATOM      4  C   UNL     1      45.246   5.069  10.584  0.00  0.00    +0.000 A 
ATOM      5  C   UNL     1      44.496   4.073  11.220  0.00  0.00    +0.000 A 
ATOM      6  C   UNL     1      44.101   2.933  10.515  0.00  0.00    +0.000 A 
ATOM      7  C   UNL     1      44.456   2.769   9.171  0.00  0.00    +0.000 A 
ATOM      8  C   UNL     1      45.226   3.740   8.537  0.00  0.00    +0.000 A 
ATOM      9  C   UNL     1      45.614   4.885   9.241  0.00  0.00    +0.000 A 
BRANCH   8  10
ATOM     10  O   UNL     1      45.622   3.710   7.223  0.00  0.00    +0.000 OA
BRANCH  10  11
ATOM     11  C   UNL     1      46.970   3.297   6.895  0.00  0.00    +0.000 C 
ATOM     12  C   UNL     1      47.249   2.814   5.466  0.00  0.00    +0.000 C 
ATOM     13  O   UNL     1      47.685   1.515   5.928  0.00  0.00    +0.000 OA
ATOM     14  C   UNL     1      47.324   1.853   7.286  0.00  0.00    +0.000 C 
ENDBRANCH  10  11
ENDBRANCH   8  10
ENDBRANCH   1   4
BRANCH   1  15
ATOM     15  C   UNL     1      45.708   6.086  12.844  0.00  0.00    +0.000 C 
BRANCH  15  16
ATOM     16  O   UNL     1      47.011   6.422  13.349  0.00  0.00    +0.000 OA
BRANCH  16  20
ATOM     17  C   UNL     1      48.197   4.028  16.467  0.00  0.00    +0.000 A 
ATOM     18  C   UNL     1      48.615   5.352  16.506  0.00  0.00    +0.000 A 
ATOM     19  C   UNL     1      48.240   6.203  15.467  0.00  0.00    +0.000 A 
ATOM     20  C   UNL     1      47.459   5.712  14.426  0.00  0.00    +0.000 A 
ATOM     21  C   UNL     1      47.096   4.366  14.474  0.00  0.00    +0.000 A 
ATOM     22  N   UNL     1      47.445   3.502  15.464  0.00  0.00    +0.000 NA
BRANCH  17  24
ATOM     23  N   UNL     1      47.809   3.173  18.710  0.00  0.00    +0.000 N 
ATOM     24  C   UNL     1      48.586   3.108  17.584  0.00  0.00    +0.000 C 
ATOM     25  O   UNL     1      49.529   2.335  17.500  0.00  0.00    +0.000 OA
ATOM     26  H   UNL     1      47.999   2.541  19.473  0.00  0.00    +0.000 HD
ATOM     27  H   UNL     1      46.989   3.770  18.724  0.00  0.00    +0.000 HD
ENDBRANCH  17  24
ENDBRANCH  16  20
ENDBRANCH  15  16
ENDBRANCH   1  15
TORSDOF 7
ENDMDL
MODEL 6
REMARK VINA RESULT:    -6.602      2.562      3.161
REMARK INTER + INTRA:         -10.377
REMARK INTER:                  -9.948
REMARK INTRA:                  -0.428
REMARK UNBOUND:                -1.073
REMARK  Name = 
REMARK  7 active torsions:
REMARK  status: ('A' for Active; 'I' for Inactive)
REMARK    1  A    between atoms: C_2  and  C_4
REMARK    2  A    between atoms: C_7  and  O_8
REMARK    3  A    between atoms: O_8  and  C_9
REMARK    4  A    between atoms: C_9  and  C_10
REMARK    5  A    between atoms: C_10  and  C_13
REMARK    6  A    between atoms: C_17  and  O_18
REMARK    7  A    between atoms: O_18  and  C_19
REMARK                            x       y       z     vdW  Elec       q    Type
REMARK                         _______ _______ _______ _____ _____    ______ ____
ROOT
ATOM      1  C   UNL     1      43.385   5.712  12.060  0.00  0.00    +0.000 C 
ATOM      2  F   UNL     1      42.268   6.164  11.413  0.00  0.00    +0.000 F 
ATOM      3  F   UNL     1      42.957   5.321  13.297  0.00  0.00    +0.000 F 
ENDROOT
BRANCH   1   4
ATOM      4  C   UNL     1      44.451   6.792  12.149  0.00  0.00    +0.000 A 
ATOM      5  C   UNL     1      44.306   7.997  11.451  0.00  0.00    +0.000 A 
ATOM      6  C   UNL     1      45.270   9.001  11.575  0.00  0.00    +0.000 A 
ATOM      7  C   UNL     1      46.393   8.811  12.388  0.00  0.00    +0.000 A 
ATOM      8  C   UNL     1      46.562   7.606  13.064  0.00  0.00    +0.000 A 
ATOM      9  C   UNL     1      45.591   6.605  12.947  0.00  0.00    +0.000 A 
BRANCH   8  10
ATOM     10  O   UNL     1      47.602   7.304  13.905  0.00  0.00    +0.000 OA
BRANCH  10  11
ATOM     11  C   UNL     1      48.955   7.295  13.391  0.00  0.00    +0.000 C 
ATOM     12  C   UNL     1      49.577   8.633  12.972  0.00  0.00    +0.000 C 
ATOM     13  O   UNL     1      49.775   8.183  11.613  0.00  0.00    +0.000 OA
ATOM     14  C   UNL     1      49.084   6.947  11.898  0.00  0.00    +0.000 C 
ENDBRANCH  10  11
ENDBRANCH   8  10
ENDBRANCH   1   4
BRANCH   1  15
ATOM     15  C   UNL     1      43.912   4.476  11.310  0.00  0.00    +0.000 C 
BRANCH  15  16
ATOM     16  O   UNL     1      44.040   4.759   9.906  0.00  0.00    +0.000 OA
BRANCH  16  20
ATOM     17  C   UNL     1      46.346   1.999   7.923  0.00  0.00    +0.000 A 
ATOM     18  C   UNL     1      46.345   3.291   7.412  0.00  0.00    +0.000 A 
ATOM     19  C   UNL     1      45.574   4.262   8.050  0.00  0.00    +0.000 A 
ATOM     20  C   UNL     1      44.832   3.919   9.176  0.00  0.00    +0.000 A 
ATOM     21  C   UNL     1      44.894   2.594   9.608  0.00  0.00    +0.000 A 
ATOM     22  N   UNL     1      45.627   1.617   9.013  0.00  0.00    +0.000 NA
BRANCH  17  24
ATOM     23  N   UNL     1      46.828  -0.348   7.509  0.00  0.00    +0.000 N 
ATOM     24  C   UNL     1      47.179   0.951   7.252  0.00  0.00    +0.000 C 
ATOM     25  O   UNL     1      48.110   1.228   6.509  0.00  0.00    +0.000 OA
ATOM     26  H   UNL     1      47.327  -1.091   7.045  0.00  0.00    +0.000 HD
ATOM     27  H   UNL     1      46.006  -0.547   8.070  0.00  0.00    +0.000 HD
ENDBRANCH  17  24
ENDBRANCH  16  20
ENDBRANCH  15  16
ENDBRANCH   1  15
TORSDOF 7
ENDMDL
MODEL 7
REMARK VINA RESULT:    -6.391      3.444      7.565
REMARK INTER + INTRA:         -10.079
REMARK INTER:                  -9.501
REMARK INTRA:                  -0.578
REMARK UNBOUND:                -1.073
REMARK  Name = 
REMARK  7 active torsions:
REMARK  status: ('A' for Active; 'I' for Inactive)
REMARK    1  A    between atoms: C_2  and  C_4
REMARK    2  A    between atoms: C_7  and  O_8
REMARK    3  A    between atoms: O_8  and  C_9
REMARK    4  A    between atoms: C_9  and  C_10
REMARK    5  A    between atoms: C_10  and  C_13
REMARK    6  A    between atoms: C_17  and  O_18
REMARK    7  A    between atoms: O_18  and  C_19
REMARK                            x       y       z     vdW  Elec       q    Type
REMARK                         _______ _______ _______ _____ _____    ______ ____
ROOT
ATOM      1  C   UNL     1      44.193   5.711  11.323  0.00  0.00    +0.000 C 
ATOM      2  F   UNL     1      43.986   5.409  12.641  0.00  0.00    +0.000 F 
ATOM      3  F   UNL     1      43.064   6.366  10.918  0.00  0.00    +0.000 F 
ENDROOT
BRANCH   1   4
ATOM      4  C   UNL     1      44.445   4.461  10.499  0.00  0.00    +0.000 A 
ATOM      5  C   UNL     1      43.874   3.237  10.866  0.00  0.00    +0.000 A 
ATOM      6  C   UNL     1      44.076   2.101  10.077  0.00  0.00    +0.000 A 
ATOM      7  C   UNL     1      44.856   2.172   8.917  0.00  0.00    +0.000 A 
ATOM      8  C   UNL     1      45.451   3.378   8.557  0.00  0.00    +0.000 A 
ATOM      9  C   UNL     1      45.241   4.516   9.343  0.00  0.00    +0.000 A 
BRANCH   8  10
ATOM     10  O   UNL     1      46.218   3.584   7.438  0.00  0.00    +0.000 OA
BRANCH  10  11
ATOM     11  C   UNL     1      46.539   2.465   6.578  0.00  0.00    +0.000 C 
ATOM     12  C   UNL     1      47.638   1.498   7.032  0.00  0.00    +0.000 C 
ATOM     13  O   UNL     1      48.439   1.762   5.858  0.00  0.00    +0.000 OA
ATOM     14  C   UNL     1      47.511   2.783   5.429  0.00  0.00    +0.000 C 
ENDBRANCH  10  11
ENDBRANCH   8  10
ENDBRANCH   1   4
BRANCH   1  15
ATOM     15  C   UNL     1      45.382   6.684  11.231  0.00  0.00    +0.000 C 
BRANCH  15  16
ATOM     16  O   UNL     1      45.417   7.543  12.383  0.00  0.00    +0.000 OA
BRANCH  16  20
ATOM     17  C   UNL     1      48.925   7.264  14.500  0.00  0.00    +0.000 A 
ATOM     18  C   UNL     1      48.294   8.502  14.502  0.00  0.00    +0.000 A 
ATOM     19  C   UNL     1      47.101   8.646  13.794  0.00  0.00    +0.000 A 
ATOM     20  C   UNL     1      46.573   7.556  13.110  0.00  0.00    +0.000 A 
ATOM     21  C   UNL     1      47.284   6.357  13.163  0.00  0.00    +0.000 A 
ATOM     22  N   UNL     1      48.451   6.176  13.836  0.00  0.00    +0.000 NA
BRANCH  17  24
ATOM     23  N   UNL     1      50.120   6.334  16.402  0.00  0.00    +0.000 N 
ATOM     24  C   UNL     1      50.200   7.096  15.266  0.00  0.00    +0.000 C 
ATOM     25  O   UNL     1      51.256   7.593  14.902  0.00  0.00    +0.000 OA
ATOM     26  H   UNL     1      50.960   6.151  16.928  0.00  0.00    +0.000 HD
ATOM     27  H   UNL     1      49.248   5.874  16.640  0.00  0.00    +0.000 HD
ENDBRANCH  17  24
ENDBRANCH  16  20
ENDBRANCH  15  16
ENDBRANCH   1  15
TORSDOF 7
ENDMDL
MODEL 8
REMARK VINA RESULT:    -6.298      3.192      4.604
REMARK INTER + INTRA:          -9.948
REMARK INTER:                  -8.903
REMARK INTRA:                  -1.046
REMARK UNBOUND:                -1.073
REMARK  Name = 
REMARK  7 active torsions:
REMARK  status: ('A' for Active; 'I' for Inactive)
REMARK    1  A    between atoms: C_2  and  C_4
REMARK    2  A    between atoms: C_7  and  O_8
REMARK    3  A    between atoms: O_8  and  C_9
REMARK    4  A    between atoms: C_9  and  C_10
REMARK    5  A    between atoms: C_10  and  C_13
REMARK    6  A    between atoms: C_17  and  O_18
REMARK    7  A    between atoms: O_18  and  C_19
REMARK                            x       y       z     vdW  Elec       q    Type
REMARK                         _______ _______ _______ _____ _____    ______ ____
ROOT
ATOM      1  C   UNL     1      48.031   8.276  12.399  0.00  0.00    +0.000 C 
ATOM      2  F   UNL     1      48.350   7.159  11.678  0.00  0.00    +0.000 F 
ATOM      3  F   UNL     1      48.765   9.287  11.847  0.00  0.00    +0.000 F 
ENDROOT
BRANCH   1   4
ATOM      4  C   UNL     1      48.344   8.093  13.874  0.00  0.00    +0.000 A 
ATOM      5  C   UNL     1      48.412   9.198  14.731  0.00  0.00    +0.000 A 
ATOM      6  C   UNL     1      48.658   9.015  16.095  0.00  0.00    +0.000 A 
ATOM      7  C   UNL     1      48.845   7.731  16.618  0.00  0.00    +0.000 A 
ATOM      8  C   UNL     1      48.807   6.627  15.770  0.00  0.00    +0.000 A 
ATOM      9  C   UNL     1      48.553   6.810  14.407  0.00  0.00    +0.000 A 
BRANCH   8  10
ATOM     10  O   UNL     1      48.954   5.320  16.158  0.00  0.00    +0.000 OA
BRANCH  10  11
ATOM     11  C   UNL     1      47.786   4.471  16.261  0.00  0.00    +0.000 C 
ATOM     12  C   UNL     1      47.111   4.334  17.631  0.00  0.00    +0.000 C 
ATOM     13  O   UNL     1      47.320   2.904  17.657  0.00  0.00    +0.000 OA
ATOM     14  C   UNL     1      48.081   2.971  16.431  0.00  0.00    +0.000 C 
ENDBRANCH  10  11
ENDBRANCH   8  10
ENDBRANCH   1   4
BRANCH   1  15
ATOM     15  C   UNL     1      46.538   8.581  12.185  0.00  0.00    +0.000 C 
BRANCH  15  16
ATOM     16  O   UNL     1      45.727   7.707  12.989  0.00  0.00    +0.000 OA
BRANCH  16  20
ATOM     17  C   UNL     1      44.347   4.133  11.511  0.00  0.00    +0.000 A 
ATOM     18  C   UNL     1      44.709   5.095  10.576  0.00  0.00    +0.000 A 
ATOM     19  C   UNL     1      45.181   6.326  11.030  0.00  0.00    +0.000 A 
ATOM     20  C   UNL     1      45.280   6.560  12.398  0.00  0.00    +0.000 A 
ATOM     21  C   UNL     1      44.886   5.534  13.257  0.00  0.00    +0.000 A 
ATOM     22  N   UNL     1      44.416   4.324  12.855  0.00  0.00    +0.000 NA
BRANCH  17  24
ATOM     23  N   UNL     1      44.494   2.280   9.943  0.00  0.00    +0.000 N 
ATOM     24  C   UNL     1      43.850   2.804  11.033  0.00  0.00    +0.000 C 
ATOM     25  O   UNL     1      42.934   2.208  11.583  0.00  0.00    +0.000 OA
ATOM     26  H   UNL     1      44.230   1.366   9.611  0.00  0.00    +0.000 HD
ATOM     27  H   UNL     1      45.298   2.761   9.554  0.00  0.00    +0.000 HD
ENDBRANCH  17  24
ENDBRANCH  16  20
ENDBRANCH  15  16
ENDBRANCH   1  15
TORSDOF 7
ENDMDL
MODEL 9
REMARK VINA RESULT:    -6.064      3.923      8.443
REMARK INTER + INTRA:          -9.619
REMARK INTER:                  -9.156
REMARK INTRA:                  -0.463
REMARK UNBOUND:                -1.073
REMARK  Name = 
REMARK  7 active torsions:
REMARK  status: ('A' for Active; 'I' for Inactive)
REMARK    1  A    between atoms: C_2  and  C_4
REMARK    2  A    between atoms: C_7  and  O_8
REMARK    3  A    between atoms: O_8  and  C_9
REMARK    4  A    between atoms: C_9  and  C_10
REMARK    5  A    between atoms: C_10  and  C_13
REMARK    6  A    between atoms: C_17  and  O_18
REMARK    7  A    between atoms: O_18  and  C_19
REMARK                            x       y       z     vdW  Elec       q    Type
REMARK                         _______ _______ _______ _____ _____    ______ ____
ROOT
ATOM      1  C   UNL     1      46.567   6.151  12.770  0.00  0.00    +0.000 C 
ATOM      2  F   UNL     1      46.267   7.266  13.503  0.00  0.00    +0.000 F 
ATOM      3  F   UNL     1      47.293   6.602  11.703  0.00  0.00    +0.000 F 
ENDROOT
BRANCH   1   4
ATOM      4  C   UNL     1      45.310   5.423  12.327  0.00  0.00    +0.000 A 
ATOM      5  C   UNL     1      44.043   5.921  12.654  0.00  0.00    +0.000 A 
ATOM      6  C   UNL     1      42.893   5.267  12.205  0.00  0.00    +0.000 A 
ATOM      7  C   UNL     1      42.992   4.105  11.431  0.00  0.00    +0.000 A 
ATOM      8  C   UNL     1      44.247   3.585  11.123  0.00  0.00    +0.000 A 
ATOM      9  C   UNL     1      45.398   4.245  11.566  0.00  0.00    +0.000 A 
BRANCH   8  10
ATOM     10  O   UNL     1      44.480   2.469  10.359  0.00  0.00    +0.000 OA
BRANCH  10  11
ATOM     11  C   UNL     1      44.534   2.592   8.918  0.00  0.00    +0.000 C 
ATOM     12  C   UNL     1      45.827   2.174   8.206  0.00  0.00    +0.000 C 
ATOM     13  O   UNL     1      46.018   3.495   7.651  0.00  0.00    +0.000 OA
ATOM     14  C   UNL     1      44.885   3.995   8.395  0.00  0.00    +0.000 C 
ENDBRANCH  10  11
ENDBRANCH   8  10
ENDBRANCH   1   4
BRANCH   1  15
ATOM     15  C   UNL     1      47.464   5.238  13.623  0.00  0.00    +0.000 C 
BRANCH  15  16
ATOM     16  O   UNL     1      48.265   6.021  14.523  0.00  0.00    +0.000 OA
BRANCH  16  20
ATOM     17  C   UNL     1      48.437   5.166  18.536  0.00  0.00    +0.000 A 
ATOM     18  C   UNL     1      47.616   4.355  17.762  0.00  0.00    +0.000 A 
ATOM     19  C   UNL     1      47.523   4.610  16.394  0.00  0.00    +0.000 A 
ATOM     20  C   UNL     1      48.250   5.658  15.839  0.00  0.00    +0.000 A 
ATOM     21  C   UNL     1      49.041   6.419  16.701  0.00  0.00    +0.000 A 
ATOM     22  N   UNL     1      49.155   6.208  18.039  0.00  0.00    +0.000 NA
BRANCH  17  24
ATOM     23  N   UNL     1      48.548   3.575  20.371  0.00  0.00    +0.000 N 
ATOM     24  C   UNL     1      48.553   4.895  20.004  0.00  0.00    +0.000 C 
ATOM     25  O   UNL     1      48.658   5.789  20.832  0.00  0.00    +0.000 OA
ATOM     26  H   UNL     1      48.672   3.337  21.343  0.00  0.00    +0.000 HD
ATOM     27  H   UNL     1      48.535   2.854  19.659  0.00  0.00    +0.000 HD
ENDBRANCH  17  24
ENDBRANCH  16  20
ENDBRANCH  15  16
ENDBRANCH   1  15
TORSDOF 7
ENDMDL
