MODEL 1
REMARK VINA RESULT:    -7.071      0.000      0.000
REMARK INTER + INTRA:          -9.924
REMARK INTER:                  -9.137
REMARK INTRA:                  -0.787
REMARK UNBOUND:                -0.787
REMARK  Name = 
REMARK  8 active torsions:
REMARK  status: ('A' for Active; 'I' for Inactive)
REMARK    1  A    between atoms: C_1  and  O_2
REMARK    2  A    between atoms: O_2  and  C_3
REMARK    3  A    between atoms: C_7  and  C_8
REMARK    4  A    between atoms: C_8  and  N_9
REMARK    5  A    between atoms: C_14  and  O_15
REMARK    6  A    between atoms: O_15  and  C_16
REMARK    7  A    between atoms: C_17  and  O_18
REMARK    8  A    between atoms: O_18  and  C_19
REMARK                            x       y       z     vdW  Elec       q    Type
REMARK                         _______ _______ _______ _____ _____    ______ ____
ROOT
ATOM      1  N   UNL     1      44.171   5.522  11.419  0.00  0.00    +0.000 N 
ATOM      2  C   UNL     1      43.895   6.811  11.005  0.00  0.00    +0.000 A 
ATOM      3  C   UNL     1      44.553   7.675  11.846  0.00  0.00    +0.000 A 
ATOM      4  C   UNL     1      45.557   6.905  12.485  0.00  0.00    +0.000 A 
ATOM      5  C   UNL     1      46.771   7.220  13.121  0.00  0.00    +0.000 A 
ATOM      6  C   UNL     1      47.578   6.196  13.624  0.00  0.00    +0.000 A 
ATOM      7  C   UNL     1      47.066   4.891  13.713  0.00  0.00    +0.000 A 
ATOM      8  C   UNL     1      45.871   4.552  13.056  0.00  0.00    +0.000 A 
ATOM      9  C   UNL     1      45.189   5.562  12.357  0.00  0.00    +0.000 A 
ENDROOT
BRANCH   6  10
ATOM     10  O   UNL     1      48.869   6.421  14.029  0.00  0.00    +0.000 OA
ATOM     11  C   UNL     1      49.043   6.848  15.378  0.00  0.00    +0.000 C 
ENDBRANCH   6  10
BRANCH   7  12
ATOM     12  O   UNL     1      47.666   3.821  14.333  0.00  0.00    +0.000 OA
ATOM     13  C   UNL     1      47.359   3.654  15.715  0.00  0.00    +0.000 C 
ENDBRANCH   7  12
BRANCH   1  14
ATOM     14  C   UNL     1      43.810   4.336  10.641  0.00  0.00    +0.000 C 
BRANCH  14  19
ATOM     15  C   UNL     1      45.754   1.932   8.435  0.00  0.00    +0.000 A 
ATOM     16  C   UNL     1      46.426   2.766   7.561  0.00  0.00    +0.000 A 
ATOM     17  C   UNL     1      46.274   4.161   7.683  0.00  0.00    +0.000 A 
ATOM     18  C   UNL     1      45.466   4.706   8.696  0.00  0.00    +0.000 A 
ATOM     19  C   UNL     1      44.807   3.872   9.589  0.00  0.00    +0.000 A 
ATOM     20  C   UNL     1      44.970   2.486   9.450  0.00  0.00    +0.000 A 
BRANCH  15  22
ATOM     21  C   UNL     1      46.770  -0.070   7.643  0.00  0.00    +0.000 C 
ATOM     22  O   UNL     1      45.765   0.562   8.428  0.00  0.00    +0.000 OA
ENDBRANCH  15  22
ENDBRANCH  14  19
ENDBRANCH   1  14
TORSDOF 5
ENDMDL
MODEL 2
REMARK VINA RESULT:    -6.190      1.669      2.257
REMARK INTER + INTRA:          -8.787
REMARK INTER:                  -8.113
REMARK INTRA:                  -0.674
REMARK UNBOUND:                -0.787
REMARK  Name = 
REMARK  8 active torsions:
REMARK  status: ('A' for Active; 'I' for Inactive)
REMARK    1  A    between atoms: C_1  and  O_2
REMARK    2  A    between atoms: O_2  and  C_3
REMARK    3  A    between atoms: C_7  and  C_8
REMARK    4  A    between atoms: C_8  and  N_9
REMARK    5  A    between atoms: C_14  and  O_15
REMARK    6  A    between atoms: O_15  and  C_16
REMARK    7  A    between atoms: C_17  and  O_18
REMARK    8  A    between atoms: O_18  and  C_19
REMARK                            x       y       z     vdW  Elec       q    Type
REMARK                         _______ _______ _______ _____ _____    ______ ____
ROOT
ATOM      1  N   UNL     1      44.006   6.930  11.683  0.00  0.00    +0.000 N 
ATOM      2  C   UNL     1      43.940   8.198  11.138  0.00  0.00    +0.000 A 
ATOM      3  C   UNL     1      45.042   8.899  11.562  0.00  0.00    +0.000 A 
ATOM      4  C   UNL     1      45.975   7.927  12.000  0.00  0.00    +0.000 A 
ATOM      5  C   UNL     1      47.372   7.921  12.168  0.00  0.00    +0.000 A 
ATOM      6  C   UNL     1      48.016   6.754  12.586  0.00  0.00    +0.000 A 
ATOM      7  C   UNL     1      47.255   5.677  13.068  0.00  0.00    +0.000 A 
ATOM      8  C   UNL     1      45.863   5.652  12.880  0.00  0.00    +0.000 A 
ATOM      9  C   UNL     1      45.260   6.750  12.244  0.00  0.00    +0.000 A 
ENDROOT
BRANCH   6  10
ATOM     10  O   UNL     1      49.380   6.618  12.532  0.00  0.00    +0.000 OA
ATOM     11  C   UNL     1      50.075   7.542  11.697  0.00  0.00    +0.000 C 
ENDBRANCH   6  10
BRANCH   7  12
ATOM     12  O   UNL     1      47.741   4.539  13.668  0.00  0.00    +0.000 OA
ATOM     13  C   UNL     1      46.838   3.438  13.731  0.00  0.00    +0.000 C 
ENDBRANCH   7  12
BRANCH   1  14
ATOM     14  C   UNL     1      43.114   5.840  11.288  0.00  0.00    +0.000 C 
BRANCH  14  19
ATOM     15  C   UNL     1      45.303   4.014   8.777  0.00  0.00    +0.000 A 
ATOM     16  C   UNL     1      45.195   2.688   9.158  0.00  0.00    +0.000 A 
ATOM     17  C   UNL     1      44.376   2.349  10.252  0.00  0.00    +0.000 A 
ATOM     18  C   UNL     1      43.655   3.340  10.940  0.00  0.00    +0.000 A 
ATOM     19  C   UNL     1      43.743   4.668  10.547  0.00  0.00    +0.000 A 
ATOM     20  C   UNL     1      44.566   4.987   9.456  0.00  0.00    +0.000 A 
BRANCH  15  22
ATOM     21  C   UNL     1      46.567   3.580   6.808  0.00  0.00    +0.000 C 
ATOM     22  O   UNL     1      46.081   4.513   7.766  0.00  0.00    +0.000 OA
ENDBRANCH  15  22
ENDBRANCH  14  19
ENDBRANCH   1  14
TORSDOF 5
ENDMDL
MODEL 3
REMARK VINA RESULT:    -6.161      2.084      3.497
REMARK INTER + INTRA:          -8.749
REMARK INTER:                  -8.162
REMARK INTRA:                  -0.587
REMARK UNBOUND:                -0.787
REMARK  Name = 
REMARK  8 active torsions:
REMARK  status: ('A' for Active; 'I' for Inactive)
REMARK    1  A    between atoms: C_1  and  O_2
REMARK    2  A    between atoms: O_2  and  C_3
REMARK    3  A    between atoms: C_7  and  C_8
REMARK    4  A    between atoms: C_8  and  N_9
REMARK    5  A    between atoms: C_14  and  O_15
REMARK    6  A    between atoms: O_15  and  C_16
REMARK    7  A    between atoms: C_17  and  O_18
REMARK    8  A    between atoms: O_18  and  C_19
REMARK                            x       y       z     vdW  Elec       q    Type
REMARK                         _______ _______ _______ _____ _____    ______ ____
ROOT
ATOM      1  N   UNL     1      46.158   5.435  12.371  0.00  0.00    +0.000 N 
ATOM      2  C   UNL     1      45.900   4.730  13.531  0.00  0.00    +0.000 A 
ATOM      3  C   UNL     1      46.966   4.907  14.379  0.00  0.00    +0.000 A 
ATOM      4  C   UNL     1      47.650   6.054  13.907  0.00  0.00    +0.000 A 
ATOM      5  C   UNL     1      48.534   6.975  14.498  0.00  0.00    +0.000 A 
ATOM      6  C   UNL     1      49.014   8.055  13.752  0.00  0.00    +0.000 A 
ATOM      7  C   UNL     1      48.811   8.081  12.363  0.00  0.00    +0.000 A 
ATOM      8  C   UNL     1      47.907   7.190  11.761  0.00  0.00    +0.000 A 
ATOM      9  C   UNL     1      47.258   6.250  12.579  0.00  0.00    +0.000 A 
ENDROOT
BRANCH   6  10
ATOM     10  O   UNL     1      49.673   9.106  14.337  0.00  0.00    +0.000 OA
ATOM     11  C   UNL     1      49.039   9.698  15.469  0.00  0.00    +0.000 C 
ENDBRANCH   6  10
BRANCH   7  12
ATOM     12  O   UNL     1      49.361   8.977  11.477  0.00  0.00    +0.000 OA
ATOM     13  C   UNL     1      48.686  10.228  11.362  0.00  0.00    +0.000 C 
ENDBRANCH   7  12
BRANCH   1  14
ATOM     14  C   UNL     1      45.158   5.648  11.324  0.00  0.00    +0.000 C 
BRANCH  14  19
ATOM     15  C   UNL     1      45.697   3.784   8.058  0.00  0.00    +0.000 A 
ATOM     16  C   UNL     1      45.066   2.571   8.270  0.00  0.00    +0.000 A 
ATOM     17  C   UNL     1      44.422   2.334   9.500  0.00  0.00    +0.000 A 
ATOM     18  C   UNL     1      44.398   3.324  10.497  0.00  0.00    +0.000 A 
ATOM     19  C   UNL     1      45.009   4.551  10.280  0.00  0.00    +0.000 A 
ATOM     20  C   UNL     1      45.647   4.768   9.049  0.00  0.00    +0.000 A 
BRANCH  15  22
ATOM     21  C   UNL     1      46.750   3.125   6.028  0.00  0.00    +0.000 C 
ATOM     22  O   UNL     1      46.395   4.158   6.940  0.00  0.00    +0.000 OA
ENDBRANCH  15  22
ENDBRANCH  14  19
ENDBRANCH   1  14
TORSDOF 5
ENDMDL
MODEL 4
REMARK VINA RESULT:    -5.491      3.192      7.031
REMARK INTER + INTRA:          -7.883
REMARK INTER:                  -6.986
REMARK INTRA:                  -0.897
REMARK UNBOUND:                -0.787
REMARK  Name = 
REMARK  8 active torsions:
REMARK  status: ('A' for Active; 'I' for Inactive)
REMARK    1  A    between atoms: C_1  and  O_2
REMARK    2  A    between atoms: O_2  and  C_3
REMARK    3  A    between atoms: C_7  and  C_8
REMARK    4  A    between atoms: C_8  and  N_9
REMARK    5  A    between atoms: C_14  and  O_15
REMARK    6  A    between atoms: O_15  and  C_16
REMARK    7  A    between atoms: C_17  and  O_18
REMARK    8  A    between atoms: O_18  and  C_19
REMARK                            x       y       z     vdW  Elec       q    Type
REMARK                         _______ _______ _______ _____ _____    ______ ____
ROOT
ATOM      1  N   UNL     1      48.298   7.473  13.653  0.00  0.00    +0.000 N 
ATOM      2  C   UNL     1      48.098   8.809  13.362  0.00  0.00    +0.000 A 
ATOM      3  C   UNL     1      46.974   8.907  12.579  0.00  0.00    +0.000 A 
ATOM      4  C   UNL     1      46.266   7.694  12.763  0.00  0.00    +0.000 A 
ATOM      5  C   UNL     1      44.923   7.311  12.592  0.00  0.00    +0.000 A 
ATOM      6  C   UNL     1      44.525   6.011  12.912  0.00  0.00    +0.000 A 
ATOM      7  C   UNL     1      45.498   5.031  13.166  0.00  0.00    +0.000 A 
ATOM      8  C   UNL     1      46.838   5.400  13.372  0.00  0.00    +0.000 A 
ATOM      9  C   UNL     1      47.176   6.759  13.267  0.00  0.00    +0.000 A 
ENDROOT
BRANCH   6  10
ATOM     10  O   UNL     1      43.202   5.657  12.998  0.00  0.00    +0.000 OA
ATOM     11  C   UNL     1      42.501   5.529  11.763  0.00  0.00    +0.000 C 
ENDBRANCH   6  10
BRANCH   7  12
ATOM     12  O   UNL     1      45.275   3.684  13.327  0.00  0.00    +0.000 OA
ATOM     13  C   UNL     1      45.176   2.925  12.125  0.00  0.00    +0.000 C 
ENDBRANCH   7  12
BRANCH   1  14
ATOM     14  C   UNL     1      49.279   7.006  14.633  0.00  0.00    +0.000 C 
BRANCH  14  19
ATOM     15  C   UNL     1      48.260   5.412  17.927  0.00  0.00    +0.000 A 
ATOM     16  C   UNL     1      48.175   6.486  18.794  0.00  0.00    +0.000 A 
ATOM     17  C   UNL     1      48.436   7.784  18.312  0.00  0.00    +0.000 A 
ATOM     18  C   UNL     1      48.757   7.994  16.959  0.00  0.00    +0.000 A 
ATOM     19  C   UNL     1      48.820   6.921  16.082  0.00  0.00    +0.000 A 
ATOM     20  C   UNL     1      48.559   5.635  16.581  0.00  0.00    +0.000 A 
BRANCH  15  22
ATOM     21  C   UNL     1      47.441   3.279  17.259  0.00  0.00    +0.000 C 
ATOM     22  O   UNL     1      48.074   4.091  18.241  0.00  0.00    +0.000 OA
ENDBRANCH  15  22
ENDBRANCH  14  19
ENDBRANCH   1  14
TORSDOF 5
ENDMDL
MODEL 5
REMARK VINA RESULT:    -5.391      2.384      4.126
REMARK INTER + INTRA:          -7.754
REMARK INTER:                  -7.190
REMARK INTRA:                  -0.565
REMARK UNBOUND:                -0.787
REMARK  Name = 
REMARK  8 active torsions:
REMARK  status: ('A' for Active; 'I' for Inactive)
REMARK    1  A    between atoms: C_1  and  O_2
REMARK    2  A    between atoms: O_2  and  C_3
REMARK    3  A    between atoms: C_7  and  C_8
REMARK    4  A    between atoms: C_8  and  N_9
REMARK    5  A    between atoms: C_14  and  O_15
REMARK    6  A    between atoms: O_15  and  C_16
REMARK    7  A    between atoms: C_17  and  O_18
REMARK    8  A    between atoms: O_18  and  C_19
REMARK                            x       y       z     vdW  Elec       q    Type
REMARK                         _______ _______ _______ _____ _____    ______ ____
ROOT
ATOM      1  N   UNL     1      47.311   5.495  14.017  0.00  0.00    +0.000 N 
ATOM      2  C   UNL     1      47.709   6.539  13.203  0.00  0.00    +0.000 A 
ATOM      3  C   UNL     1      48.430   7.421  13.970  0.00  0.00    +0.000 A 
ATOM      4  C   UNL     1      48.827   6.699  15.122  0.00  0.00    +0.000 A 
ATOM      5  C   UNL     1      49.858   6.856  16.066  0.00  0.00    +0.000 A 
ATOM      6  C   UNL     1      50.011   5.919  17.091  0.00  0.00    +0.000 A 
ATOM      7  C   UNL     1      49.001   4.972  17.320  0.00  0.00    +0.000 A 
ATOM      8  C   UNL     1      47.982   4.779  16.372  0.00  0.00    +0.000 A 
ATOM      9  C   UNL     1      47.981   5.590  15.225  0.00  0.00    +0.000 A 
ENDROOT
BRANCH   6  10
ATOM     10  O   UNL     1      51.131   5.886  17.883  0.00  0.00    +0.000 OA
ATOM     11  C   UNL     1      52.292   5.289  17.310  0.00  0.00    +0.000 C 
ENDBRANCH   6  10
BRANCH   7  12
ATOM     12  O   UNL     1      48.925   4.102  18.382  0.00  0.00    +0.000 OA
ATOM     13  C   UNL     1      48.020   3.012  18.226  0.00  0.00    +0.000 C 
ENDBRANCH   7  12
BRANCH   1  14
ATOM     14  C   UNL     1      46.701   4.268  13.504  0.00  0.00    +0.000 C 
BRANCH  14  19
ATOM     15  C   UNL     1      43.885   3.441  11.093  0.00  0.00    +0.000 A 
ATOM     16  C   UNL     1      42.884   4.328  11.447  0.00  0.00    +0.000 A 
ATOM     17  C   UNL     1      43.114   5.248  12.489  0.00  0.00    +0.000 A 
ATOM     18  C   UNL     1      44.354   5.283  13.150  0.00  0.00    +0.000 A 
ATOM     19  C   UNL     1      45.368   4.410  12.782  0.00  0.00    +0.000 A 
ATOM     20  C   UNL     1      45.119   3.500  11.744  0.00  0.00    +0.000 A 
BRANCH  15  22
ATOM     21  C   UNL     1      44.939   2.314   9.281  0.00  0.00    +0.000 C 
ATOM     22  O   UNL     1      43.810   2.465  10.133  0.00  0.00    +0.000 OA
ENDBRANCH  15  22
ENDBRANCH  14  19
ENDBRANCH   1  14
TORSDOF 5
ENDMDL
MODEL 6
REMARK VINA RESULT:    -5.318      2.545      4.095
REMARK INTER + INTRA:          -7.660
REMARK INTER:                  -7.278
REMARK INTRA:                  -0.382
REMARK UNBOUND:                -0.787
REMARK  Name = 
REMARK  8 active torsions:
REMARK  status: ('A' for Active; 'I' for Inactive)
REMARK    1  A    between atoms: C_1  and  O_2
REMARK    2  A    between atoms: O_2  and  C_3
REMARK    3  A    between atoms: C_7  and  C_8
REMARK    4  A    between atoms: C_8  and  N_9
REMARK    5  A    between atoms: C_14  and  O_15
REMARK    6  A    between atoms: O_15  and  C_16
REMARK    7  A    between atoms: C_17  and  O_18
REMARK    8  A    between atoms: O_18  and  C_19
REMARK                            x       y       z     vdW  Elec       q    Type
REMARK                         _______ _______ _______ _____ _____    ______ ____
ROOT
ATOM      1  N   UNL     1      46.891   6.238  12.162  0.00  0.00    +0.000 N 
ATOM      2  C   UNL     1      46.576   5.487  13.278  0.00  0.00    +0.000 A 
ATOM      3  C   UNL     1      47.581   5.658  14.199  0.00  0.00    +0.000 A 
ATOM      4  C   UNL     1      48.267   6.835  13.811  0.00  0.00    +0.000 A 
ATOM      5  C   UNL     1      49.089   7.754  14.488  0.00  0.00    +0.000 A 
ATOM      6  C   UNL     1      49.589   8.869  13.811  0.00  0.00    +0.000 A 
ATOM      7  C   UNL     1      49.475   8.939  12.413  0.00  0.00    +0.000 A 
ATOM      8  C   UNL     1      48.633   8.049  11.725  0.00  0.00    +0.000 A 
ATOM      9  C   UNL     1      47.956   7.069  12.468  0.00  0.00    +0.000 A 
ENDROOT
BRANCH   6  10
ATOM     10  O   UNL     1      50.184   9.914  14.472  0.00  0.00    +0.000 OA
ATOM     11  C   UNL     1      49.364  11.053  14.723  0.00  0.00    +0.000 C 
ENDBRANCH   6  10
BRANCH   7  12
ATOM     12  O   UNL     1      50.059   9.877  11.594  0.00  0.00    +0.000 OA
ATOM     13  C   UNL     1      49.161  10.743  10.906  0.00  0.00    +0.000 C 
ENDBRANCH   7  12
BRANCH   1  14
ATOM     14  C   UNL     1      45.955   6.465  11.060  0.00  0.00    +0.000 C 
BRANCH  14  19
ATOM     15  C   UNL     1      44.214   3.225  10.110  0.00  0.00    +0.000 A 
ATOM     16  C   UNL     1      44.561   3.048   8.783  0.00  0.00    +0.000 A 
ATOM     17  C   UNL     1      45.403   3.989   8.158  0.00  0.00    +0.000 A 
ATOM     18  C   UNL     1      45.906   5.087   8.878  0.00  0.00    +0.000 A 
ATOM     19  C   UNL     1      45.578   5.255  10.216  0.00  0.00    +0.000 A 
ATOM     20  C   UNL     1      44.737   4.309  10.819  0.00  0.00    +0.000 A 
BRANCH  15  22
ATOM     21  C   UNL     1      43.429   2.585  12.264  0.00  0.00    +0.000 C 
ATOM     22  O   UNL     1      43.380   2.428  10.850  0.00  0.00    +0.000 OA
ENDBRANCH  15  22
ENDBRANCH  14  19
ENDBRANCH   1  14
TORSDOF 5
ENDMDL
MODEL 7
REMARK VINA RESULT:    -5.077      3.386      7.171
REMARK INTER + INTRA:          -7.348
REMARK INTER:                  -6.701
REMARK INTRA:                  -0.647
REMARK UNBOUND:                -0.787
REMARK  Name = 
REMARK  8 active torsions:
REMARK  status: ('A' for Active; 'I' for Inactive)
REMARK    1  A    between atoms: C_1  and  O_2
REMARK    2  A    between atoms: O_2  and  C_3
REMARK    3  A    between atoms: C_7  and  C_8
REMARK    4  A    between atoms: C_8  and  N_9
REMARK    5  A    between atoms: C_14  and  O_15
REMARK    6  A    between atoms: O_15  and  C_16
REMARK    7  A    between atoms: C_17  and  O_18
REMARK    8  A    between atoms: O_18  and  C_19
REMARK                            x       y       z     vdW  Elec       q    Type
REMARK                         _______ _______ _______ _____ _____    ______ ____
ROOT
ATOM      1  N   UNL     1      49.094   7.325  14.475  0.00  0.00    +0.000 N 
ATOM      2  C   UNL     1      49.733   8.281  13.709  0.00  0.00    +0.000 A 
ATOM      3  C   UNL     1      49.412   8.053  12.394  0.00  0.00    +0.000 A 
ATOM      4  C   UNL     1      48.251   7.242  12.413  0.00  0.00    +0.000 A 
ATOM      5  C   UNL     1      47.223   6.987  11.487  0.00  0.00    +0.000 A 
ATOM      6  C   UNL     1      46.164   6.146  11.838  0.00  0.00    +0.000 A 
ATOM      7  C   UNL     1      46.253   5.372  13.006  0.00  0.00    +0.000 A 
ATOM      8  C   UNL     1      47.254   5.635  13.957  0.00  0.00    +0.000 A 
ATOM      9  C   UNL     1      48.181   6.653  13.679  0.00  0.00    +0.000 A 
ENDROOT
BRANCH   6  10
ATOM     10  O   UNL     1      45.025   6.056  11.079  0.00  0.00    +0.000 OA
ATOM     11  C   UNL     1      43.985   6.981  11.389  0.00  0.00    +0.000 C 
ENDBRANCH   6  10
BRANCH   7  12
ATOM     12  O   UNL     1      45.382   4.382  13.396  0.00  0.00    +0.000 OA
ATOM     13  C   UNL     1      45.280   3.265  12.517  0.00  0.00    +0.000 C 
ENDBRANCH   7  12
BRANCH   1  14
ATOM     14  C   UNL     1      49.036   7.376  15.936  0.00  0.00    +0.000 C 
BRANCH  14  19
ATOM     15  C   UNL     1      49.476   4.138  17.872  0.00  0.00    +0.000 A 
ATOM     16  C   UNL     1      50.849   3.993  17.952  0.00  0.00    +0.000 A 
ATOM     17  C   UNL     1      51.682   4.975  17.382  0.00  0.00    +0.000 A 
ATOM     18  C   UNL     1      51.128   6.106  16.756  0.00  0.00    +0.000 A 
ATOM     19  C   UNL     1      49.751   6.266  16.694  0.00  0.00    +0.000 A 
ATOM     20  C   UNL     1      48.939   5.276  17.266  0.00  0.00    +0.000 A 
BRANCH  15  22
ATOM     21  C   UNL     1      47.494   2.893  17.439  0.00  0.00    +0.000 C 
ATOM     22  O   UNL     1      48.533   3.261  18.340  0.00  0.00    +0.000 OA
ENDBRANCH  15  22
ENDBRANCH  14  19
ENDBRANCH   1  14
TORSDOF 5
ENDMDL
MODEL 8
REMARK VINA RESULT:    -5.076      2.905      7.215
REMARK INTER + INTRA:          -7.346
REMARK INTER:                  -7.025
REMARK INTRA:                  -0.322
REMARK UNBOUND:                -0.787
REMARK  Name = 
REMARK  8 active torsions:
REMARK  status: ('A' for Active; 'I' for Inactive)
REMARK    1  A    between atoms: C_1  and  O_2
REMARK    2  A    between atoms: O_2  and  C_3
REMARK    3  A    between atoms: C_7  and  C_8
REMARK    4  A    between atoms: C_8  and  N_9
REMARK    5  A    between atoms: C_14  and  O_15
REMARK    6  A    between atoms: O_15  and  C_16
REMARK    7  A    between atoms: C_17  and  O_18
REMARK    8  A    between atoms: O_18  and  C_19
REMARK                            x       y       z     vdW  Elec       q    Type
REMARK                         _______ _______ _______ _____ _____    ______ ____
ROOT
ATOM      1  N   UNL     1      48.346   6.489  14.420  0.00  0.00    +0.000 N 
ATOM      2  C   UNL     1      49.078   7.434  13.727  0.00  0.00    +0.000 A 
ATOM      3  C   UNL     1      48.828   7.263  12.387  0.00  0.00    +0.000 A 
ATOM      4  C   UNL     1      47.630   6.511  12.310  0.00  0.00    +0.000 A 
ATOM      5  C   UNL     1      46.650   6.337  11.315  0.00  0.00    +0.000 A 
ATOM      6  C   UNL     1      45.532   5.539  11.574  0.00  0.00    +0.000 A 
ATOM      7  C   UNL     1      45.511   4.727  12.719  0.00  0.00    +0.000 A 
ATOM      8  C   UNL     1      46.463   4.910  13.736  0.00  0.00    +0.000 A 
ATOM      9  C   UNL     1      47.453   5.888  13.549  0.00  0.00    +0.000 A 
ENDROOT
BRANCH   6  10
ATOM     10  O   UNL     1      44.439   5.530  10.745  0.00  0.00    +0.000 OA
ATOM     11  C   UNL     1      44.428   4.535   9.724  0.00  0.00    +0.000 C 
ENDBRANCH   6  10
BRANCH   7  12
ATOM     12  O   UNL     1      44.570   3.772  13.022  0.00  0.00    +0.000 OA
ATOM     13  C   UNL     1      43.289   4.264  13.409  0.00  0.00    +0.000 C 
ENDBRANCH   7  12
BRANCH   1  14
ATOM     14  C   UNL     1      48.201   6.499  15.876  0.00  0.00    +0.000 C 
BRANCH  14  19
ATOM     15  C   UNL     1      49.940   3.719  17.794  0.00  0.00    +0.000 A 
ATOM     16  C   UNL     1      48.905   2.869  18.141  0.00  0.00    +0.000 A 
ATOM     17  C   UNL     1      47.592   3.177  17.734  0.00  0.00    +0.000 A 
ATOM     18  C   UNL     1      47.333   4.325  16.964  0.00  0.00    +0.000 A 
ATOM     19  C   UNL     1      48.372   5.168  16.595  0.00  0.00    +0.000 A 
ATOM     20  C   UNL     1      49.672   4.845  17.012  0.00  0.00    +0.000 A 
BRANCH  15  22
ATOM     21  C   UNL     1      51.765   4.493  19.111  0.00  0.00    +0.000 C 
ATOM     22  O   UNL     1      51.259   3.585  18.140  0.00  0.00    +0.000 OA
ENDBRANCH  15  22
ENDBRANCH  14  19
ENDBRANCH   1  14
TORSDOF 5
ENDMDL
MODEL 9
REMARK VINA RESULT:    -5.009      3.335      4.947
REMARK INTER + INTRA:          -7.259
REMARK INTER:                  -6.530
REMARK INTRA:                  -0.729
REMARK UNBOUND:                -0.787
REMARK  Name = 
REMARK  8 active torsions:
REMARK  status: ('A' for Active; 'I' for Inactive)
REMARK    1  A    between atoms: C_1  and  O_2
REMARK    2  A    between atoms: O_2  and  C_3
REMARK    3  A    between atoms: C_7  and  C_8
REMARK    4  A    between atoms: C_8  and  N_9
REMARK    5  A    between atoms: C_14  and  O_15
REMARK    6  A    between atoms: O_15  and  C_16
REMARK    7  A    between atoms: C_17  and  O_18
REMARK    8  A    between atoms: O_18  and  C_19
REMARK                            x       y       z     vdW  Elec       q    Type
REMARK                         _______ _______ _______ _____ _____    ______ ____
ROOT
ATOM      1  N   UNL     1      48.304   7.018  14.380  0.00  0.00    +0.000 N 
ATOM      2  C   UNL     1      48.817   8.290  14.545  0.00  0.00    +0.000 A 
ATOM      3  C   UNL     1      48.998   8.502  15.890  0.00  0.00    +0.000 A 
ATOM      4  C   UNL     1      49.003   7.217  16.487  0.00  0.00    +0.000 A 
ATOM      5  C   UNL     1      49.514   6.704  17.694  0.00  0.00    +0.000 A 
ATOM      6  C   UNL     1      49.390   5.341  17.976  0.00  0.00    +0.000 A 
ATOM      7  C   UNL     1      48.552   4.542  17.182  0.00  0.00    +0.000 A 
ATOM      8  C   UNL     1      48.061   5.028  15.959  0.00  0.00    +0.000 A 
ATOM      9  C   UNL     1      48.392   6.341  15.585  0.00  0.00    +0.000 A 
ENDROOT
BRANCH   6  10
ATOM     10  O   UNL     1      50.074   4.748  19.007  0.00  0.00    +0.000 OA
ATOM     11  C   UNL     1      49.665   5.105  20.325  0.00  0.00    +0.000 C 
ENDBRANCH   6  10
BRANCH   7  12
ATOM     12  O   UNL     1      48.196   3.237  17.430  0.00  0.00    +0.000 OA
ATOM     13  C   UNL     1      48.969   2.246  16.757  0.00  0.00    +0.000 C 
ENDBRANCH   7  12
BRANCH   1  14
ATOM     14  C   UNL     1      48.176   6.369  13.075  0.00  0.00    +0.000 C 
BRANCH  14  19
ATOM     15  C   UNL     1      44.816   4.698  12.483  0.00  0.00    +0.000 A 
ATOM     16  C   UNL     1      44.080   5.673  11.834  0.00  0.00    +0.000 A 
ATOM     17  C   UNL     1      44.678   6.916  11.552  0.00  0.00    +0.000 A 
ATOM     18  C   UNL     1      46.017   7.162  11.904  0.00  0.00    +0.000 A 
ATOM     19  C   UNL     1      46.766   6.178  12.535  0.00  0.00    +0.000 A 
ATOM     20  C   UNL     1      46.151   4.947  12.809  0.00  0.00    +0.000 A 
BRANCH  15  22
ATOM     21  C   UNL     1      43.441   2.816  12.001  0.00  0.00    +0.000 C 
ATOM     22  O   UNL     1      44.375   3.457  12.862  0.00  0.00    +0.000 OA
ENDBRANCH  15  22
ENDBRANCH  14  19
ENDBRANCH   1  14
TORSDOF 5
ENDMDL
