MODEL 1
REMARK VINA RESULT:    -7.745      0.000      0.000
REMARK INTER + INTRA:         -10.314
REMARK INTER:                  -9.783
REMARK INTRA:                  -0.531
REMARK UNBOUND:                -0.531
REMARK  Name = 
REMARK  5 active torsions:
REMARK  status: ('A' for Active; 'I' for Inactive)
REMARK    1  A    between atoms: N_1  and  C_2
REMARK    2  A    between atoms: C_2  and  C_3
REMARK    3  A    between atoms: C_3  and  C_4
REMARK    4  A    between atoms: N_10  and  C_11
REMARK    5  A    between atoms: C_11  and  C_12
REMARK                            x       y       z     vdW  Elec       q    Type
REMARK                         _______ _______ _______ _____ _____    ______ ____
ROOT
ATOM      1  C   UNL     1      46.671   6.353  11.973  0.00  0.00    +0.000 A 
ATOM      2  C   UNL     1      46.390   5.836  13.235  0.00  0.00    +0.000 A 
ATOM      3  N   UNL     1      45.507   4.852  13.508  0.00  0.00    +0.000 NA
ATOM      4  C   UNL     1      44.878   4.334  12.427  0.00  0.00    +0.000 A 
ATOM      5  C   UNL     1      43.932   3.289  12.380  0.00  0.00    +0.000 A 
ATOM      6  C   UNL     1      43.605   3.087  11.057  0.00  0.00    +0.000 A 
ATOM      7  N   UNL     1      44.318   3.992  10.298  0.00  0.00    +0.000 N 
ATOM      8  C   UNL     1      45.096   4.781  11.121  0.00  0.00    +0.000 A 
ATOM      9  C   UNL     1      45.989   5.829  10.869  0.00  0.00    +0.000 A 
ENDROOT
BRANCH   1  10
ATOM     10  C   UNL     1      47.695   7.445  11.801  0.00  0.00    +0.000 C 
BRANCH  10  11
ATOM     11  C   UNL     1      48.542   7.661  13.059  0.00  0.00    +0.000 C 
BRANCH  11  12
ATOM     12  N   UNL     1      49.781   6.888  12.986  0.00  0.00    +0.000 NA
ATOM     13  H   UNL     1      49.577   5.906  13.171  0.00  0.00    +0.000 HD
ATOM     14  H   UNL     1      50.419   7.187  13.723  0.00  0.00    +0.000 HD
ENDBRANCH  11  12
ENDBRANCH  10  11
ENDBRANCH   1  10
BRANCH   7  15
ATOM     15  C   UNL     1      44.320   4.007   8.838  0.00  0.00    +0.000 C 
BRANCH  15  16
ATOM     16  C   UNL     1      45.434   3.166   8.272  0.00  0.00    +0.000 A 
ATOM     17  C   UNL     1      46.398   3.733   7.427  0.00  0.00    +0.000 A 
ATOM     18  C   UNL     1      47.395   2.940   6.858  0.00  0.00    +0.000 A 
ATOM     19  C   UNL     1      47.442   1.574   7.128  0.00  0.00    +0.000 A 
ATOM     20  C   UNL     1      46.502   1.003   7.983  0.00  0.00    +0.000 A 
ATOM     21  C   UNL     1      45.505   1.793   8.555  0.00  0.00    +0.000 A 
ENDBRANCH  15  16
ENDBRANCH   7  15
TORSDOF 5
ENDMDL
MODEL 2
REMARK VINA RESULT:    -7.053      1.935      2.586
REMARK INTER + INTRA:          -9.440
REMARK INTER:                  -9.135
REMARK INTRA:                  -0.305
REMARK UNBOUND:                -0.531
REMARK  Name = 
REMARK  5 active torsions:
REMARK  status: ('A' for Active; 'I' for Inactive)
REMARK    1  A    between atoms: N_1  and  C_2
REMARK    2  A    between atoms: C_2  and  C_3
REMARK    3  A    between atoms: C_3  and  C_4
REMARK    4  A    between atoms: N_10  and  C_11
REMARK    5  A    between atoms: C_11  and  C_12
REMARK                            x       y       z     vdW  Elec       q    Type
REMARK                         _______ _______ _______ _____ _____    ______ ____
ROOT
ATOM      1  C   UNL     1      46.440   4.004  13.628  0.00  0.00    +0.000 A 
ATOM      2  C   UNL     1      45.937   5.274  13.898  0.00  0.00    +0.000 A 
ATOM      3  N   UNL     1      45.075   5.965  13.123  0.00  0.00    +0.000 NA
ATOM      4  C   UNL     1      44.670   5.318  12.004  0.00  0.00    +0.000 A 
ATOM      5  C   UNL     1      43.761   5.756  11.018  0.00  0.00    +0.000 A 
ATOM      6  C   UNL     1      43.635   4.743  10.093  0.00  0.00    +0.000 A 
ATOM      7  N   UNL     1      44.453   3.704  10.485  0.00  0.00    +0.000 N 
ATOM      8  C   UNL     1      45.112   4.041  11.649  0.00  0.00    +0.000 A 
ATOM      9  C   UNL     1      46.037   3.362  12.452  0.00  0.00    +0.000 A 
ENDROOT
BRANCH   1  10
ATOM     10  C   UNL     1      47.389   3.333  14.588  0.00  0.00    +0.000 C 
BRANCH  10  11
ATOM     11  C   UNL     1      47.471   4.057  15.935  0.00  0.00    +0.000 C 
BRANCH  11  12
ATOM     12  N   UNL     1      46.695   3.346  16.951  0.00  0.00    +0.000 NA
ATOM     13  H   UNL     1      46.494   3.977  17.726  0.00  0.00    +0.000 HD
ATOM     14  H   UNL     1      47.252   2.586  17.342  0.00  0.00    +0.000 HD
ENDBRANCH  11  12
ENDBRANCH  10  11
ENDBRANCH   1  10
BRANCH   7  15
ATOM     15  C   UNL     1      44.500   2.408   9.814  0.00  0.00    +0.000 C 
BRANCH  15  16
ATOM     16  C   UNL     1      45.483   2.405   8.672  0.00  0.00    +0.000 A 
ATOM     17  C   UNL     1      45.717   3.570   7.929  0.00  0.00    +0.000 A 
ATOM     18  C   UNL     1      46.584   3.551   6.835  0.00  0.00    +0.000 A 
ATOM     19  C   UNL     1      47.227   2.369   6.475  0.00  0.00    +0.000 A 
ATOM     20  C   UNL     1      47.019   1.209   7.218  0.00  0.00    +0.000 A 
ATOM     21  C   UNL     1      46.154   1.227   8.312  0.00  0.00    +0.000 A 
ENDBRANCH  15  16
ENDBRANCH   7  15
TORSDOF 5
ENDMDL
MODEL 3
REMARK VINA RESULT:    -7.021      1.764      5.597
REMARK INTER + INTRA:          -9.399
REMARK INTER:                  -8.802
REMARK INTRA:                  -0.597
REMARK UNBOUND:                -0.531
REMARK  Name = 
REMARK  5 active torsions:
REMARK  status: ('A' for Active; 'I' for Inactive)
REMARK    1  A    between atoms: N_1  and  C_2
REMARK    2  A    between atoms: C_2  and  C_3
REMARK    3  A    between atoms: C_3  and  C_4
REMARK    4  A    between atoms: N_10  and  C_11
REMARK    5  A    between atoms: C_11  and  C_12
REMARK                            x       y       z     vdW  Elec       q    Type
REMARK                         _______ _______ _______ _____ _____    ______ ____
ROOT
ATOM      1  C   UNL     1      45.651   3.516   8.150  0.00  0.00    +0.000 A 
ATOM      2  C   UNL     1      44.897   2.371   8.397  0.00  0.00    +0.000 A 
ATOM      3  N   UNL     1      44.127   2.150   9.484  0.00  0.00    +0.000 NA
ATOM      4  C   UNL     1      44.094   3.168  10.376  0.00  0.00    +0.000 A 
ATOM      5  C   UNL     1      43.369   3.253  11.583  0.00  0.00    +0.000 A 
ATOM      6  C   UNL     1      43.620   4.492  12.129  0.00  0.00    +0.000 A 
ATOM      7  N   UNL     1      44.491   5.159  11.293  0.00  0.00    +0.000 N 
ATOM      8  C   UNL     1      44.809   4.357  10.215  0.00  0.00    +0.000 A 
ATOM      9  C   UNL     1      45.632   4.545   9.097  0.00  0.00    +0.000 A 
ENDROOT
BRANCH   1  10
ATOM     10  C   UNL     1      46.459   3.645   6.885  0.00  0.00    +0.000 C 
BRANCH  10  11
ATOM     11  C   UNL     1      47.147   2.334   6.490  0.00  0.00    +0.000 C 
BRANCH  11  12
ATOM     12  N   UNL     1      48.593   2.522   6.384  0.00  0.00    +0.000 NA
ATOM     13  H   UNL     1      48.787   3.453   6.016  0.00  0.00    +0.000 HD
ATOM     14  H   UNL     1      48.979   1.865   5.707  0.00  0.00    +0.000 HD
ENDBRANCH  11  12
ENDBRANCH  10  11
ENDBRANCH   1  10
BRANCH   7  15
ATOM     15  C   UNL     1      44.900   6.547  11.483  0.00  0.00    +0.000 C 
BRANCH  15  16
ATOM     16  C   UNL     1      46.289   6.647  12.060  0.00  0.00    +0.000 A 
ATOM     17  C   UNL     1      46.584   6.085  13.310  0.00  0.00    +0.000 A 
ATOM     18  C   UNL     1      47.856   6.229  13.868  0.00  0.00    +0.000 A 
ATOM     19  C   UNL     1      48.844   6.932  13.183  0.00  0.00    +0.000 A 
ATOM     20  C   UNL     1      48.568   7.477  11.931  0.00  0.00    +0.000 A 
ATOM     21  C   UNL     1      47.299   7.333  11.370  0.00  0.00    +0.000 A 
ENDBRANCH  15  16
ENDBRANCH   7  15
TORSDOF 5
ENDMDL
MODEL 4
REMARK VINA RESULT:    -6.771      2.205      2.645
REMARK INTER + INTRA:          -9.084
REMARK INTER:                  -8.527
REMARK INTRA:                  -0.556
REMARK UNBOUND:                -0.531
REMARK  Name = 
REMARK  5 active torsions:
REMARK  status: ('A' for Active; 'I' for Inactive)
REMARK    1  A    between atoms: N_1  and  C_2
REMARK    2  A    between atoms: C_2  and  C_3
REMARK    3  A    between atoms: C_3  and  C_4
REMARK    4  A    between atoms: N_10  and  C_11
REMARK    5  A    between atoms: C_11  and  C_12
REMARK                            x       y       z     vdW  Elec       q    Type
REMARK                         _______ _______ _______ _____ _____    ______ ____
ROOT
ATOM      1  C   UNL     1      45.698   8.002  12.085  0.00  0.00    +0.000 A 
ATOM      2  C   UNL     1      46.491   7.729  13.197  0.00  0.00    +0.000 A 
ATOM      3  N   UNL     1      46.717   6.509  13.728  0.00  0.00    +0.000 NA
ATOM      4  C   UNL     1      46.119   5.484  13.074  0.00  0.00    +0.000 A 
ATOM      5  C   UNL     1      46.185   4.104  13.362  0.00  0.00    +0.000 A 
ATOM      6  C   UNL     1      45.448   3.447  12.401  0.00  0.00    +0.000 A 
ATOM      7  N   UNL     1      44.925   4.393  11.544  0.00  0.00    +0.000 N 
ATOM      8  C   UNL     1      45.311   5.655  11.948  0.00  0.00    +0.000 A 
ATOM      9  C   UNL     1      45.062   6.936  11.441  0.00  0.00    +0.000 A 
ENDROOT
BRANCH   1  10
ATOM     10  C   UNL     1      45.540   9.414  11.582  0.00  0.00    +0.000 C 
BRANCH  10  11
ATOM     11  C   UNL     1      44.110   9.718  11.123  0.00  0.00    +0.000 C 
BRANCH  11  12
ATOM     12  N   UNL     1      43.383  10.454  12.157  0.00  0.00    +0.000 NA
ATOM     13  H   UNL     1      43.635  10.087  13.074  0.00  0.00    +0.000 HD
ATOM     14  H   UNL     1      42.381  10.296  12.054  0.00  0.00    +0.000 HD
ENDBRANCH  11  12
ENDBRANCH  10  11
ENDBRANCH   1  10
BRANCH   7  15
ATOM     15  C   UNL     1      44.179   4.068  10.331  0.00  0.00    +0.000 C 
BRANCH  15  16
ATOM     16  C   UNL     1      45.077   3.514   9.255  0.00  0.00    +0.000 A 
ATOM     17  C   UNL     1      45.708   4.369   8.341  0.00  0.00    +0.000 A 
ATOM     18  C   UNL     1      46.492   3.850   7.310  0.00  0.00    +0.000 A 
ATOM     19  C   UNL     1      46.655   2.472   7.183  0.00  0.00    +0.000 A 
ATOM     20  C   UNL     1      46.050   1.613   8.097  0.00  0.00    +0.000 A 
ATOM     21  C   UNL     1      45.267   2.130   9.129  0.00  0.00    +0.000 A 
ENDBRANCH  15  16
ENDBRANCH   7  15
TORSDOF 5
ENDMDL
MODEL 5
REMARK VINA RESULT:    -6.272      1.612      2.338
REMARK INTER + INTRA:          -8.453
REMARK INTER:                  -7.929
REMARK INTRA:                  -0.524
REMARK UNBOUND:                -0.531
REMARK  Name = 
REMARK  5 active torsions:
REMARK  status: ('A' for Active; 'I' for Inactive)
REMARK    1  A    between atoms: N_1  and  C_2
REMARK    2  A    between atoms: C_2  and  C_3
REMARK    3  A    between atoms: C_3  and  C_4
REMARK    4  A    between atoms: N_10  and  C_11
REMARK    5  A    between atoms: C_11  and  C_12
REMARK                            x       y       z     vdW  Elec       q    Type
REMARK                         _______ _______ _______ _____ _____    ______ ____
ROOT
ATOM      1  C   UNL     1      47.869   7.725  12.321  0.00  0.00    +0.000 A 
ATOM      2  C   UNL     1      48.533   7.157  13.407  0.00  0.00    +0.000 A 
ATOM      3  N   UNL     1      48.231   5.977  13.990  0.00  0.00    +0.000 NA
ATOM      4  C   UNL     1      47.201   5.307  13.421  0.00  0.00    +0.000 A 
ATOM      5  C   UNL     1      46.670   4.050  13.777  0.00  0.00    +0.000 A 
ATOM      6  C   UNL     1      45.656   3.764  12.889  0.00  0.00    +0.000 A 
ATOM      7  N   UNL     1      45.548   4.820  12.010  0.00  0.00    +0.000 N 
ATOM      8  C   UNL     1      46.478   5.790  12.328  0.00  0.00    +0.000 A 
ATOM      9  C   UNL     1      46.786   7.035  11.766  0.00  0.00    +0.000 A 
ENDROOT
BRANCH   1  10
ATOM     10  C   UNL     1      48.317   9.046  11.753  0.00  0.00    +0.000 C 
BRANCH  10  11
ATOM     11  C   UNL     1      49.009   9.931  12.795  0.00  0.00    +0.000 C 
BRANCH  11  12
ATOM     12  N   UNL     1      48.057  10.868  13.389  0.00  0.00    +0.000 NA
ATOM     13  H   UNL     1      47.406  10.358  13.985  0.00  0.00    +0.000 HD
ATOM     14  H   UNL     1      47.492  11.298  12.657  0.00  0.00    +0.000 HD
ENDBRANCH  11  12
ENDBRANCH  10  11
ENDBRANCH   1  10
BRANCH   7  15
ATOM     15  C   UNL     1      44.657   4.829  10.853  0.00  0.00    +0.000 C 
BRANCH  15  16
ATOM     16  C   UNL     1      45.229   4.046   9.701  0.00  0.00    +0.000 A 
ATOM     17  C   UNL     1      45.876   4.701   8.643  0.00  0.00    +0.000 A 
ATOM     18  C   UNL     1      46.354   3.978   7.549  0.00  0.00    +0.000 A 
ATOM     19  C   UNL     1      46.193   2.596   7.501  0.00  0.00    +0.000 A 
ATOM     20  C   UNL     1      45.571   1.931   8.555  0.00  0.00    +0.000 A 
ATOM     21  C   UNL     1      45.093   2.650   9.650  0.00  0.00    +0.000 A 
ENDBRANCH  15  16
ENDBRANCH   7  15
TORSDOF 5
ENDMDL
MODEL 6
REMARK VINA RESULT:    -6.272      2.475      4.014
REMARK INTER + INTRA:          -8.453
REMARK INTER:                  -8.189
REMARK INTRA:                  -0.265
REMARK UNBOUND:                -0.531
REMARK  Name = 
REMARK  5 active torsions:
REMARK  status: ('A' for Active; 'I' for Inactive)
REMARK    1  A    between atoms: N_1  and  C_2
REMARK    2  A    between atoms: C_2  and  C_3
REMARK    3  A    between atoms: C_3  and  C_4
REMARK    4  A    between atoms: N_10  and  C_11
REMARK    5  A    between atoms: C_11  and  C_12
REMARK                            x       y       z     vdW  Elec       q    Type
REMARK                         _______ _______ _______ _____ _____    ______ ____
ROOT
ATOM      1  C   UNL     1      47.428   4.497  15.536  0.00  0.00    +0.000 A 
ATOM      2  C   UNL     1      48.373   5.518  15.614  0.00  0.00    +0.000 A 
ATOM      3  N   UNL     1      48.540   6.511  14.716  0.00  0.00    +0.000 NA
ATOM      4  C   UNL     1      47.675   6.490  13.674  0.00  0.00    +0.000 A 
ATOM      5  C   UNL     1      47.576   7.396  12.598  0.00  0.00    +0.000 A 
ATOM      6  C   UNL     1      46.523   6.988  11.809  0.00  0.00    +0.000 A 
ATOM      7  N   UNL     1      45.987   5.848  12.371  0.00  0.00    +0.000 N 
ATOM      8  C   UNL     1      46.690   5.513  13.510  0.00  0.00    +0.000 A 
ATOM      9  C   UNL     1      46.563   4.471  14.437  0.00  0.00    +0.000 A 
ENDROOT
BRANCH   1  10
ATOM     10  C   UNL     1      47.334   3.452  16.618  0.00  0.00    +0.000 C 
BRANCH  10  11
ATOM     11  C   UNL     1      48.709   2.961  17.082  0.00  0.00    +0.000 C 
BRANCH  11  12
ATOM     12  N   UNL     1      49.212   1.917  16.190  0.00  0.00    +0.000 NA
ATOM     13  H   UNL     1      49.088   2.211  15.222  0.00  0.00    +0.000 HD
ATOM     14  H   UNL     1      48.655   1.070  16.301  0.00  0.00    +0.000 HD
ENDBRANCH  11  12
ENDBRANCH  10  11
ENDBRANCH   1  10
BRANCH   7  15
ATOM     15  C   UNL     1      44.782   5.187  11.878  0.00  0.00    +0.000 C 
BRANCH  15  16
ATOM     16  C   UNL     1      45.049   4.400  10.622  0.00  0.00    +0.000 A 
ATOM     17  C   UNL     1      45.520   5.038   9.466  0.00  0.00    +0.000 A 
ATOM     18  C   UNL     1      45.712   4.316   8.287  0.00  0.00    +0.000 A 
ATOM     19  C   UNL     1      45.439   2.951   8.251  0.00  0.00    +0.000 A 
ATOM     20  C   UNL     1      44.991   2.301   9.398  0.00  0.00    +0.000 A 
ATOM     21  C   UNL     1      44.800   3.020  10.579  0.00  0.00    +0.000 A 
ENDBRANCH  15  16
ENDBRANCH   7  15
TORSDOF 5
ENDMDL
MODEL 7
REMARK VINA RESULT:    -5.592      2.641      6.126
REMARK INTER + INTRA:          -7.594
REMARK INTER:                  -7.281
REMARK INTRA:                  -0.313
REMARK UNBOUND:                -0.531
REMARK  Name = 
REMARK  5 active torsions:
REMARK  status: ('A' for Active; 'I' for Inactive)
REMARK    1  A    between atoms: N_1  and  C_2
REMARK    2  A    between atoms: C_2  and  C_3
REMARK    3  A    between atoms: C_3  and  C_4
REMARK    4  A    between atoms: N_10  and  C_11
REMARK    5  A    between atoms: C_11  and  C_12
REMARK                            x       y       z     vdW  Elec       q    Type
REMARK                         _______ _______ _______ _____ _____    ______ ____
ROOT
ATOM      1  C   UNL     1      45.564   4.434   8.846  0.00  0.00    +0.000 A 
ATOM      2  C   UNL     1      44.478   3.575   9.000  0.00  0.00    +0.000 A 
ATOM      3  N   UNL     1      43.660   3.518  10.072  0.00  0.00    +0.000 NA
ATOM      4  C   UNL     1      43.941   4.410  11.052  0.00  0.00    +0.000 A 
ATOM      5  C   UNL     1      43.261   4.618  12.270  0.00  0.00    +0.000 A 
ATOM      6  C   UNL     1      43.889   5.657  12.921  0.00  0.00    +0.000 A 
ATOM      7  N   UNL     1      44.941   6.079  12.136  0.00  0.00    +0.000 N 
ATOM      8  C   UNL     1      45.003   5.315  10.988  0.00  0.00    +0.000 A 
ATOM      9  C   UNL     1      45.860   5.327   9.881  0.00  0.00    +0.000 A 
ENDROOT
BRANCH   1  10
ATOM     10  C   UNL     1      46.392   4.407   7.587  0.00  0.00    +0.000 C 
BRANCH  10  11
ATOM     11  C   UNL     1      46.304   3.065   6.853  0.00  0.00    +0.000 C 
BRANCH  11  12
ATOM     12  N   UNL     1      47.420   2.198   7.229  0.00  0.00    +0.000 NA
ATOM     13  H   UNL     1      48.284   2.569   6.834  0.00  0.00    +0.000 HD
ATOM     14  H   UNL     1      47.294   1.274   6.816  0.00  0.00    +0.000 HD
ENDBRANCH  11  12
ENDBRANCH  10  11
ENDBRANCH   1  10
BRANCH   7  15
ATOM     15  C   UNL     1      45.771   7.240  12.443  0.00  0.00    +0.000 C 
BRANCH  15  16
ATOM     16  C   UNL     1      45.185   8.510  11.885  0.00  0.00    +0.000 A 
ATOM     17  C   UNL     1      45.782   9.750  12.152  0.00  0.00    +0.000 A 
ATOM     18  C   UNL     1      45.204  10.930  11.682  0.00  0.00    +0.000 A 
ATOM     19  C   UNL     1      44.027  10.884  10.938  0.00  0.00    +0.000 A 
ATOM     20  C   UNL     1      43.436   9.657  10.649  0.00  0.00    +0.000 A 
ATOM     21  C   UNL     1      44.012   8.476  11.116  0.00  0.00    +0.000 A 
ENDBRANCH  15  16
ENDBRANCH   7  15
TORSDOF 5
ENDMDL
MODEL 8
REMARK VINA RESULT:    -5.342      2.719      4.431
REMARK INTER + INTRA:          -7.279
REMARK INTER:                  -6.850
REMARK INTRA:                  -0.429
REMARK UNBOUND:                -0.531
REMARK  Name = 
REMARK  5 active torsions:
REMARK  status: ('A' for Active; 'I' for Inactive)
REMARK    1  A    between atoms: N_1  and  C_2
REMARK    2  A    between atoms: C_2  and  C_3
REMARK    3  A    between atoms: C_3  and  C_4
REMARK    4  A    between atoms: N_10  and  C_11
REMARK    5  A    between atoms: C_11  and  C_12
REMARK                            x       y       z     vdW  Elec       q    Type
REMARK                         _______ _______ _______ _____ _____    ______ ____
ROOT
ATOM      1  C   UNL     1      45.293   9.607  11.995  0.00  0.00    +0.000 A 
ATOM      2  C   UNL     1      46.614  10.028  12.132  0.00  0.00    +0.000 A 
ATOM      3  N   UNL     1      47.658   9.253  12.492  0.00  0.00    +0.000 NA
ATOM      4  C   UNL     1      47.354   7.950  12.706  0.00  0.00    +0.000 A 
ATOM      5  C   UNL     1      48.220   6.895  13.061  0.00  0.00    +0.000 A 
ATOM      6  C   UNL     1      47.464   5.745  13.128  0.00  0.00    +0.000 A 
ATOM      7  N   UNL     1      46.158   6.076  12.835  0.00  0.00    +0.000 N 
ATOM      8  C   UNL     1      46.063   7.431  12.588  0.00  0.00    +0.000 A 
ATOM      9  C   UNL     1      44.990   8.265  12.251  0.00  0.00    +0.000 A 
ENDROOT
BRANCH   1  10
ATOM     10  C   UNL     1      44.218  10.574  11.570  0.00  0.00    +0.000 C 
BRANCH  10  11
ATOM     11  C   UNL     1      44.400  11.059  10.129  0.00  0.00    +0.000 C 
BRANCH  11  12
ATOM     12  N   UNL     1      43.528  10.317   9.221  0.00  0.00    +0.000 NA
ATOM     13  H   UNL     1      43.728   9.320   9.299  0.00  0.00    +0.000 HD
ATOM     14  H   UNL     1      43.735  10.572   8.255  0.00  0.00    +0.000 HD
ENDBRANCH  11  12
ENDBRANCH  10  11
ENDBRANCH   1  10
BRANCH   7  15
ATOM     15  C   UNL     1      45.082   5.099  12.696  0.00  0.00    +0.000 C 
BRANCH  15  16
ATOM     16  C   UNL     1      45.054   4.490  11.318  0.00  0.00    +0.000 A 
ATOM     17  C   UNL     1      45.513   5.214  10.209  0.00  0.00    +0.000 A 
ATOM     18  C   UNL     1      45.433   4.670   8.926  0.00  0.00    +0.000 A 
ATOM     19  C   UNL     1      44.896   3.399   8.739  0.00  0.00    +0.000 A 
ATOM     20  C   UNL     1      44.456   2.661   9.835  0.00  0.00    +0.000 A 
ATOM     21  C   UNL     1      44.536   3.202  11.118  0.00  0.00    +0.000 A 
ENDBRANCH  15  16
ENDBRANCH   7  15
TORSDOF 5
ENDMDL
MODEL 9
REMARK VINA RESULT:    -5.339      3.577      7.606
REMARK INTER + INTRA:          -7.275
REMARK INTER:                  -7.023
REMARK INTRA:                  -0.252
REMARK UNBOUND:                -0.531
REMARK  Name = 
REMARK  5 active torsions:
REMARK  status: ('A' for Active; 'I' for Inactive)
REMARK    1  A    between atoms: N_1  and  C_2
REMARK    2  A    between atoms: C_2  and  C_3
REMARK    3  A    between atoms: C_3  and  C_4
REMARK    4  A    between atoms: N_10  and  C_11
REMARK    5  A    between atoms: C_11  and  C_12
REMARK                            x       y       z     vdW  Elec       q    Type
REMARK                         _______ _______ _______ _____ _____    ______ ____
ROOT
ATOM      1  C   UNL     1      45.309   4.855  11.651  0.00  0.00    +0.000 A 
ATOM      2  C   UNL     1      45.919   5.971  11.083  0.00  0.00    +0.000 A 
ATOM      3  N   UNL     1      46.867   6.736  11.664  0.00  0.00    +0.000 NA
ATOM      4  C   UNL     1      47.247   6.333  12.900  0.00  0.00    +0.000 A 
ATOM      5  C   UNL     1      48.225   6.899  13.745  0.00  0.00    +0.000 A 
ATOM      6  C   UNL     1      48.287   6.123  14.882  0.00  0.00    +0.000 A 
ATOM      7  N   UNL     1      47.364   5.107  14.755  0.00  0.00    +0.000 N 
ATOM      8  C   UNL     1      46.700   5.225  13.551  0.00  0.00    +0.000 A 
ATOM      9  C   UNL     1      45.690   4.471  12.941  0.00  0.00    +0.000 A 
ENDROOT
BRANCH   1  10
ATOM     10  C   UNL     1      44.271   4.075  10.887  0.00  0.00    +0.000 C 
BRANCH  10  11
ATOM     11  C   UNL     1      43.155   3.540  11.789  0.00  0.00    +0.000 C 
BRANCH  11  12
ATOM     12  N   UNL     1      43.070   2.083  11.697  0.00  0.00    +0.000 NA
ATOM     13  H   UNL     1      43.337   1.671  12.590  0.00  0.00    +0.000 HD
ATOM     14  H   UNL     1      43.746   1.740  11.014  0.00  0.00    +0.000 HD
ENDBRANCH  11  12
ENDBRANCH  10  11
ENDBRANCH   1  10
BRANCH   7  15
ATOM     15  C   UNL     1      47.218   4.015  15.714  0.00  0.00    +0.000 C 
BRANCH  15  16
ATOM     16  C   UNL     1      47.886   4.332  17.027  0.00  0.00    +0.000 A 
ATOM     17  C   UNL     1      49.165   3.834  17.316  0.00  0.00    +0.000 A 
ATOM     18  C   UNL     1      49.757   4.081  18.556  0.00  0.00    +0.000 A 
ATOM     19  C   UNL     1      49.080   4.828  19.517  0.00  0.00    +0.000 A 
ATOM     20  C   UNL     1      47.818   5.345  19.235  0.00  0.00    +0.000 A 
ATOM     21  C   UNL     1      47.224   5.101  17.996  0.00  0.00    +0.000 A 
ENDBRANCH  15  16
ENDBRANCH   7  15
TORSDOF 5
ENDMDL
