MODEL 1
REMARK VINA RESULT:    -8.820      0.000      0.000
REMARK INTER + INTRA:         -12.231
REMARK INTER:                 -11.398
REMARK INTRA:                  -0.833
REMARK UNBOUND:                -0.833
REMARK  Name = 
REMARK  5 active torsions:
REMARK  status: ('A' for Active; 'I' for Inactive)
REMARK    1  A    between atoms: C_2  and  C_4
REMARK    2  A    between atoms: C_7  and  N_8
REMARK    3  A    between atoms: N_8  and  C_9
REMARK    4  A    between atoms: C_9  and  C_10
REMARK    5  A    between atoms: C_15  and  N_16
REMARK                            x       y       z     vdW  Elec       q    Type
REMARK                         _______ _______ _______ _____ _____    ______ ____
ROOT
ATOM      1  C   UNL     1      43.800   5.140  11.346  0.00  0.00    +0.000 C 
ATOM      2  C   UNL     1      43.580   4.069  12.411  0.00  0.00    +0.000 C 
ATOM      3  C   UNL     1      42.587   5.168  12.268  0.00  0.00    +0.000 C 
ENDROOT
BRANCH   1   4
ATOM      4  C   UNL     1      44.788   6.276  11.592  0.00  0.00    +0.000 A 
ATOM      5  C   UNL     1      44.404   7.617  11.416  0.00  0.00    +0.000 A 
ATOM      6  C   UNL     1      45.238   8.662  11.812  0.00  0.00    +0.000 A 
ATOM      7  C   UNL     1      46.460   8.369  12.404  0.00  0.00    +0.000 A 
ATOM      8  F   UNL     1      47.224   9.400  12.805  0.00  0.00    +0.000 F 
ATOM      9  C   UNL     1      46.912   7.050  12.576  0.00  0.00    +0.000 A 
ATOM     10  C   UNL     1      46.075   6.030  12.107  0.00  0.00    +0.000 A 
BRANCH   9  11
ATOM     11  N   UNL     1      48.084   6.742  13.229  0.00  0.00    +0.000 N 
ATOM     12  C   UNL     1      48.079   6.017  14.503  0.00  0.00    +0.000 C 
ATOM     13  C   UNL     1      48.912   6.797  15.526  0.00  0.00    +0.000 C 
ATOM     14  O   UNL     1      50.245   7.039  15.034  0.00  0.00    +0.000 OA
ATOM     15  C   UNL     1      50.200   7.799  13.811  0.00  0.00    +0.000 C 
ATOM     16  C   UNL     1      49.412   7.066  12.708  0.00  0.00    +0.000 C 
ENDBRANCH   9  11
ENDBRANCH   1   4
BRANCH   1  17
ATOM     17  N   UNL     1      43.645   4.765   9.930  0.00  0.00    +0.000 N 
ATOM     18  H   UNL     1      42.706   4.687   9.552  0.00  0.00    +0.000 HD
BRANCH  17  22
ATOM     19  C   UNL     1      46.506   2.533   7.735  0.00  0.00    +0.000 A 
ATOM     20  C   UNL     1      46.477   3.920   7.631  0.00  0.00    +0.000 A 
ATOM     21  C   UNL     1      45.530   4.656   8.348  0.00  0.00    +0.000 A 
ATOM     22  C   UNL     1      44.619   4.040   9.212  0.00  0.00    +0.000 A 
ATOM     23  C   UNL     1      44.624   2.641   9.269  0.00  0.00    +0.000 A 
ATOM     24  C   UNL     1      45.553   1.889   8.537  0.00  0.00    +0.000 A 
BRANCH  19  26
ATOM     25  N   UNL     1      48.555   2.387   6.419  0.00  0.00    +0.000 N 
ATOM     26  C   UNL     1      47.496   1.721   6.984  0.00  0.00    +0.000 C 
ATOM     27  O   UNL     1      47.396   0.503   6.891  0.00  0.00    +0.000 OA
ATOM     28  H   UNL     1      49.260   1.813   5.982  0.00  0.00    +0.000 HD
ATOM     29  H   UNL     1      48.803   3.332   6.666  0.00  0.00    +0.000 HD
ENDBRANCH  19  26
ENDBRANCH  17  22
ENDBRANCH   1  17
TORSDOF 5
ENDMDL
MODEL 2
REMARK VINA RESULT:    -8.593      1.616      2.101
REMARK INTER + INTRA:         -11.937
REMARK INTER:                 -11.781
REMARK INTRA:                  -0.156
REMARK UNBOUND:                -0.833
REMARK  Name = 
REMARK  5 active torsions:
REMARK  status: ('A' for Active; 'I' for Inactive)
REMARK    1  A    between atoms: C_2  and  C_4
REMARK    2  A    between atoms: C_7  and  N_8
REMARK    3  A    between atoms: N_8  and  C_9
REMARK    4  A    between atoms: C_9  and  C_10
REMARK    5  A    between atoms: C_15  and  N_16
REMARK                            x       y       z     vdW  Elec       q    Type
REMARK                         _______ _______ _______ _____ _____    ______ ____
ROOT
ATOM      1  C   UNL     1      44.110   4.710  11.828  0.00  0.00    +0.000 C 
ATOM      2  C   UNL     1      43.399   3.715  12.741  0.00  0.00    +0.000 C 
ATOM      3  C   UNL     1      42.968   5.139  12.742  0.00  0.00    +0.000 C 
ENDROOT
BRANCH   1   4
ATOM      4  C   UNL     1      45.467   5.284  12.226  0.00  0.00    +0.000 A 
ATOM      5  C   UNL     1      46.019   6.378  11.537  0.00  0.00    +0.000 A 
ATOM      6  C   UNL     1      47.164   7.020  12.005  0.00  0.00    +0.000 A 
ATOM      7  C   UNL     1      47.756   6.579  13.183  0.00  0.00    +0.000 A 
ATOM      8  F   UNL     1      48.839   7.243  13.624  0.00  0.00    +0.000 F 
ATOM      9  C   UNL     1      47.270   5.472  13.897  0.00  0.00    +0.000 A 
ATOM     10  C   UNL     1      46.157   4.813  13.360  0.00  0.00    +0.000 A 
BRANCH   9  11
ATOM     11  N   UNL     1      47.799   5.071  15.103  0.00  0.00    +0.000 N 
ATOM     12  C   UNL     1      47.534   3.737  15.646  0.00  0.00    +0.000 C 
ATOM     13  C   UNL     1      47.017   3.875  17.082  0.00  0.00    +0.000 C 
ATOM     14  O   UNL     1      47.939   4.627  17.896  0.00  0.00    +0.000 OA
ATOM     15  C   UNL     1      48.127   5.948  17.352  0.00  0.00    +0.000 C 
ATOM     16  C   UNL     1      48.686   5.904  15.917  0.00  0.00    +0.000 C 
ENDBRANCH   9  11
ENDBRANCH   1   4
BRANCH   1  17
ATOM     17  N   UNL     1      43.896   4.607  10.374  0.00  0.00    +0.000 N 
ATOM     18  H   UNL     1      42.950   4.696  10.019  0.00  0.00    +0.000 HD
BRANCH  17  22
ATOM     19  C   UNL     1      46.471   2.489   7.753  0.00  0.00    +0.000 A 
ATOM     20  C   UNL     1      46.377   3.875   7.667  0.00  0.00    +0.000 A 
ATOM     21  C   UNL     1      45.523   4.574   8.525  0.00  0.00    +0.000 A 
ATOM     22  C   UNL     1      44.776   3.921   9.511  0.00  0.00    +0.000 A 
ATOM     23  C   UNL     1      44.839   2.523   9.554  0.00  0.00    +0.000 A 
ATOM     24  C   UNL     1      45.674   1.809   8.683  0.00  0.00    +0.000 A 
BRANCH  19  26
ATOM     25  N   UNL     1      48.455   2.372   6.339  0.00  0.00    +0.000 N 
ATOM     26  C   UNL     1      47.364   1.717   6.854  0.00  0.00    +0.000 C 
ATOM     27  O   UNL     1      47.160   0.536   6.599  0.00  0.00    +0.000 OA
ATOM     28  H   UNL     1      49.095   1.812   5.796  0.00  0.00    +0.000 HD
ATOM     29  H   UNL     1      48.789   3.250   6.702  0.00  0.00    +0.000 HD
ENDBRANCH  19  26
ENDBRANCH  17  22
ENDBRANCH   1  17
TORSDOF 5
ENDMDL
MODEL 3
REMARK VINA RESULT:    -8.471      1.554      2.288
REMARK INTER + INTRA:         -11.780
REMARK INTER:                 -11.197
REMARK INTRA:                  -0.583
REMARK UNBOUND:                -0.833
REMARK  Name = 
REMARK  5 active torsions:
REMARK  status: ('A' for Active; 'I' for Inactive)
REMARK    1  A    between atoms: C_2  and  C_4
REMARK    2  A    between atoms: C_7  and  N_8
REMARK    3  A    between atoms: N_8  and  C_9
REMARK    4  A    between atoms: C_9  and  C_10
REMARK    5  A    between atoms: C_15  and  N_16
REMARK                            x       y       z     vdW  Elec       q    Type
REMARK                         _______ _______ _______ _____ _____    ______ ____
ROOT
ATOM      1  C   UNL     1      43.968   4.837  11.532  0.00  0.00    +0.000 C 
ATOM      2  C   UNL     1      43.102   3.697  12.059  0.00  0.00    +0.000 C 
ATOM      3  C   UNL     1      42.630   5.099  12.215  0.00  0.00    +0.000 C 
ENDROOT
BRANCH   1   4
ATOM      4  C   UNL     1      45.173   5.320  12.333  0.00  0.00    +0.000 A 
ATOM      5  C   UNL     1      45.750   4.511  13.328  0.00  0.00    +0.000 A 
ATOM      6  C   UNL     1      46.954   4.865  13.934  0.00  0.00    +0.000 A 
ATOM      7  C   UNL     1      47.601   6.028  13.533  0.00  0.00    +0.000 A 
ATOM      8  F   UNL     1      48.777   6.321  14.115  0.00  0.00    +0.000 F 
ATOM      9  C   UNL     1      47.059   6.892  12.569  0.00  0.00    +0.000 A 
ATOM     10  C   UNL     1      45.816   6.536  12.029  0.00  0.00    +0.000 A 
BRANCH   9  11
ATOM     11  N   UNL     1      47.722   8.006  12.106  0.00  0.00    +0.000 N 
ATOM     12  C   UNL     1      48.983   7.891  11.369  0.00  0.00    +0.000 C 
ATOM     13  C   UNL     1      50.030   8.799  12.024  0.00  0.00    +0.000 C 
ATOM     14  O   UNL     1      49.561  10.159  12.104  0.00  0.00    +0.000 OA
ATOM     15  C   UNL     1      48.349  10.229  12.881  0.00  0.00    +0.000 C 
ATOM     16  C   UNL     1      47.224   9.372  12.269  0.00  0.00    +0.000 C 
ENDBRANCH   9  11
ENDBRANCH   1   4
BRANCH   1  17
ATOM     17  N   UNL     1      44.100   5.004  10.075  0.00  0.00    +0.000 N 
ATOM     18  H   UNL     1      43.325   5.414   9.564  0.00  0.00    +0.000 HD
BRANCH  17  22
ATOM     19  C   UNL     1      46.619   2.593   7.662  0.00  0.00    +0.000 A 
ATOM     20  C   UNL     1      46.682   3.980   7.564  0.00  0.00    +0.000 A 
ATOM     21  C   UNL     1      45.847   4.776   8.353  0.00  0.00    +0.000 A 
ATOM     22  C   UNL     1      44.963   4.218   9.282  0.00  0.00    +0.000 A 
ATOM     23  C   UNL     1      44.871   2.822   9.335  0.00  0.00    +0.000 A 
ATOM     24  C   UNL     1      45.687   2.012   8.532  0.00  0.00    +0.000 A 
BRANCH  19  26
ATOM     25  N   UNL     1      48.636   2.276   6.325  0.00  0.00    +0.000 N 
ATOM     26  C   UNL     1      47.489   1.720   6.835  0.00  0.00    +0.000 C 
ATOM     27  O   UNL     1      47.218   0.541   6.634  0.00  0.00    +0.000 OA
ATOM     28  H   UNL     1      49.255   1.649   5.835  0.00  0.00    +0.000 HD
ATOM     29  H   UNL     1      49.014   3.150   6.655  0.00  0.00    +0.000 HD
ENDBRANCH  19  26
ENDBRANCH  17  22
ENDBRANCH   1  17
TORSDOF 5
ENDMDL
MODEL 4
REMARK VINA RESULT:    -7.346      1.435      1.995
REMARK INTER + INTRA:         -10.326
REMARK INTER:                 -10.239
REMARK INTRA:                  -0.087
REMARK UNBOUND:                -0.833
REMARK  Name = 
REMARK  5 active torsions:
REMARK  status: ('A' for Active; 'I' for Inactive)
REMARK    1  A    between atoms: C_2  and  C_4
REMARK    2  A    between atoms: C_7  and  N_8
REMARK    3  A    between atoms: N_8  and  C_9
REMARK    4  A    between atoms: C_9  and  C_10
REMARK    5  A    between atoms: C_15  and  N_16
REMARK                            x       y       z     vdW  Elec       q    Type
REMARK                         _______ _______ _______ _____ _____    ______ ____
ROOT
ATOM      1  C   UNL     1      44.247   4.420  11.632  0.00  0.00    +0.000 C 
ATOM      2  C   UNL     1      44.891   3.521  12.684  0.00  0.00    +0.000 C 
ATOM      3  C   UNL     1      43.521   4.051  12.921  0.00  0.00    +0.000 C 
ENDROOT
BRANCH   1   4
ATOM      4  C   UNL     1      44.631   5.894  11.542  0.00  0.00    +0.000 A 
ATOM      5  C   UNL     1      43.657   6.882  11.316  0.00  0.00    +0.000 A 
ATOM      6  C   UNL     1      43.970   8.237  11.414  0.00  0.00    +0.000 A 
ATOM      7  C   UNL     1      45.263   8.612  11.757  0.00  0.00    +0.000 A 
ATOM      8  F   UNL     1      45.521   9.927  11.875  0.00  0.00    +0.000 F 
ATOM      9  C   UNL     1      46.286   7.673  11.962  0.00  0.00    +0.000 A 
ATOM     10  C   UNL     1      45.949   6.324  11.792  0.00  0.00    +0.000 A 
BRANCH   9  11
ATOM     11  N   UNL     1      47.551   8.025  12.377  0.00  0.00    +0.000 N 
ATOM     12  C   UNL     1      47.880   9.409  12.728  0.00  0.00    +0.000 C 
ATOM     13  C   UNL     1      49.126   9.840  11.947  0.00  0.00    +0.000 C 
ATOM     14  O   UNL     1      50.224   8.936  12.179  0.00  0.00    +0.000 OA
ATOM     15  C   UNL     1      49.871   7.600  11.769  0.00  0.00    +0.000 C 
ATOM     16  C   UNL     1      48.647   7.069  12.538  0.00  0.00    +0.000 C 
ENDBRANCH   9  11
ENDBRANCH   1   4
BRANCH   1  17
ATOM     17  N   UNL     1      43.833   3.820  10.352  0.00  0.00    +0.000 N 
ATOM     18  H   UNL     1      42.940   3.341  10.311  0.00  0.00    +0.000 HD
BRANCH  17  22
ATOM     19  C   UNL     1      46.646   2.687   7.388  0.00  0.00    +0.000 A 
ATOM     20  C   UNL     1      46.011   1.714   8.152  0.00  0.00    +0.000 A 
ATOM     21  C   UNL     1      45.089   2.086   9.135  0.00  0.00    +0.000 A 
ATOM     22  C   UNL     1      44.748   3.425   9.354  0.00  0.00    +0.000 A 
ATOM     23  C   UNL     1      45.432   4.398   8.615  0.00  0.00    +0.000 A 
ATOM     24  C   UNL     1      46.376   4.039   7.643  0.00  0.00    +0.000 A 
BRANCH  19  26
ATOM     25  N   UNL     1      47.471   2.894   5.101  0.00  0.00    +0.000 N 
ATOM     26  C   UNL     1      47.633   2.326   6.340  0.00  0.00    +0.000 C 
ATOM     27  O   UNL     1      48.574   1.575   6.570  0.00  0.00    +0.000 OA
ATOM     28  H   UNL     1      48.195   2.703   4.425  0.00  0.00    +0.000 HD
ATOM     29  H   UNL     1      46.869   3.686   4.936  0.00  0.00    +0.000 HD
ENDBRANCH  19  26
ENDBRANCH  17  22
ENDBRANCH   1  17
TORSDOF 5
ENDMDL
MODEL 5
REMARK VINA RESULT:    -7.241      1.808      2.587
REMARK INTER + INTRA:         -10.190
REMARK INTER:                  -9.939
REMARK INTRA:                  -0.251
REMARK UNBOUND:                -0.833
REMARK  Name = 
REMARK  5 active torsions:
REMARK  status: ('A' for Active; 'I' for Inactive)
REMARK    1  A    between atoms: C_2  and  C_4
REMARK    2  A    between atoms: C_7  and  N_8
REMARK    3  A    between atoms: N_8  and  C_9
REMARK    4  A    between atoms: C_9  and  C_10
REMARK    5  A    between atoms: C_15  and  N_16
REMARK                            x       y       z     vdW  Elec       q    Type
REMARK                         _______ _______ _______ _____ _____    ______ ____
ROOT
ATOM      1  C   UNL     1      44.569   5.929  11.226  0.00  0.00    +0.000 C 
ATOM      2  C   UNL     1      43.804   7.207  11.557  0.00  0.00    +0.000 C 
ATOM      3  C   UNL     1      45.146   7.306  10.924  0.00  0.00    +0.000 C 
ENDROOT
BRANCH   1   4
ATOM      4  C   UNL     1      45.316   5.174  12.322  0.00  0.00    +0.000 A 
ATOM      5  C   UNL     1      45.227   3.775  12.425  0.00  0.00    +0.000 A 
ATOM      6  C   UNL     1      46.044   3.064  13.302  0.00  0.00    +0.000 A 
ATOM      7  C   UNL     1      46.973   3.753  14.073  0.00  0.00    +0.000 A 
ATOM      8  F   UNL     1      47.769   3.033  14.884  0.00  0.00    +0.000 F 
ATOM      9  C   UNL     1      47.086   5.152  14.038  0.00  0.00    +0.000 A 
ATOM     10  C   UNL     1      46.203   5.836  13.192  0.00  0.00    +0.000 A 
BRANCH   9  11
ATOM     11  N   UNL     1      48.051   5.841  14.737  0.00  0.00    +0.000 N 
ATOM     12  C   UNL     1      48.393   5.485  16.117  0.00  0.00    +0.000 C 
ATOM     13  C   UNL     1      48.317   6.742  16.991  0.00  0.00    +0.000 C 
ATOM     14  O   UNL     1      49.156   7.790  16.468  0.00  0.00    +0.000 OA
ATOM     15  C   UNL     1      48.749   8.141  15.131  0.00  0.00    +0.000 C 
ATOM     16  C   UNL     1      48.834   6.939  14.171  0.00  0.00    +0.000 C 
ENDBRANCH   9  11
ENDBRANCH   1   4
BRANCH   1  17
ATOM     17  N   UNL     1      44.074   5.077  10.131  0.00  0.00    +0.000 N 
ATOM     18  H   UNL     1      43.115   4.746  10.173  0.00  0.00    +0.000 HD
BRANCH  17  22
ATOM     19  C   UNL     1      46.544   2.682   7.653  0.00  0.00    +0.000 A 
ATOM     20  C   UNL     1      46.682   4.066   7.642  0.00  0.00    +0.000 A 
ATOM     21  C   UNL     1      45.864   4.857   8.453  0.00  0.00    +0.000 A 
ATOM     22  C   UNL     1      44.920   4.294   9.319  0.00  0.00    +0.000 A 
ATOM     23  C   UNL     1      44.755   2.904   9.283  0.00  0.00    +0.000 A 
ATOM     24  C   UNL     1      45.554   2.101   8.457  0.00  0.00    +0.000 A 
BRANCH  19  26
ATOM     25  N   UNL     1      48.489   2.392   6.209  0.00  0.00    +0.000 N 
ATOM     26  C   UNL     1      47.394   1.813   6.801  0.00  0.00    +0.000 C 
ATOM     27  O   UNL     1      47.154   0.621   6.649  0.00  0.00    +0.000 OA
ATOM     28  H   UNL     1      49.101   1.772   5.700  0.00  0.00    +0.000 HD
ATOM     29  H   UNL     1      48.856   3.288   6.491  0.00  0.00    +0.000 HD
ENDBRANCH  19  26
ENDBRANCH  17  22
ENDBRANCH   1  17
TORSDOF 5
ENDMDL
MODEL 6
REMARK VINA RESULT:    -6.938      3.192      5.289
REMARK INTER + INTRA:          -9.798
REMARK INTER:                  -8.627
REMARK INTRA:                  -1.172
REMARK UNBOUND:                -0.833
REMARK  Name = 
REMARK  5 active torsions:
REMARK  status: ('A' for Active; 'I' for Inactive)
REMARK    1  A    between atoms: C_2  and  C_4
REMARK    2  A    between atoms: C_7  and  N_8
REMARK    3  A    between atoms: N_8  and  C_9
REMARK    4  A    between atoms: C_9  and  C_10
REMARK    5  A    between atoms: C_15  and  N_16
REMARK                            x       y       z     vdW  Elec       q    Type
REMARK                         _______ _______ _______ _____ _____    ______ ____
ROOT
ATOM      1  C   UNL     1      48.007   7.752  13.136  0.00  0.00    +0.000 C 
ATOM      2  C   UNL     1      48.910   8.450  12.123  0.00  0.00    +0.000 C 
ATOM      3  C   UNL     1      48.988   6.972  12.269  0.00  0.00    +0.000 C 
ENDROOT
BRANCH   1   4
ATOM      4  C   UNL     1      48.366   7.760  14.618  0.00  0.00    +0.000 A 
ATOM      5  C   UNL     1      48.274   8.940  15.378  0.00  0.00    +0.000 A 
ATOM      6  C   UNL     1      48.424   8.918  16.763  0.00  0.00    +0.000 A 
ATOM      7  C   UNL     1      48.649   7.705  17.403  0.00  0.00    +0.000 A 
ATOM      8  F   UNL     1      48.753   7.716  18.743  0.00  0.00    +0.000 F 
ATOM      9  C   UNL     1      48.782   6.499  16.696  0.00  0.00    +0.000 A 
ATOM     10  C   UNL     1      48.692   6.572  15.300  0.00  0.00    +0.000 A 
BRANCH   9  11
ATOM     11  N   UNL     1      48.929   5.281  17.320  0.00  0.00    +0.000 N 
ATOM     12  C   UNL     1      50.194   4.895  17.950  0.00  0.00    +0.000 C 
ATOM     13  C   UNL     1      50.620   3.522  17.419  0.00  0.00    +0.000 C 
ATOM     14  O   UNL     1      49.582   2.542  17.619  0.00  0.00    +0.000 OA
ATOM     15  C   UNL     1      48.376   2.939  16.938  0.00  0.00    +0.000 C 
ATOM     16  C   UNL     1      47.852   4.297  17.443  0.00  0.00    +0.000 C 
ENDBRANCH   9  11
ENDBRANCH   1   4
BRANCH   1  17
ATOM     17  N   UNL     1      46.562   7.686  12.861  0.00  0.00    +0.000 N 
ATOM     18  H   UNL     1      45.954   8.361  13.314  0.00  0.00    +0.000 HD
BRANCH  17  22
ATOM     19  C   UNL     1      44.661   4.134  11.538  0.00  0.00    +0.000 A 
ATOM     20  C   UNL     1      45.023   4.273  12.874  0.00  0.00    +0.000 A 
ATOM     21  C   UNL     1      45.657   5.439  13.310  0.00  0.00    +0.000 A 
ATOM     22  C   UNL     1      45.908   6.508  12.443  0.00  0.00    +0.000 A 
ATOM     23  C   UNL     1      45.586   6.336  11.091  0.00  0.00    +0.000 A 
ATOM     24  C   UNL     1      44.972   5.161  10.637  0.00  0.00    +0.000 A 
BRANCH  19  26
ATOM     25  N   UNL     1      44.556   2.275   9.961  0.00  0.00    +0.000 N 
ATOM     26  C   UNL     1      43.991   2.906  11.042  0.00  0.00    +0.000 C 
ATOM     27  O   UNL     1      42.992   2.449  11.586  0.00  0.00    +0.000 OA
ATOM     28  H   UNL     1      44.137   1.399   9.688  0.00  0.00    +0.000 HD
ATOM     29  H   UNL     1      45.491   2.471   9.639  0.00  0.00    +0.000 HD
ENDBRANCH  19  26
ENDBRANCH  17  22
ENDBRANCH   1  17
TORSDOF 5
ENDMDL
MODEL 7
REMARK VINA RESULT:    -6.462      2.873      7.177
REMARK INTER + INTRA:          -9.184
REMARK INTER:                  -8.815
REMARK INTRA:                  -0.369
REMARK UNBOUND:                -0.833
REMARK  Name = 
REMARK  5 active torsions:
REMARK  status: ('A' for Active; 'I' for Inactive)
REMARK    1  A    between atoms: C_2  and  C_4
REMARK    2  A    between atoms: C_7  and  N_8
REMARK    3  A    between atoms: N_8  and  C_9
REMARK    4  A    between atoms: C_9  and  C_10
REMARK    5  A    between atoms: C_15  and  N_16
REMARK                            x       y       z     vdW  Elec       q    Type
REMARK                         _______ _______ _______ _____ _____    ______ ____
ROOT
ATOM      1  C   UNL     1      48.310   7.605  12.735  0.00  0.00    +0.000 C 
ATOM      2  C   UNL     1      49.268   6.845  11.822  0.00  0.00    +0.000 C 
ATOM      3  C   UNL     1      49.229   8.331  11.760  0.00  0.00    +0.000 C 
ENDROOT
BRANCH   1   4
ATOM      4  C   UNL     1      46.830   7.708  12.380  0.00  0.00    +0.000 A 
ATOM      5  C   UNL     1      46.208   8.961  12.234  0.00  0.00    +0.000 A 
ATOM      6  C   UNL     1      44.911   9.066  11.734  0.00  0.00    +0.000 A 
ATOM      7  C   UNL     1      44.231   7.914  11.358  0.00  0.00    +0.000 A 
ATOM      8  F   UNL     1      42.996   8.055  10.848  0.00  0.00    +0.000 F 
ATOM      9  C   UNL     1      44.788   6.634  11.510  0.00  0.00    +0.000 A 
ATOM     10  C   UNL     1      46.067   6.564  12.077  0.00  0.00    +0.000 A 
BRANCH   9  11
ATOM     11  N   UNL     1      44.159   5.490  11.073  0.00  0.00    +0.000 N 
ATOM     12  C   UNL     1      43.021   4.920  11.798  0.00  0.00    +0.000 C 
ATOM     13  C   UNL     1      43.294   3.438  12.074  0.00  0.00    +0.000 C 
ATOM     14  O   UNL     1      43.581   2.726  10.854  0.00  0.00    +0.000 OA
ATOM     15  C   UNL     1      44.738   3.289  10.204  0.00  0.00    +0.000 C 
ATOM     16  C   UNL     1      44.534   4.774   9.852  0.00  0.00    +0.000 C 
ENDBRANCH   9  11
ENDBRANCH   1   4
BRANCH   1  17
ATOM     17  N   UNL     1      48.591   7.636  14.180  0.00  0.00    +0.000 N 
ATOM     18  H   UNL     1      49.295   8.283  14.521  0.00  0.00    +0.000 HD
BRANCH  17  22
ATOM     19  C   UNL     1      47.837   4.406  16.823  0.00  0.00    +0.000 A 
ATOM     20  C   UNL     1      47.275   4.409  15.550  0.00  0.00    +0.000 A 
ATOM     21  C   UNL     1      47.517   5.476  14.680  0.00  0.00    +0.000 A 
ATOM     22  C   UNL     1      48.350   6.542  15.037  0.00  0.00    +0.000 A 
ATOM     23  C   UNL     1      48.867   6.554  16.338  0.00  0.00    +0.000 A 
ATOM     24  C   UNL     1      48.613   5.500  17.228  0.00  0.00    +0.000 A 
BRANCH  19  26
ATOM     25  N   UNL     1      48.425   3.203  18.862  0.00  0.00    +0.000 N 
ATOM     26  C   UNL     1      47.596   3.290  17.772  0.00  0.00    +0.000 C 
ATOM     27  O   UNL     1      46.679   2.493  17.613  0.00  0.00    +0.000 OA
ATOM     28  H   UNL     1      48.198   2.490  19.538  0.00  0.00    +0.000 HD
ATOM     29  H   UNL     1      49.025   3.958  19.157  0.00  0.00    +0.000 HD
ENDBRANCH  19  26
ENDBRANCH  17  22
ENDBRANCH   1  17
TORSDOF 5
ENDMDL
MODEL 8
REMARK VINA RESULT:    -6.330      2.905      8.290
REMARK INTER + INTRA:          -9.012
REMARK INTER:                  -7.787
REMARK INTRA:                  -1.225
REMARK UNBOUND:                -0.833
REMARK  Name = 
REMARK  5 active torsions:
REMARK  status: ('A' for Active; 'I' for Inactive)
REMARK    1  A    between atoms: C_2  and  C_4
REMARK    2  A    between atoms: C_7  and  N_8
REMARK    3  A    between atoms: N_8  and  C_9
REMARK    4  A    between atoms: C_9  and  C_10
REMARK    5  A    between atoms: C_15  and  N_16
REMARK                            x       y       z     vdW  Elec       q    Type
REMARK                         _______ _______ _______ _____ _____    ______ ____
ROOT
ATOM      1  C   UNL     1      49.275   7.784  12.614  0.00  0.00    +0.000 C 
ATOM      2  C   UNL     1      50.184   7.787  11.389  0.00  0.00    +0.000 C 
ATOM      3  C   UNL     1      49.830   9.080  12.034  0.00  0.00    +0.000 C 
ENDROOT
BRANCH   1   4
ATOM      4  C   UNL     1      47.766   7.632  12.452  0.00  0.00    +0.000 A 
ATOM      5  C   UNL     1      46.930   8.760  12.380  0.00  0.00    +0.000 A 
ATOM      6  C   UNL     1      45.582   8.637  12.050  0.00  0.00    +0.000 A 
ATOM      7  C   UNL     1      45.063   7.378  11.771  0.00  0.00    +0.000 A 
ATOM      8  F   UNL     1      43.766   7.299  11.423  0.00  0.00    +0.000 F 
ATOM      9  C   UNL     1      45.840   6.212  11.858  0.00  0.00    +0.000 A 
ATOM     10  C   UNL     1      47.174   6.370  12.256  0.00  0.00    +0.000 A 
BRANCH   9  11
ATOM     11  N   UNL     1      45.361   4.968  11.512  0.00  0.00    +0.000 N 
ATOM     12  C   UNL     1      45.202   4.576  10.109  0.00  0.00    +0.000 C 
ATOM     13  C   UNL     1      43.776   4.056   9.894  0.00  0.00    +0.000 C 
ATOM     14  O   UNL     1      43.473   2.980  10.805  0.00  0.00    +0.000 OA
ATOM     15  C   UNL     1      43.593   3.428  12.170  0.00  0.00    +0.000 C 
ATOM     16  C   UNL     1      45.013   3.933  12.486  0.00  0.00    +0.000 C 
ENDBRANCH   9  11
ENDBRANCH   1   4
BRANCH   1  17
ATOM     17  N   UNL     1      49.806   7.254  13.882  0.00  0.00    +0.000 N 
ATOM     18  H   UNL     1      50.320   6.379  13.861  0.00  0.00    +0.000 HD
BRANCH  17  22
ATOM     19  C   UNL     1      48.231   8.170  17.711  0.00  0.00    +0.000 A 
ATOM     20  C   UNL     1      48.384   9.176  16.763  0.00  0.00    +0.000 A 
ATOM     21  C   UNL     1      48.910   8.878  15.503  0.00  0.00    +0.000 A 
ATOM     22  C   UNL     1      49.258   7.572  15.142  0.00  0.00    +0.000 A 
ATOM     23  C   UNL     1      49.148   6.577  16.121  0.00  0.00    +0.000 A 
ATOM     24  C   UNL     1      48.643   6.868  17.396  0.00  0.00    +0.000 A 
BRANCH  19  26
ATOM     25  N   UNL     1      47.652   7.418  19.959  0.00  0.00    +0.000 N 
ATOM     26  C   UNL     1      47.679   8.455  19.059  0.00  0.00    +0.000 C 
ATOM     27  O   UNL     1      47.290   9.573  19.376  0.00  0.00    +0.000 OA
ATOM     28  H   UNL     1      47.351   7.647  20.894  0.00  0.00    +0.000 HD
ATOM     29  H   UNL     1      48.171   6.564  19.827  0.00  0.00    +0.000 HD
ENDBRANCH  19  26
ENDBRANCH  17  22
ENDBRANCH   1  17
TORSDOF 5
ENDMDL
MODEL 9
REMARK VINA RESULT:    -6.179      2.750      7.730
REMARK INTER + INTRA:          -8.818
REMARK INTER:                  -8.095
REMARK INTRA:                  -0.723
REMARK UNBOUND:                -0.833
REMARK  Name = 
REMARK  5 active torsions:
REMARK  status: ('A' for Active; 'I' for Inactive)
REMARK    1  A    between atoms: C_2  and  C_4
REMARK    2  A    between atoms: C_7  and  N_8
REMARK    3  A    between atoms: N_8  and  C_9
REMARK    4  A    between atoms: C_9  and  C_10
REMARK    5  A    between atoms: C_15  and  N_16
REMARK                            x       y       z     vdW  Elec       q    Type
REMARK                         _______ _______ _______ _____ _____    ______ ____
ROOT
ATOM      1  C   UNL     1      48.965   8.175  12.852  0.00  0.00    +0.000 C 
ATOM      2  C   UNL     1      50.039   7.582  11.944  0.00  0.00    +0.000 C 
ATOM      3  C   UNL     1      49.640   9.004  11.765  0.00  0.00    +0.000 C 
ENDROOT
BRANCH   1   4
ATOM      4  C   UNL     1      47.491   7.892  12.585  0.00  0.00    +0.000 A 
ATOM      5  C   UNL     1      46.548   8.935  12.553  0.00  0.00    +0.000 A 
ATOM      6  C   UNL     1      45.239   8.709  12.133  0.00  0.00    +0.000 A 
ATOM      7  C   UNL     1      44.867   7.434  11.722  0.00  0.00    +0.000 A 
ATOM      8  F   UNL     1      43.606   7.260  11.289  0.00  0.00    +0.000 F 
ATOM      9  C   UNL     1      45.754   6.347  11.761  0.00  0.00    +0.000 A 
ATOM     10  C   UNL     1      47.042   6.599  12.252  0.00  0.00    +0.000 A 
BRANCH   9  11
ATOM     11  N   UNL     1      45.424   5.097  11.287  0.00  0.00    +0.000 N 
ATOM     12  C   UNL     1      45.356   4.821   9.850  0.00  0.00    +0.000 C 
ATOM     13  C   UNL     1      44.004   4.177   9.527  0.00  0.00    +0.000 C 
ATOM     14  O   UNL     1      43.787   2.997  10.326  0.00  0.00    +0.000 OA
ATOM     15  C   UNL     1      43.810   3.327  11.729  0.00  0.00    +0.000 C 
ATOM     16  C   UNL     1      45.156   3.946  12.150  0.00  0.00    +0.000 C 
ENDBRANCH   9  11
ENDBRANCH   1   4
BRANCH   1  17
ATOM     17  N   UNL     1      49.293   8.407  14.269  0.00  0.00    +0.000 N 
ATOM     18  H   UNL     1      49.677   9.309  14.534  0.00  0.00    +0.000 HD
BRANCH  17  22
ATOM     19  C   UNL     1      50.218   5.338  17.045  0.00  0.00    +0.000 A 
ATOM     20  C   UNL     1      48.906   5.519  16.619  0.00  0.00    +0.000 A 
ATOM     21  C   UNL     1      48.598   6.534  15.710  0.00  0.00    +0.000 A 
ATOM     22  C   UNL     1      49.587   7.366  15.174  0.00  0.00    +0.000 A 
ATOM     23  C   UNL     1      50.895   7.209  15.649  0.00  0.00    +0.000 A 
ATOM     24  C   UNL     1      51.212   6.208  16.578  0.00  0.00    +0.000 A 
BRANCH  19  26
ATOM     25  N   UNL     1      49.712   4.054  19.057  0.00  0.00    +0.000 N 
ATOM     26  C   UNL     1      50.577   4.272  18.013  0.00  0.00    +0.000 C 
ATOM     27  O   UNL     1      51.585   3.589  17.878  0.00  0.00    +0.000 OA
ATOM     28  H   UNL     1      49.928   3.274  19.659  0.00  0.00    +0.000 HD
ATOM     29  H   UNL     1      48.772   4.417  19.075  0.00  0.00    +0.000 HD
ENDBRANCH  19  26
ENDBRANCH  17  22
ENDBRANCH   1  17
TORSDOF 5
ENDMDL
