MODEL 1
REMARK VINA RESULT:    -7.811      0.000      0.000
REMARK INTER + INTRA:         -11.323
REMARK INTER:                 -10.550
REMARK INTRA:                  -0.773
REMARK UNBOUND:                -0.773
REMARK  Name = 
REMARK  6 active torsions:
REMARK  status: ('A' for Active; 'I' for Inactive)
REMARK    1  A    between atoms: C_2  and  C_25
REMARK    2  A    between atoms: N_3  and  C_4
REMARK    3  A    between atoms: C_4  and  C_5
REMARK    4  A    between atoms: C_8  and  C_9
REMARK    5  A    between atoms: C_9  and  N_10
REMARK    6  A    between atoms: C_11  and  C_13
REMARK                            x       y       z     vdW  Elec       q    Type
REMARK                         _______ _______ _______ _____ _____    ______ ____
ROOT
ATOM      1  C   UNL     1      44.572   5.410  11.325  0.00  0.00    +0.000 A 
ATOM      2  C   UNL     1      44.333   6.786  11.330  0.00  0.00    +0.000 A 
ATOM      3  C   UNL     1      45.185   7.635  12.034  0.00  0.00    +0.000 A 
ATOM      4  C   UNL     1      46.247   7.085  12.746  0.00  0.00    +0.000 A 
ATOM      5  N   UNL     1      46.493   5.749  12.765  0.00  0.00    +0.000 NA
ATOM      6  C   UNL     1      45.660   4.951  12.059  0.00  0.00    +0.000 A 
ENDROOT
BRANCH   1   7
ATOM      7  C   UNL     1      43.699   4.464  10.560  0.00  0.00    +0.000 C 
BRANCH   7  10
ATOM      8  O   UNL     1      45.224   4.955   8.333  0.00  0.00    +0.000 OA
ATOM      9  C   UNL     1      45.208   3.798   8.751  0.00  0.00    +0.000 C 
ATOM     10  N   UNL     1      44.457   3.459   9.859  0.00  0.00    +0.000 N 
ATOM     11  H   UNL     1      44.478   2.504  10.193  0.00  0.00    +0.000 HD
BRANCH   9  12
ATOM     12  C   UNL     1      45.973   2.729   8.126  0.00  0.00    +0.000 A 
ATOM     13  C   UNL     1      45.885   1.380   8.422  0.00  0.00    +0.000 A 
ATOM     14  C   UNL     1      46.764   0.583   7.635  0.00  0.00    +0.000 A 
ATOM     15  C   UNL     1      47.504   1.348   6.764  0.00  0.00    +0.000 A 
ATOM     16  S   UNL     1      47.133   3.012   6.896  0.00  0.00    +0.000 S 
ENDBRANCH   9  12
ENDBRANCH   7  10
ENDBRANCH   1   7
BRANCH   4  17
ATOM     17  C   UNL     1      47.190   7.974  13.519  0.00  0.00    +0.000 C 
BRANCH  17  18
ATOM     18  N   UNL     1      47.662   7.352  14.735  0.00  0.00    +0.000 N 
ATOM     19  C   UNL     1      48.950   6.916  14.892  0.00  0.00    +0.000 C 
ATOM     20  O   UNL     1      49.784   7.020  13.995  0.00  0.00    +0.000 OA
ATOM     21  H   UNL     1      46.943   7.062  15.391  0.00  0.00    +0.000 HD
BRANCH  19  22
ATOM     22  C   UNL     1      49.312   6.383  16.213  0.00  0.00    +0.000 A 
ATOM     23  C   UNL     1      50.296   7.016  16.960  0.00  0.00    +0.000 A 
ATOM     24  S   UNL     1      50.567   6.302  18.485  0.00  0.00    +0.000 S 
ATOM     25  C   UNL     1      49.409   5.093  18.185  0.00  0.00    +0.000 A 
ATOM     26  N   UNL     1      49.161   4.119  19.102  0.00  0.00    +0.000 NA
ATOM     27  C   UNL     1      48.283   3.247  18.731  0.00  0.00    +0.000 A 
ATOM     28  N   UNL     1      47.624   3.266  17.530  0.00  0.00    +0.000 N 
ATOM     29  C   UNL     1      47.803   4.259  16.596  0.00  0.00    +0.000 A 
ATOM     30  O   UNL     1      47.132   4.295  15.571  0.00  0.00    +0.000 OA
ATOM     31  C   UNL     1      48.807   5.246  16.947  0.00  0.00    +0.000 A 
ATOM     32  H   UNL     1      46.933   2.565  17.307  0.00  0.00    +0.000 HD
ENDBRANCH  19  22
ENDBRANCH  17  18
ENDBRANCH   4  17
TORSDOF 6
ENDMDL
MODEL 2
REMARK VINA RESULT:    -7.699      2.067      3.671
REMARK INTER + INTRA:         -11.173
REMARK INTER:                 -10.237
REMARK INTRA:                  -0.936
REMARK UNBOUND:                -0.773
REMARK  Name = 
REMARK  6 active torsions:
REMARK  status: ('A' for Active; 'I' for Inactive)
REMARK    1  A    between atoms: C_2  and  C_25
REMARK    2  A    between atoms: N_3  and  C_4
REMARK    3  A    between atoms: C_4  and  C_5
REMARK    4  A    between atoms: C_8  and  C_9
REMARK    5  A    between atoms: C_9  and  N_10
REMARK    6  A    between atoms: C_11  and  C_13
REMARK                            x       y       z     vdW  Elec       q    Type
REMARK                         _______ _______ _______ _____ _____    ______ ____
ROOT
ATOM      1  C   UNL     1      44.691   4.357  11.520  0.00  0.00    +0.000 A 
ATOM      2  C   UNL     1      44.912   5.606  12.105  0.00  0.00    +0.000 A 
ATOM      3  C   UNL     1      45.676   5.702  13.266  0.00  0.00    +0.000 A 
ATOM      4  C   UNL     1      46.182   4.538  13.837  0.00  0.00    +0.000 A 
ATOM      5  N   UNL     1      45.972   3.312  13.293  0.00  0.00    +0.000 NA
ATOM      6  C   UNL     1      45.241   3.251  12.156  0.00  0.00    +0.000 A 
ENDROOT
BRANCH   1   7
ATOM      7  C   UNL     1      43.899   4.211  10.257  0.00  0.00    +0.000 C 
BRANCH   7  10
ATOM      8  O   UNL     1      45.862   5.210   8.621  0.00  0.00    +0.000 OA
ATOM      9  C   UNL     1      45.578   4.022   8.485  0.00  0.00    +0.000 C 
ATOM     10  N   UNL     1      44.593   3.438   9.258  0.00  0.00    +0.000 N 
ATOM     11  H   UNL     1      44.394   2.453   9.139  0.00  0.00    +0.000 HD
BRANCH   9  12
ATOM     12  C   UNL     1      46.254   3.159   7.527  0.00  0.00    +0.000 A 
ATOM     13  C   UNL     1      46.741   3.538   6.287  0.00  0.00    +0.000 A 
ATOM     14  C   UNL     1      47.356   2.463   5.584  0.00  0.00    +0.000 A 
ATOM     15  C   UNL     1      47.316   1.292   6.304  0.00  0.00    +0.000 A 
ATOM     16  S   UNL     1      46.545   1.495   7.818  0.00  0.00    +0.000 S 
ENDBRANCH   9  12
ENDBRANCH   7  10
ENDBRANCH   1   7
BRANCH   4  17
ATOM     17  C   UNL     1      47.015   4.605  15.094  0.00  0.00    +0.000 C 
BRANCH  17  18
ATOM     18  N   UNL     1      47.765   5.837  15.194  0.00  0.00    +0.000 N 
ATOM     19  C   UNL     1      48.871   5.967  15.990  0.00  0.00    +0.000 C 
ATOM     20  O   UNL     1      49.288   5.040  16.680  0.00  0.00    +0.000 OA
ATOM     21  H   UNL     1      47.313   6.661  14.810  0.00  0.00    +0.000 HD
BRANCH  19  22
ATOM     22  C   UNL     1      49.584   7.251  15.925  0.00  0.00    +0.000 A 
ATOM     23  C   UNL     1      49.924   7.905  17.101  0.00  0.00    +0.000 A 
ATOM     24  S   UNL     1      50.785   9.357  16.856  0.00  0.00    +0.000 S 
ATOM     25  C   UNL     1      50.698   9.186  15.166  0.00  0.00    +0.000 A 
ATOM     26  N   UNL     1      51.232  10.126  14.340  0.00  0.00    +0.000 NA
ATOM     27  C   UNL     1      51.065   9.888  13.081  0.00  0.00    +0.000 A 
ATOM     28  N   UNL     1      50.420   8.791  12.574  0.00  0.00    +0.000 N 
ATOM     29  C   UNL     1      49.912   7.790  13.369  0.00  0.00    +0.000 A 
ATOM     30  O   UNL     1      49.421   6.779  12.880  0.00  0.00    +0.000 OA
ATOM     31  C   UNL     1      50.041   8.025  14.794  0.00  0.00    +0.000 A 
ATOM     32  H   UNL     1      50.340   8.652  11.577  0.00  0.00    +0.000 HD
ENDBRANCH  19  22
ENDBRANCH  17  18
ENDBRANCH   4  17
TORSDOF 6
ENDMDL
MODEL 3
REMARK VINA RESULT:    -7.445      2.587      3.072
REMARK INTER + INTRA:         -10.829
REMARK INTER:                 -10.065
REMARK INTRA:                  -0.764
REMARK UNBOUND:                -0.773
REMARK  Name = 
REMARK  6 active torsions:
REMARK  status: ('A' for Active; 'I' for Inactive)
REMARK    1  A    between atoms: C_2  and  C_25
REMARK    2  A    between atoms: N_3  and  C_4
REMARK    3  A    between atoms: C_4  and  C_5
REMARK    4  A    between atoms: C_8  and  C_9
REMARK    5  A    between atoms: C_9  and  N_10
REMARK    6  A    between atoms: C_11  and  C_13
REMARK                            x       y       z     vdW  Elec       q    Type
REMARK                         _______ _______ _______ _____ _____    ______ ____
ROOT
ATOM      1  C   UNL     1      45.087   4.495  11.782  0.00  0.00    +0.000 A 
ATOM      2  C   UNL     1      45.466   5.665  12.445  0.00  0.00    +0.000 A 
ATOM      3  C   UNL     1      46.253   5.587  13.592  0.00  0.00    +0.000 A 
ATOM      4  C   UNL     1      46.622   4.334  14.072  0.00  0.00    +0.000 A 
ATOM      5  N   UNL     1      46.257   3.182  13.451  0.00  0.00    +0.000 NA
ATOM      6  C   UNL     1      45.507   3.290  12.330  0.00  0.00    +0.000 A 
ENDROOT
BRANCH   1   7
ATOM      7  C   UNL     1      44.265   4.533  10.531  0.00  0.00    +0.000 C 
BRANCH   7  10
ATOM      8  O   UNL     1      46.099   5.399   8.683  0.00  0.00    +0.000 OA
ATOM      9  C   UNL     1      45.743   4.225   8.604  0.00  0.00    +0.000 C 
ATOM     10  N   UNL     1      44.815   3.708   9.485  0.00  0.00    +0.000 N 
ATOM     11  H   UNL     1      44.556   2.733   9.409  0.00  0.00    +0.000 HD
BRANCH   9  12
ATOM     12  C   UNL     1      46.275   3.312   7.603  0.00  0.00    +0.000 A 
ATOM     13  C   UNL     1      46.676   3.646   6.321  0.00  0.00    +0.000 A 
ATOM     14  C   UNL     1      47.155   2.527   5.582  0.00  0.00    +0.000 A 
ATOM     15  C   UNL     1      47.101   1.367   6.320  0.00  0.00    +0.000 A 
ATOM     16  S   UNL     1      46.481   1.634   7.891  0.00  0.00    +0.000 S 
ENDBRANCH   9  12
ENDBRANCH   7  10
ENDBRANCH   1   7
BRANCH   4  17
ATOM     17  C   UNL     1      47.475   4.212  15.312  0.00  0.00    +0.000 C 
BRANCH  17  18
ATOM     18  N   UNL     1      47.505   5.434  16.082  0.00  0.00    +0.000 N 
ATOM     19  C   UNL     1      48.659   5.946  16.612  0.00  0.00    +0.000 C 
ATOM     20  O   UNL     1      49.743   5.385  16.472  0.00  0.00    +0.000 OA
ATOM     21  H   UNL     1      46.604   5.785  16.390  0.00  0.00    +0.000 HD
BRANCH  19  22
ATOM     22  C   UNL     1      48.553   7.242  17.298  0.00  0.00    +0.000 A 
ATOM     23  C   UNL     1      48.869   8.407  16.611  0.00  0.00    +0.000 A 
ATOM     24  S   UNL     1      48.653   9.827  17.531  0.00  0.00    +0.000 S 
ATOM     25  C   UNL     1      48.172   8.934  18.895  0.00  0.00    +0.000 A 
ATOM     26  N   UNL     1      47.859   9.557  20.064  0.00  0.00    +0.000 NA
ATOM     27  C   UNL     1      47.543   8.757  21.028  0.00  0.00    +0.000 A 
ATOM     28  N   UNL     1      47.501   7.392  20.927  0.00  0.00    +0.000 N 
ATOM     29  C   UNL     1      47.756   6.723  19.752  0.00  0.00    +0.000 A 
ATOM     30  O   UNL     1      47.622   5.507  19.673  0.00  0.00    +0.000 OA
ATOM     31  C   UNL     1      48.153   7.572  18.646  0.00  0.00    +0.000 A 
ATOM     32  H   UNL     1      47.226   6.822  21.713  0.00  0.00    +0.000 HD
ENDBRANCH  19  22
ENDBRANCH  17  18
ENDBRANCH   4  17
TORSDOF 6
ENDMDL
MODEL 4
REMARK VINA RESULT:    -7.160      2.011      2.368
REMARK INTER + INTRA:         -10.444
REMARK INTER:                  -9.546
REMARK INTRA:                  -0.899
REMARK UNBOUND:                -0.773
REMARK  Name = 
REMARK  6 active torsions:
REMARK  status: ('A' for Active; 'I' for Inactive)
REMARK    1  A    between atoms: C_2  and  C_25
REMARK    2  A    between atoms: N_3  and  C_4
REMARK    3  A    between atoms: C_4  and  C_5
REMARK    4  A    between atoms: C_8  and  C_9
REMARK    5  A    between atoms: C_9  and  N_10
REMARK    6  A    between atoms: C_11  and  C_13
REMARK                            x       y       z     vdW  Elec       q    Type
REMARK                         _______ _______ _______ _____ _____    ______ ____
ROOT
ATOM      1  C   UNL     1      45.287   5.091  11.824  0.00  0.00    +0.000 A 
ATOM      2  C   UNL     1      45.597   6.359  11.324  0.00  0.00    +0.000 A 
ATOM      3  C   UNL     1      46.462   7.190  12.032  0.00  0.00    +0.000 A 
ATOM      4  C   UNL     1      46.979   6.747  13.246  0.00  0.00    +0.000 A 
ATOM      5  N   UNL     1      46.684   5.524  13.757  0.00  0.00    +0.000 NA
ATOM      6  C   UNL     1      45.856   4.731  13.039  0.00  0.00    +0.000 A 
ENDROOT
BRANCH   1   7
ATOM      7  C   UNL     1      44.385   4.154  11.082  0.00  0.00    +0.000 C 
BRANCH   7  10
ATOM      8  O   UNL     1      44.695   4.485   8.376  0.00  0.00    +0.000 OA
ATOM      9  C   UNL     1      45.227   3.497   8.879  0.00  0.00    +0.000 C 
ATOM     10  N   UNL     1      45.112   3.246  10.232  0.00  0.00    +0.000 N 
ATOM     11  H   UNL     1      45.578   2.436  10.622  0.00  0.00    +0.000 HD
BRANCH   9  12
ATOM     12  C   UNL     1      46.011   2.549   8.101  0.00  0.00    +0.000 A 
ATOM     13  C   UNL     1      46.016   1.173   8.253  0.00  0.00    +0.000 A 
ATOM     14  C   UNL     1      46.888   0.519   7.338  0.00  0.00    +0.000 A 
ATOM     15  C   UNL     1      47.531   1.416   6.515  0.00  0.00    +0.000 A 
ATOM     16  S   UNL     1      47.077   3.031   6.848  0.00  0.00    +0.000 S 
ENDBRANCH   9  12
ENDBRANCH   7  10
ENDBRANCH   1   7
BRANCH   4  17
ATOM     17  C   UNL     1      47.920   7.621  14.040  0.00  0.00    +0.000 C 
BRANCH  17  18
ATOM     18  N   UNL     1      48.018   7.211  15.422  0.00  0.00    +0.000 N 
ATOM     19  C   UNL     1      49.185   6.763  15.980  0.00  0.00    +0.000 C 
ATOM     20  O   UNL     1      50.223   6.672  15.328  0.00  0.00    +0.000 OA
ATOM     21  H   UNL     1      47.136   7.071  15.906  0.00  0.00    +0.000 HD
BRANCH  19  22
ATOM     22  C   UNL     1      49.159   6.463  17.418  0.00  0.00    +0.000 A 
ATOM     23  C   UNL     1      49.739   5.291  17.884  0.00  0.00    +0.000 A 
ATOM     24  S   UNL     1      49.664   5.113  19.579  0.00  0.00    +0.000 S 
ATOM     25  C   UNL     1      48.813   6.576  19.748  0.00  0.00    +0.000 A 
ATOM     26  N   UNL     1      48.408   7.012  20.972  0.00  0.00    +0.000 NA
ATOM     27  C   UNL     1      47.744   8.119  20.952  0.00  0.00    +0.000 A 
ATOM     28  N   UNL     1      47.454   8.835  19.820  0.00  0.00    +0.000 N 
ATOM     29  C   UNL     1      47.889   8.461  18.570  0.00  0.00    +0.000 A 
ATOM     30  O   UNL     1      47.689   9.171  17.591  0.00  0.00    +0.000 OA
ATOM     31  C   UNL     1      48.609   7.204  18.531  0.00  0.00    +0.000 A 
ATOM     32  H   UNL     1      46.947   9.706  19.874  0.00  0.00    +0.000 HD
ENDBRANCH  19  22
ENDBRANCH  17  18
ENDBRANCH   4  17
TORSDOF 6
ENDMDL
MODEL 5
REMARK VINA RESULT:    -7.055      2.543      3.042
REMARK INTER + INTRA:         -10.302
REMARK INTER:                  -9.505
REMARK INTRA:                  -0.798
REMARK UNBOUND:                -0.773
REMARK  Name = 
REMARK  6 active torsions:
REMARK  status: ('A' for Active; 'I' for Inactive)
REMARK    1  A    between atoms: C_2  and  C_25
REMARK    2  A    between atoms: N_3  and  C_4
REMARK    3  A    between atoms: C_4  and  C_5
REMARK    4  A    between atoms: C_8  and  C_9
REMARK    5  A    between atoms: C_9  and  N_10
REMARK    6  A    between atoms: C_11  and  C_13
REMARK                            x       y       z     vdW  Elec       q    Type
REMARK                         _______ _______ _______ _____ _____    ______ ____
ROOT
ATOM      1  C   UNL     1      46.097   4.959  13.447  0.00  0.00    +0.000 A 
ATOM      2  C   UNL     1      46.464   6.237  13.016  0.00  0.00    +0.000 A 
ATOM      3  C   UNL     1      47.472   6.930  13.684  0.00  0.00    +0.000 A 
ATOM      4  C   UNL     1      48.074   6.342  14.792  0.00  0.00    +0.000 A 
ATOM      5  N   UNL     1      47.727   5.105  15.235  0.00  0.00    +0.000 NA
ATOM      6  C   UNL     1      46.758   4.449  14.557  0.00  0.00    +0.000 A 
ENDROOT
BRANCH   1   7
ATOM      7  C   UNL     1      45.040   4.167  12.742  0.00  0.00    +0.000 C 
BRANCH   7  10
ATOM      8  O   UNL     1      43.894   4.812  10.334  0.00  0.00    +0.000 OA
ATOM      9  C   UNL     1      44.856   4.048  10.304  0.00  0.00    +0.000 C 
ATOM     10  N   UNL     1      45.487   3.660  11.469  0.00  0.00    +0.000 N 
ATOM     11  H   UNL     1      46.290   3.046  11.412  0.00  0.00    +0.000 HD
BRANCH   9  12
ATOM     12  C   UNL     1      45.397   3.519   9.060  0.00  0.00    +0.000 A 
ATOM     13  C   UNL     1      45.896   4.262   8.004  0.00  0.00    +0.000 A 
ATOM     14  C   UNL     1      46.356   3.452   6.927  0.00  0.00    +0.000 A 
ATOM     15  C   UNL     1      46.188   2.112   7.189  0.00  0.00    +0.000 A 
ATOM     16  S   UNL     1      45.486   1.840   8.725  0.00  0.00    +0.000 S 
ENDBRANCH   9  12
ENDBRANCH   7  10
ENDBRANCH   1   7
BRANCH   4  17
ATOM     17  C   UNL     1      49.169   7.063  15.539  0.00  0.00    +0.000 C 
BRANCH  17  18
ATOM     18  N   UNL     1      50.179   6.161  16.043  0.00  0.00    +0.000 N 
ATOM     19  C   UNL     1      50.479   6.055  17.375  0.00  0.00    +0.000 C 
ATOM     20  O   UNL     1      49.908   6.735  18.224  0.00  0.00    +0.000 OA
ATOM     21  H   UNL     1      50.803   5.762  15.348  0.00  0.00    +0.000 HD
BRANCH  19  22
ATOM     22  C   UNL     1      51.465   5.033  17.751  0.00  0.00    +0.000 A 
ATOM     23  C   UNL     1      52.686   5.424  18.285  0.00  0.00    +0.000 A 
ATOM     24  S   UNL     1      53.700   4.120  18.710  0.00  0.00    +0.000 S 
ATOM     25  C   UNL     1      52.562   2.985  18.155  0.00  0.00    +0.000 A 
ATOM     26  N   UNL     1      52.823   1.650  18.207  0.00  0.00    +0.000 NA
ATOM     27  C   UNL     1      51.888   0.904  17.722  0.00  0.00    +0.000 A 
ATOM     28  N   UNL     1      50.711   1.369  17.197  0.00  0.00    +0.000 N 
ATOM     29  C   UNL     1      50.382   2.704  17.174  0.00  0.00    +0.000 A 
ATOM     30  O   UNL     1      49.283   3.080  16.780  0.00  0.00    +0.000 OA
ATOM     31  C   UNL     1      51.414   3.591  17.673  0.00  0.00    +0.000 A 
ATOM     32  H   UNL     1      50.010   0.731  16.852  0.00  0.00    +0.000 HD
ENDBRANCH  19  22
ENDBRANCH  17  18
ENDBRANCH   4  17
TORSDOF 6
ENDMDL
MODEL 6
REMARK VINA RESULT:    -6.949      3.487      8.486
REMARK INTER + INTRA:         -10.160
REMARK INTER:                  -9.258
REMARK INTRA:                  -0.902
REMARK UNBOUND:                -0.773
REMARK  Name = 
REMARK  6 active torsions:
REMARK  status: ('A' for Active; 'I' for Inactive)
REMARK    1  A    between atoms: C_2  and  C_25
REMARK    2  A    between atoms: N_3  and  C_4
REMARK    3  A    between atoms: C_4  and  C_5
REMARK    4  A    between atoms: C_8  and  C_9
REMARK    5  A    between atoms: C_9  and  N_10
REMARK    6  A    between atoms: C_11  and  C_13
REMARK                            x       y       z     vdW  Elec       q    Type
REMARK                         _______ _______ _______ _____ _____    ______ ____
ROOT
ATOM      1  C   UNL     1      49.603   4.454  17.367  0.00  0.00    +0.000 A 
ATOM      2  C   UNL     1      50.371   5.604  17.174  0.00  0.00    +0.000 A 
ATOM      3  C   UNL     1      49.940   6.584  16.282  0.00  0.00    +0.000 A 
ATOM      4  C   UNL     1      48.758   6.378  15.576  0.00  0.00    +0.000 A 
ATOM      5  N   UNL     1      48.000   5.263  15.739  0.00  0.00    +0.000 NA
ATOM      6  C   UNL     1      48.435   4.338  16.624  0.00  0.00    +0.000 A 
ENDROOT
BRANCH   1   7
ATOM      7  C   UNL     1      50.014   3.389  18.337  0.00  0.00    +0.000 C 
BRANCH   7  10
ATOM      8  O   UNL     1      51.016   1.047  17.318  0.00  0.00    +0.000 OA
ATOM      9  C   UNL     1      51.834   1.876  17.712  0.00  0.00    +0.000 C 
ATOM     10  N   UNL     1      51.419   3.078  18.251  0.00  0.00    +0.000 N 
ATOM     11  H   UNL     1      52.114   3.749  18.548  0.00  0.00    +0.000 HD
BRANCH   9  12
ATOM     12  C   UNL     1      53.272   1.659  17.628  0.00  0.00    +0.000 A 
ATOM     13  C   UNL     1      53.903   0.593  17.011  0.00  0.00    +0.000 A 
ATOM     14  C   UNL     1      55.322   0.667  17.096  0.00  0.00    +0.000 A 
ATOM     15  C   UNL     1      55.735   1.785  17.782  0.00  0.00    +0.000 A 
ATOM     16  S   UNL     1      54.416   2.737  18.312  0.00  0.00    +0.000 S 
ENDBRANCH   9  12
ENDBRANCH   7  10
ENDBRANCH   1   7
BRANCH   4  17
ATOM     17  C   UNL     1      48.260   7.418  14.602  0.00  0.00    +0.000 C 
BRANCH  17  18
ATOM     18  N   UNL     1      47.018   7.033  13.971  0.00  0.00    +0.000 N 
ATOM     19  C   UNL     1      46.947   6.618  12.669  0.00  0.00    +0.000 C 
ATOM     20  O   UNL     1      47.943   6.559  11.951  0.00  0.00    +0.000 OA
ATOM     21  H   UNL     1      46.171   7.283  14.473  0.00  0.00    +0.000 HD
BRANCH  19  22
ATOM     22  C   UNL     1      45.632   6.172  12.188  0.00  0.00    +0.000 A 
ATOM     23  C   UNL     1      44.762   7.095  11.622  0.00  0.00    +0.000 A 
ATOM     24  S   UNL     1      43.298   6.413  11.074  0.00  0.00    +0.000 S 
ATOM     25  C   UNL     1      43.754   4.867  11.614  0.00  0.00    +0.000 A 
ATOM     26  N   UNL     1      42.919   3.802  11.471  0.00  0.00    +0.000 NA
ATOM     27  C   UNL     1      43.377   2.695  11.954  0.00  0.00    +0.000 A 
ATOM     28  N   UNL     1      44.598   2.554  12.558  0.00  0.00    +0.000 N 
ATOM     29  C   UNL     1      45.496   3.589  12.676  0.00  0.00    +0.000 A 
ATOM     30  O   UNL     1      46.615   3.408  13.142  0.00  0.00    +0.000 OA
ATOM     31  C   UNL     1      45.017   4.865  12.183  0.00  0.00    +0.000 A 
ATOM     32  H   UNL     1      44.908   1.655  12.898  0.00  0.00    +0.000 HD
ENDBRANCH  19  22
ENDBRANCH  17  18
ENDBRANCH   4  17
TORSDOF 6
ENDMDL
MODEL 7
REMARK VINA RESULT:    -6.882      2.749      8.340
REMARK INTER + INTRA:         -10.069
REMARK INTER:                  -9.257
REMARK INTRA:                  -0.812
REMARK UNBOUND:                -0.773
REMARK  Name = 
REMARK  6 active torsions:
REMARK  status: ('A' for Active; 'I' for Inactive)
REMARK    1  A    between atoms: C_2  and  C_25
REMARK    2  A    between atoms: N_3  and  C_4
REMARK    3  A    between atoms: C_4  and  C_5
REMARK    4  A    between atoms: C_8  and  C_9
REMARK    5  A    between atoms: C_9  and  N_10
REMARK    6  A    between atoms: C_11  and  C_13
REMARK                            x       y       z     vdW  Elec       q    Type
REMARK                         _______ _______ _______ _____ _____    ______ ____
ROOT
ATOM      1  C   UNL     1      49.797   6.427  16.470  0.00  0.00    +0.000 A 
ATOM      2  C   UNL     1      50.605   7.308  15.745  0.00  0.00    +0.000 A 
ATOM      3  C   UNL     1      50.226   7.698  14.463  0.00  0.00    +0.000 A 
ATOM      4  C   UNL     1      49.058   7.175  13.916  0.00  0.00    +0.000 A 
ATOM      5  N   UNL     1      48.262   6.310  14.597  0.00  0.00    +0.000 NA
ATOM      6  C   UNL     1      48.646   5.962  15.846  0.00  0.00    +0.000 A 
ENDROOT
BRANCH   1   7
ATOM      7  C   UNL     1      50.151   6.003  17.862  0.00  0.00    +0.000 C 
BRANCH   7  10
ATOM      8  O   UNL     1      49.627   3.310  17.819  0.00  0.00    +0.000 OA
ATOM      9  C   UNL     1      50.809   3.645  17.850  0.00  0.00    +0.000 C 
ATOM     10  N   UNL     1      51.165   4.980  17.885  0.00  0.00    +0.000 N 
ATOM     11  H   UNL     1      52.146   5.226  17.890  0.00  0.00    +0.000 HD
BRANCH   9  12
ATOM     12  C   UNL     1      51.897   2.678  17.838  0.00  0.00    +0.000 A 
ATOM     13  C   UNL     1      51.811   1.355  17.443  0.00  0.00    +0.000 A 
ATOM     14  C   UNL     1      53.053   0.666  17.544  0.00  0.00    +0.000 A 
ATOM     15  C   UNL     1      54.053   1.482  18.019  0.00  0.00    +0.000 A 
ATOM     16  S   UNL     1      53.492   3.067  18.335  0.00  0.00    +0.000 S 
ENDBRANCH   9  12
ENDBRANCH   7  10
ENDBRANCH   1   7
BRANCH   4  17
ATOM     17  C   UNL     1      48.617   7.577  12.529  0.00  0.00    +0.000 C 
BRANCH  17  18
ATOM     18  N   UNL     1      47.792   6.570  11.900  0.00  0.00    +0.000 N 
ATOM     19  C   UNL     1      46.447   6.732  11.707  0.00  0.00    +0.000 C 
ATOM     20  O   UNL     1      45.856   7.746  12.070  0.00  0.00    +0.000 OA
ATOM     21  H   UNL     1      48.215   5.653  11.798  0.00  0.00    +0.000 HD
BRANCH  19  22
ATOM     22  C   UNL     1      45.751   5.663  10.975  0.00  0.00    +0.000 A 
ATOM     23  C   UNL     1      45.806   5.637   9.588  0.00  0.00    +0.000 A 
ATOM     24  S   UNL     1      44.987   4.311   8.894  0.00  0.00    +0.000 S 
ATOM     25  C   UNL     1      44.492   3.749  10.421  0.00  0.00    +0.000 A 
ATOM     26  N   UNL     1      43.717   2.636  10.538  0.00  0.00    +0.000 NA
ATOM     27  C   UNL     1      43.387   2.341  11.752  0.00  0.00    +0.000 A 
ATOM     28  N   UNL     1      43.768   3.052  12.859  0.00  0.00    +0.000 N 
ATOM     29  C   UNL     1      44.593   4.150  12.792  0.00  0.00    +0.000 A 
ATOM     30  O   UNL     1      44.987   4.710  13.809  0.00  0.00    +0.000 OA
ATOM     31  C   UNL     1      44.965   4.548  11.448  0.00  0.00    +0.000 A 
ATOM     32  H   UNL     1      43.493   2.757  13.784  0.00  0.00    +0.000 HD
ENDBRANCH  19  22
ENDBRANCH  17  18
ENDBRANCH   4  17
TORSDOF 6
ENDMDL
MODEL 8
REMARK VINA RESULT:    -6.543      2.628      8.627
REMARK INTER + INTRA:          -9.610
REMARK INTER:                  -8.913
REMARK INTRA:                  -0.697
REMARK UNBOUND:                -0.773
REMARK  Name = 
REMARK  6 active torsions:
REMARK  status: ('A' for Active; 'I' for Inactive)
REMARK    1  A    between atoms: C_2  and  C_25
REMARK    2  A    between atoms: N_3  and  C_4
REMARK    3  A    between atoms: C_4  and  C_5
REMARK    4  A    between atoms: C_8  and  C_9
REMARK    5  A    between atoms: C_9  and  N_10
REMARK    6  A    between atoms: C_11  and  C_13
REMARK                            x       y       z     vdW  Elec       q    Type
REMARK                         _______ _______ _______ _____ _____    ______ ____
ROOT
ATOM      1  C   UNL     1      49.856   7.367  15.663  0.00  0.00    +0.000 A 
ATOM      2  C   UNL     1      49.790   8.584  14.981  0.00  0.00    +0.000 A 
ATOM      3  C   UNL     1      48.922   8.727  13.901  0.00  0.00    +0.000 A 
ATOM      4  C   UNL     1      48.156   7.635  13.503  0.00  0.00    +0.000 A 
ATOM      5  N   UNL     1      48.210   6.439  14.144  0.00  0.00    +0.000 NA
ATOM      6  C   UNL     1      49.049   6.335  15.201  0.00  0.00    +0.000 A 
ENDROOT
BRANCH   1   7
ATOM      7  C   UNL     1      50.753   7.178  16.847  0.00  0.00    +0.000 C 
BRANCH   7  10
ATOM      8  O   UNL     1      49.846   5.186  18.501  0.00  0.00    +0.000 OA
ATOM      9  C   UNL     1      50.789   4.908  17.762  0.00  0.00    +0.000 C 
ATOM     10  N   UNL     1      51.318   5.854  16.905  0.00  0.00    +0.000 N 
ATOM     11  H   UNL     1      52.080   5.591  16.294  0.00  0.00    +0.000 HD
BRANCH   9  12
ATOM     12  C   UNL     1      51.394   3.585  17.729  0.00  0.00    +0.000 A 
ATOM     13  C   UNL     1      52.691   3.269  18.096  0.00  0.00    +0.000 A 
ATOM     14  C   UNL     1      52.984   1.883  17.954  0.00  0.00    +0.000 A 
ATOM     15  C   UNL     1      51.903   1.179  17.477  0.00  0.00    +0.000 A 
ATOM     16  S   UNL     1      50.548   2.188  17.209  0.00  0.00    +0.000 S 
ENDBRANCH   9  12
ENDBRANCH   7  10
ENDBRANCH   1   7
BRANCH   4  17
ATOM     17  C   UNL     1      47.204   7.753  12.338  0.00  0.00    +0.000 C 
BRANCH  17  18
ATOM     18  N   UNL     1      46.539   6.505  12.041  0.00  0.00    +0.000 N 
ATOM     19  C   UNL     1      45.207   6.431  11.733  0.00  0.00    +0.000 C 
ATOM     20  O   UNL     1      44.492   7.430  11.702  0.00  0.00    +0.000 OA
ATOM     21  H   UNL     1      47.055   5.662  12.276  0.00  0.00    +0.000 HD
BRANCH  19  22
ATOM     22  C   UNL     1      44.685   5.107  11.367  0.00  0.00    +0.000 A 
ATOM     23  C   UNL     1      43.868   4.424  12.258  0.00  0.00    +0.000 A 
ATOM     24  S   UNL     1      43.311   2.923  11.668  0.00  0.00    +0.000 S 
ATOM     25  C   UNL     1      44.178   3.112  10.217  0.00  0.00    +0.000 A 
ATOM     26  N   UNL     1      44.154   2.147   9.258  0.00  0.00    +0.000 NA
ATOM     27  C   UNL     1      44.883   2.404   8.223  0.00  0.00    +0.000 A 
ATOM     28  N   UNL     1      45.626   3.543   8.056  0.00  0.00    +0.000 N 
ATOM     29  C   UNL     1      45.638   4.567   8.973  0.00  0.00    +0.000 A 
ATOM     30  O   UNL     1      46.243   5.610   8.752  0.00  0.00    +0.000 OA
ATOM     31  C   UNL     1      44.865   4.314  10.173  0.00  0.00    +0.000 A 
ATOM     32  H   UNL     1      46.160   3.693   7.213  0.00  0.00    +0.000 HD
ENDBRANCH  19  22
ENDBRANCH  17  18
ENDBRANCH   4  17
TORSDOF 6
ENDMDL
MODEL 9
REMARK VINA RESULT:    -6.499      4.506      7.634
REMARK INTER + INTRA:          -9.551
REMARK INTER:                  -8.720
REMARK INTRA:                  -0.832
REMARK UNBOUND:                -0.773
REMARK  Name = 
REMARK  6 active torsions:
REMARK  status: ('A' for Active; 'I' for Inactive)
REMARK    1  A    between atoms: C_2  and  C_25
REMARK    2  A    between atoms: N_3  and  C_4
REMARK    3  A    between atoms: C_4  and  C_5
REMARK    4  A    between atoms: C_8  and  C_9
REMARK    5  A    between atoms: C_9  and  N_10
REMARK    6  A    between atoms: C_11  and  C_13
REMARK                            x       y       z     vdW  Elec       q    Type
REMARK                         _______ _______ _______ _____ _____    ______ ____
ROOT
ATOM      1  C   UNL     1      50.278   8.724  11.572  0.00  0.00    +0.000 A 
ATOM      2  C   UNL     1      49.866   7.418  11.853  0.00  0.00    +0.000 A 
ATOM      3  C   UNL     1      48.582   7.187  12.343  0.00  0.00    +0.000 A 
ATOM      4  C   UNL     1      47.743   8.273  12.572  0.00  0.00    +0.000 A 
ATOM      5  N   UNL     1      48.124   9.551  12.316  0.00  0.00    +0.000 NA
ATOM      6  C   UNL     1      49.369   9.744  11.825  0.00  0.00    +0.000 A 
ENDROOT
BRANCH   1   7
ATOM      7  C   UNL     1      51.637   9.016  11.018  0.00  0.00    +0.000 C 
BRANCH   7  10
ATOM      8  O   UNL     1      52.835   9.226   8.558  0.00  0.00    +0.000 OA
ATOM      9  C   UNL     1      52.781   8.103   9.056  0.00  0.00    +0.000 C 
ATOM     10  N   UNL     1      52.185   7.903  10.286  0.00  0.00    +0.000 N 
ATOM     11  H   UNL     1      52.174   6.971  10.680  0.00  0.00    +0.000 HD
BRANCH   9  12
ATOM     12  C   UNL     1      53.343   6.929   8.402  0.00  0.00    +0.000 A 
ATOM     13  C   UNL     1      52.763   6.213   7.369  0.00  0.00    +0.000 A 
ATOM     14  C   UNL     1      53.563   5.115   6.942  0.00  0.00    +0.000 A 
ATOM     15  C   UNL     1      54.729   5.021   7.666  0.00  0.00    +0.000 A 
ATOM     16  S   UNL     1      54.854   6.252   8.846  0.00  0.00    +0.000 S 
ENDBRANCH   9  12
ENDBRANCH   7  10
ENDBRANCH   1   7
BRANCH   4  17
ATOM     17  C   UNL     1      46.345   8.059  13.101  0.00  0.00    +0.000 C 
BRANCH  17  18
ATOM     18  N   UNL     1      45.822   6.754  12.764  0.00  0.00    +0.000 N 
ATOM     19  C   UNL     1      44.933   6.555  11.742  0.00  0.00    +0.000 C 
ATOM     20  O   UNL     1      44.517   7.484  11.053  0.00  0.00    +0.000 OA
ATOM     21  H   UNL     1      45.980   6.024  13.451  0.00  0.00    +0.000 HD
BRANCH  19  22
ATOM     22  C   UNL     1      44.555   5.164  11.457  0.00  0.00    +0.000 A 
ATOM     23  C   UNL     1      43.788   4.462  12.377  0.00  0.00    +0.000 A 
ATOM     24  S   UNL     1      43.397   2.878  11.879  0.00  0.00    +0.000 S 
ATOM     25  C   UNL     1      44.275   3.058  10.434  0.00  0.00    +0.000 A 
ATOM     26  N   UNL     1      44.370   2.035   9.542  0.00  0.00    +0.000 NA
ATOM     27  C   UNL     1      45.094   2.297   8.504  0.00  0.00    +0.000 A 
ATOM     28  N   UNL     1      45.725   3.491   8.274  0.00  0.00    +0.000 N 
ATOM     29  C   UNL     1      45.613   4.569   9.121  0.00  0.00    +0.000 A 
ATOM     30  O   UNL     1      46.116   5.651   8.841  0.00  0.00    +0.000 OA
ATOM     31  C   UNL     1      44.840   4.318  10.322  0.00  0.00    +0.000 A 
ATOM     32  H   UNL     1      46.261   3.640   7.432  0.00  0.00    +0.000 HD
ENDBRANCH  19  22
ENDBRANCH  17  18
ENDBRANCH   4  17
TORSDOF 6
ENDMDL
