MODEL 1
REMARK VINA RESULT:    -8.172      0.000      0.000
REMARK INTER + INTRA:         -12.731
REMARK INTER:                 -11.516
REMARK INTRA:                  -1.216
REMARK UNBOUND:                -1.216
REMARK  Name = 
REMARK  7 active torsions:
REMARK  status: ('A' for Active; 'I' for Inactive)
REMARK    1  A    between atoms: C_2  and  C_20
REMARK    2  A    between atoms: N_3  and  C_4
REMARK    3  A    between atoms: C_4  and  C_5
REMARK    4  A    between atoms: C_8  and  C_9
REMARK    5  A    between atoms: C_9  and  N_10
REMARK    6  A    between atoms: N_10  and  C_11
REMARK    7  A    between atoms: C_11  and  C_12
REMARK                            x       y       z     vdW  Elec       q    Type
REMARK                         _______ _______ _______ _____ _____    ______ ____
ROOT
ATOM      1  C   UNL     1      46.007   6.569  12.425  0.00  0.00    +0.000 A 
ATOM      2  C   UNL     1      46.109   6.372  11.046  0.00  0.00    +0.000 A 
ATOM      3  C   UNL     1      45.364   5.366  10.434  0.00  0.00    +0.000 A 
ATOM      4  C   UNL     1      44.539   4.568  11.221  0.00  0.00    +0.000 A 
ATOM      5  N   UNL     1      44.465   4.708  12.570  0.00  0.00    +0.000 NA
ATOM      6  C   UNL     1      45.184   5.704  13.135  0.00  0.00    +0.000 A 
ENDROOT
BRANCH   1   7
ATOM      7  C   UNL     1      46.754   7.665  13.128  0.00  0.00    +0.000 C 
BRANCH   7  10
ATOM      8  O   UNL     1      49.372   6.682  13.507  0.00  0.00    +0.000 OA
ATOM      9  C   UNL     1      48.630   6.795  14.477  0.00  0.00    +0.000 C 
ATOM     10  N   UNL     1      47.330   7.222  14.367  0.00  0.00    +0.000 N 
ATOM     11  H   UNL     1      46.821   7.472  15.208  0.00  0.00    +0.000 HD
BRANCH   9  12
ATOM     12  C   UNL     1      49.062   6.426  15.827  0.00  0.00    +0.000 A 
ATOM     13  C   UNL     1      49.931   7.239  16.542  0.00  0.00    +0.000 A 
ATOM     14  S   UNL     1      50.323   6.619  18.085  0.00  0.00    +0.000 S 
ATOM     15  C   UNL     1      49.309   5.272  17.861  0.00  0.00    +0.000 A 
ATOM     16  N   UNL     1      49.163   4.332  18.839  0.00  0.00    +0.000 NA
ATOM     17  C   UNL     1      48.331   3.387  18.548  0.00  0.00    +0.000 A 
ATOM     18  N   UNL     1      47.638   3.284  17.358  0.00  0.00    +0.000 N 
ATOM     19  C   UNL     1      47.821   4.167  16.325  0.00  0.00    +0.000 A 
ATOM     20  O   UNL     1      47.302   3.957  15.232  0.00  0.00    +0.000 OA
ATOM     21  C   UNL     1      48.704   5.275  16.621  0.00  0.00    +0.000 A 
ATOM     22  H   UNL     1      47.038   2.504  17.181  0.00  0.00    +0.000 HD
ENDBRANCH   9  12
ENDBRANCH   7  10
ENDBRANCH   1   7
BRANCH   4  23
ATOM     23  C   UNL     1      43.736   3.454  10.575  0.00  0.00    +0.000 C 
BRANCH  23  24
ATOM     24  N   UNL     1      44.524   2.325  10.084  0.00  0.00    +0.000 NA
ATOM     25  H   UNL     1      44.052   1.484  10.427  0.00  0.00    +0.000 HD
BRANCH  24  26
ATOM     26  C   UNL     1      44.653   2.197   8.616  0.00  0.00    +0.000 C 
BRANCH  26  27
ATOM     27  C   UNL     1      46.171   2.323   8.329  0.00  0.00    +0.000 C 
ATOM     28  C   UNL     1      46.469   3.582   7.492  0.00  0.00    +0.000 C 
ATOM     29  C   UNL     1      46.616   3.300   6.005  0.00  0.00    +0.000 C 
ATOM     30  C   UNL     1      47.630   2.194   5.786  0.00  0.00    +0.000 C 
ATOM     31  N   UNL     1      47.118   0.952   6.361  0.00  0.00    +0.000 NA
ATOM     32  C   UNL     1      46.912   1.070   7.808  0.00  0.00    +0.000 C 
ATOM     33  H   UNL     1      47.808   0.218   6.193  0.00  0.00    +0.000 HD
ENDBRANCH  26  27
ENDBRANCH  24  26
ENDBRANCH  23  24
ENDBRANCH   4  23
TORSDOF 7
ENDMDL
MODEL 2
REMARK VINA RESULT:    -7.856      1.312      1.451
REMARK INTER + INTRA:         -12.286
REMARK INTER:                 -11.298
REMARK INTRA:                  -0.989
REMARK UNBOUND:                -1.216
REMARK  Name = 
REMARK  7 active torsions:
REMARK  status: ('A' for Active; 'I' for Inactive)
REMARK    1  A    between atoms: C_2  and  C_20
REMARK    2  A    between atoms: N_3  and  C_4
REMARK    3  A    between atoms: C_4  and  C_5
REMARK    4  A    between atoms: C_8  and  C_9
REMARK    5  A    between atoms: C_9  and  N_10
REMARK    6  A    between atoms: N_10  and  C_11
REMARK    7  A    between atoms: C_11  and  C_12
REMARK                            x       y       z     vdW  Elec       q    Type
REMARK                         _______ _______ _______ _____ _____    ______ ____
ROOT
ATOM      1  C   UNL     1      46.936   5.902  12.679  0.00  0.00    +0.000 A 
ATOM      2  C   UNL     1      46.377   6.202  11.435  0.00  0.00    +0.000 A 
ATOM      3  C   UNL     1      45.392   5.374  10.901  0.00  0.00    +0.000 A 
ATOM      4  C   UNL     1      44.996   4.250  11.621  0.00  0.00    +0.000 A 
ATOM      5  N   UNL     1      45.564   3.910  12.808  0.00  0.00    +0.000 NA
ATOM      6  C   UNL     1      46.503   4.743  13.311  0.00  0.00    +0.000 A 
ENDROOT
BRANCH   1   7
ATOM      7  C   UNL     1      47.969   6.783  13.318  0.00  0.00    +0.000 C 
BRANCH   7  10
ATOM      8  O   UNL     1      50.112   6.682  15.150  0.00  0.00    +0.000 OA
ATOM      9  C   UNL     1      48.966   6.778  15.577  0.00  0.00    +0.000 C 
ATOM     10  N   UNL     1      47.870   6.786  14.751  0.00  0.00    +0.000 N 
ATOM     11  H   UNL     1      46.967   7.050  15.134  0.00  0.00    +0.000 HD
BRANCH   9  12
ATOM     12  C   UNL     1      48.678   6.832  17.012  0.00  0.00    +0.000 A 
ATOM     13  C   UNL     1      48.232   8.007  17.603  0.00  0.00    +0.000 A 
ATOM     14  S   UNL     1      47.972   7.862  19.285  0.00  0.00    +0.000 S 
ATOM     15  C   UNL     1      48.404   6.217  19.264  0.00  0.00    +0.000 A 
ATOM     16  N   UNL     1      48.372   5.468  20.405  0.00  0.00    +0.000 NA
ATOM     17  C   UNL     1      48.685   4.226  20.233  0.00  0.00    +0.000 A 
ATOM     18  N   UNL     1      49.042   3.661  19.025  0.00  0.00    +0.000 N 
ATOM     19  C   UNL     1      49.159   4.401  17.877  0.00  0.00    +0.000 A 
ATOM     20  O   UNL     1      49.624   3.895  16.858  0.00  0.00    +0.000 OA
ATOM     21  C   UNL     1      48.769   5.789  18.005  0.00  0.00    +0.000 A 
ATOM     22  H   UNL     1      49.311   2.700  18.969  0.00  0.00    +0.000 HD
ENDBRANCH   9  12
ENDBRANCH   7  10
ENDBRANCH   1   7
BRANCH   4  23
ATOM     23  C   UNL     1      43.940   3.326  11.046  0.00  0.00    +0.000 C 
BRANCH  23  24
ATOM     24  N   UNL     1      44.455   2.207  10.259  0.00  0.00    +0.000 NA
ATOM     25  H   UNL     1      43.813   1.428  10.424  0.00  0.00    +0.000 HD
BRANCH  24  26
ATOM     26  C   UNL     1      44.542   2.411   8.796  0.00  0.00    +0.000 C 
BRANCH  26  27
ATOM     27  C   UNL     1      46.059   2.458   8.482  0.00  0.00    +0.000 C 
ATOM     28  C   UNL     1      46.401   3.681   7.609  0.00  0.00    +0.000 C 
ATOM     29  C   UNL     1      46.509   3.357   6.127  0.00  0.00    +0.000 C 
ATOM     30  C   UNL     1      47.466   2.199   5.919  0.00  0.00    +0.000 C 
ATOM     31  N   UNL     1      46.906   0.997   6.534  0.00  0.00    +0.000 NA
ATOM     32  C   UNL     1      46.732   1.159   7.981  0.00  0.00    +0.000 C 
ATOM     33  H   UNL     1      47.558   0.227   6.373  0.00  0.00    +0.000 HD
ENDBRANCH  26  27
ENDBRANCH  24  26
ENDBRANCH  23  24
ENDBRANCH   4  23
TORSDOF 7
ENDMDL
MODEL 3
REMARK VINA RESULT:    -7.337      2.081      2.475
REMARK INTER + INTRA:         -11.555
REMARK INTER:                 -10.614
REMARK INTRA:                  -0.941
REMARK UNBOUND:                -1.216
REMARK  Name = 
REMARK  7 active torsions:
REMARK  status: ('A' for Active; 'I' for Inactive)
REMARK    1  A    between atoms: C_2  and  C_20
REMARK    2  A    between atoms: N_3  and  C_4
REMARK    3  A    between atoms: C_4  and  C_5
REMARK    4  A    between atoms: C_8  and  C_9
REMARK    5  A    between atoms: C_9  and  N_10
REMARK    6  A    between atoms: N_10  and  C_11
REMARK    7  A    between atoms: C_11  and  C_12
REMARK                            x       y       z     vdW  Elec       q    Type
REMARK                         _______ _______ _______ _____ _____    ______ ____
ROOT
ATOM      1  C   UNL     1      46.906   6.312  12.897  0.00  0.00    +0.000 A 
ATOM      2  C   UNL     1      46.457   6.869  11.697  0.00  0.00    +0.000 A 
ATOM      3  C   UNL     1      45.515   6.188  10.929  0.00  0.00    +0.000 A 
ATOM      4  C   UNL     1      45.052   4.953  11.372  0.00  0.00    +0.000 A 
ATOM      5  N   UNL     1      45.515   4.369  12.508  0.00  0.00    +0.000 NA
ATOM      6  C   UNL     1      46.413   5.061  13.244  0.00  0.00    +0.000 A 
ENDROOT
BRANCH   1   7
ATOM      7  C   UNL     1      47.887   7.022  13.783  0.00  0.00    +0.000 C 
BRANCH   7  10
ATOM      8  O   UNL     1      50.113   6.573  15.457  0.00  0.00    +0.000 OA
ATOM      9  C   UNL     1      48.986   6.377  15.898  0.00  0.00    +0.000 C 
ATOM     10  N   UNL     1      47.857   6.530  15.132  0.00  0.00    +0.000 N 
ATOM     11  H   UNL     1      46.950   6.537  15.588  0.00  0.00    +0.000 HD
BRANCH   9  12
ATOM     12  C   UNL     1      48.763   5.908  17.268  0.00  0.00    +0.000 A 
ATOM     13  C   UNL     1      49.029   4.591  17.619  0.00  0.00    +0.000 A 
ATOM     14  S   UNL     1      48.685   4.245  19.256  0.00  0.00    +0.000 S 
ATOM     15  C   UNL     1      48.215   5.852  19.553  0.00  0.00    +0.000 A 
ATOM     16  N   UNL     1      47.817   6.250  20.797  0.00  0.00    +0.000 NA
ATOM     17  C   UNL     1      47.528   7.507  20.886  0.00  0.00    +0.000 A 
ATOM     18  N   UNL     1      47.586   8.406  19.840  0.00  0.00    +0.000 N 
ATOM     19  C   UNL     1      47.905   8.024  18.562  0.00  0.00    +0.000 A 
ATOM     20  O   UNL     1      47.798   8.820  17.633  0.00  0.00    +0.000 OA
ATOM     21  C   UNL     1      48.288   6.636  18.420  0.00  0.00    +0.000 A 
ATOM     22  H   UNL     1      47.311   9.359  19.968  0.00  0.00    +0.000 HD
ENDBRANCH   9  12
ENDBRANCH   7  10
ENDBRANCH   1   7
BRANCH   4  23
ATOM     23  C   UNL     1      44.043   4.188  10.538  0.00  0.00    +0.000 C 
BRANCH  23  24
ATOM     24  N   UNL     1      43.925   4.626   9.149  0.00  0.00    +0.000 NA
ATOM     25  H   UNL     1      44.580   5.405   9.044  0.00  0.00    +0.000 HD
BRANCH  24  26
ATOM     26  C   UNL     1      44.253   3.625   8.109  0.00  0.00    +0.000 C 
BRANCH  26  27
ATOM     27  C   UNL     1      45.737   3.252   8.358  0.00  0.00    +0.000 C 
ATOM     28  C   UNL     1      46.647   3.870   7.279  0.00  0.00    +0.000 C 
ATOM     29  C   UNL     1      47.005   2.903   6.162  0.00  0.00    +0.000 C 
ATOM     30  C   UNL     1      47.571   1.623   6.747  0.00  0.00    +0.000 C 
ATOM     31  N   UNL     1      46.530   0.947   7.519  0.00  0.00    +0.000 NA
ATOM     32  C   UNL     1      46.069   1.769   8.642  0.00  0.00    +0.000 C 
ATOM     33  H   UNL     1      46.926   0.083   7.894  0.00  0.00    +0.000 HD
ENDBRANCH  26  27
ENDBRANCH  24  26
ENDBRANCH  23  24
ENDBRANCH   4  23
TORSDOF 7
ENDMDL
MODEL 4
REMARK VINA RESULT:    -7.283      2.939      8.557
REMARK INTER + INTRA:         -11.478
REMARK INTER:                  -9.743
REMARK INTRA:                  -1.735
REMARK UNBOUND:                -1.216
REMARK  Name = 
REMARK  7 active torsions:
REMARK  status: ('A' for Active; 'I' for Inactive)
REMARK    1  A    between atoms: C_2  and  C_20
REMARK    2  A    between atoms: N_3  and  C_4
REMARK    3  A    between atoms: C_4  and  C_5
REMARK    4  A    between atoms: C_8  and  C_9
REMARK    5  A    between atoms: C_9  and  N_10
REMARK    6  A    between atoms: N_10  and  C_11
REMARK    7  A    between atoms: C_11  and  C_12
REMARK                            x       y       z     vdW  Elec       q    Type
REMARK                         _______ _______ _______ _____ _____    ______ ____
ROOT
ATOM      1  C   UNL     1      48.402   7.529  13.177  0.00  0.00    +0.000 A 
ATOM      2  C   UNL     1      49.515   8.363  13.300  0.00  0.00    +0.000 A 
ATOM      3  C   UNL     1      50.414   8.166  14.347  0.00  0.00    +0.000 A 
ATOM      4  C   UNL     1      50.170   7.144  15.259  0.00  0.00    +0.000 A 
ATOM      5  N   UNL     1      49.066   6.356  15.189  0.00  0.00    +0.000 NA
ATOM      6  C   UNL     1      48.221   6.556  14.152  0.00  0.00    +0.000 A 
ENDROOT
BRANCH   1   7
ATOM      7  C   UNL     1      47.426   7.670  12.046  0.00  0.00    +0.000 C 
BRANCH   7  10
ATOM      8  O   UNL     1      44.625   7.383  11.871  0.00  0.00    +0.000 OA
ATOM      9  C   UNL     1      45.338   6.403  11.682  0.00  0.00    +0.000 C 
ATOM     10  N   UNL     1      46.705   6.453  11.795  0.00  0.00    +0.000 N 
ATOM     11  H   UNL     1      47.256   5.672  11.452  0.00  0.00    +0.000 HD
BRANCH   9  12
ATOM     12  C   UNL     1      44.776   5.086  11.377  0.00  0.00    +0.000 A 
ATOM     13  C   UNL     1      43.992   4.416  12.307  0.00  0.00    +0.000 A 
ATOM     14  S   UNL     1      43.451   2.890  11.762  0.00  0.00    +0.000 S 
ATOM     15  C   UNL     1      44.208   3.099  10.254  0.00  0.00    +0.000 A 
ATOM     16  N   UNL     1      44.115   2.146   9.282  0.00  0.00    +0.000 NA
ATOM     17  C   UNL     1      44.704   2.457   8.175  0.00  0.00    +0.000 A 
ATOM     18  N   UNL     1      45.395   3.631   7.950  0.00  0.00    +0.000 N 
ATOM     19  C   UNL     1      45.575   4.574   8.929  0.00  0.00    +0.000 A 
ATOM     20  O   UNL     1      46.320   5.531   8.738  0.00  0.00    +0.000 OA
ATOM     21  C   UNL     1      44.889   4.297  10.174  0.00  0.00    +0.000 A 
ATOM     22  H   UNL     1      45.862   3.793   7.081  0.00  0.00    +0.000 HD
ENDBRANCH   9  12
ENDBRANCH   7  10
ENDBRANCH   1   7
BRANCH   4  23
ATOM     23  C   UNL     1      51.127   6.929  16.417  0.00  0.00    +0.000 C 
BRANCH  23  24
ATOM     24  N   UNL     1      50.521   6.385  17.630  0.00  0.00    +0.000 NA
ATOM     25  H   UNL     1      49.512   6.387  17.465  0.00  0.00    +0.000 HD
BRANCH  24  26
ATOM     26  C   UNL     1      50.909   5.006  18.003  0.00  0.00    +0.000 C 
BRANCH  26  27
ATOM     27  C   UNL     1      49.606   4.343  18.519  0.00  0.00    +0.000 C 
ATOM     28  C   UNL     1      49.341   3.012  17.788  0.00  0.00    +0.000 C 
ATOM     29  C   UNL     1      48.351   3.139  16.640  0.00  0.00    +0.000 C 
ATOM     30  C   UNL     1      47.080   3.808  17.125  0.00  0.00    +0.000 C 
ATOM     31  N   UNL     1      47.381   5.182  17.522  0.00  0.00    +0.000 NA
ATOM     32  C   UNL     1      48.343   5.227  18.628  0.00  0.00    +0.000 C 
ATOM     33  H   UNL     1      46.512   5.619  17.833  0.00  0.00    +0.000 HD
ENDBRANCH  26  27
ENDBRANCH  24  26
ENDBRANCH  23  24
ENDBRANCH   4  23
TORSDOF 7
ENDMDL
MODEL 5
REMARK VINA RESULT:    -7.255      3.386      4.851
REMARK INTER + INTRA:         -11.439
REMARK INTER:                 -10.180
REMARK INTRA:                  -1.259
REMARK UNBOUND:                -1.216
REMARK  Name = 
REMARK  7 active torsions:
REMARK  status: ('A' for Active; 'I' for Inactive)
REMARK    1  A    between atoms: C_2  and  C_20
REMARK    2  A    between atoms: N_3  and  C_4
REMARK    3  A    between atoms: C_4  and  C_5
REMARK    4  A    between atoms: C_8  and  C_9
REMARK    5  A    between atoms: C_9  and  N_10
REMARK    6  A    between atoms: N_10  and  C_11
REMARK    7  A    between atoms: C_11  and  C_12
REMARK                            x       y       z     vdW  Elec       q    Type
REMARK                         _______ _______ _______ _____ _____    ______ ____
ROOT
ATOM      1  C   UNL     1      48.074   5.548  15.534  0.00  0.00    +0.000 A 
ATOM      2  C   UNL     1      47.913   6.065  14.246  0.00  0.00    +0.000 A 
ATOM      3  C   UNL     1      47.203   5.337  13.293  0.00  0.00    +0.000 A 
ATOM      4  C   UNL     1      46.681   4.097  13.646  0.00  0.00    +0.000 A 
ATOM      5  N   UNL     1      46.871   3.552  14.876  0.00  0.00    +0.000 NA
ATOM      6  C   UNL     1      47.546   4.288  15.787  0.00  0.00    +0.000 A 
ENDROOT
BRANCH   1   7
ATOM      7  C   UNL     1      48.792   6.308  16.610  0.00  0.00    +0.000 C 
BRANCH   7  10
ATOM      8  O   UNL     1      49.077   4.694  18.906  0.00  0.00    +0.000 OA
ATOM      9  C   UNL     1      50.035   4.834  18.153  0.00  0.00    +0.000 C 
ATOM     10  N   UNL     1      49.988   5.640  17.042  0.00  0.00    +0.000 N 
ATOM     11  H   UNL     1      50.735   5.579  16.358  0.00  0.00    +0.000 HD
BRANCH   9  12
ATOM     12  C   UNL     1      51.325   4.195  18.417  0.00  0.00    +0.000 A 
ATOM     13  C   UNL     1      52.300   4.845  19.163  0.00  0.00    +0.000 A 
ATOM     14  S   UNL     1      53.735   3.936  19.340  0.00  0.00    +0.000 S 
ATOM     15  C   UNL     1      53.081   2.632  18.465  0.00  0.00    +0.000 A 
ATOM     16  N   UNL     1      53.800   1.490  18.264  0.00  0.00    +0.000 NA
ATOM     17  C   UNL     1      53.163   0.569  17.618  0.00  0.00    +0.000 A 
ATOM     18  N   UNL     1      51.874   0.687  17.140  0.00  0.00    +0.000 N 
ATOM     19  C   UNL     1      51.153   1.847  17.257  0.00  0.00    +0.000 A 
ATOM     20  O   UNL     1      50.070   1.964  16.688  0.00  0.00    +0.000 OA
ATOM     21  C   UNL     1      51.802   2.893  18.018  0.00  0.00    +0.000 A 
ATOM     22  H   UNL     1      51.453  -0.052  16.614  0.00  0.00    +0.000 HD
ENDBRANCH   9  12
ENDBRANCH   7  10
ENDBRANCH   1   7
BRANCH   4  23
ATOM     23  C   UNL     1      45.924   3.282  12.615  0.00  0.00    +0.000 C 
BRANCH  23  24
ATOM     24  N   UNL     1      44.507   3.071  12.907  0.00  0.00    +0.000 NA
ATOM     25  H   UNL     1      44.189   3.920  13.381  0.00  0.00    +0.000 HD
BRANCH  24  26
ATOM     26  C   UNL     1      43.618   2.848  11.746  0.00  0.00    +0.000 C 
BRANCH  26  27
ATOM     27  C   UNL     1      43.017   4.240  11.422  0.00  0.00    +0.000 C 
ATOM     28  C   UNL     1      43.743   4.887  10.227  0.00  0.00    +0.000 C 
ATOM     29  C   UNL     1      44.814   5.886  10.638  0.00  0.00    +0.000 C 
ATOM     30  C   UNL     1      44.228   6.907  11.594  0.00  0.00    +0.000 C 
ATOM     31  N   UNL     1      43.837   6.236  12.832  0.00  0.00    +0.000 NA
ATOM     32  C   UNL     1      42.803   5.223  12.596  0.00  0.00    +0.000 C 
ATOM     33  H   UNL     1      43.457   6.941  13.467  0.00  0.00    +0.000 HD
ENDBRANCH  26  27
ENDBRANCH  24  26
ENDBRANCH  23  24
ENDBRANCH   4  23
TORSDOF 7
ENDMDL
MODEL 6
REMARK VINA RESULT:    -7.126      3.285      8.182
REMARK INTER + INTRA:         -11.258
REMARK INTER:                  -9.846
REMARK INTRA:                  -1.412
REMARK UNBOUND:                -1.216
REMARK  Name = 
REMARK  7 active torsions:
REMARK  status: ('A' for Active; 'I' for Inactive)
REMARK    1  A    between atoms: C_2  and  C_20
REMARK    2  A    between atoms: N_3  and  C_4
REMARK    3  A    between atoms: C_4  and  C_5
REMARK    4  A    between atoms: C_8  and  C_9
REMARK    5  A    between atoms: C_9  and  N_10
REMARK    6  A    between atoms: N_10  and  C_11
REMARK    7  A    between atoms: C_11  and  C_12
REMARK                            x       y       z     vdW  Elec       q    Type
REMARK                         _______ _______ _______ _____ _____    ______ ____
ROOT
ATOM      1  C   UNL     1      48.918   7.750  13.213  0.00  0.00    +0.000 A 
ATOM      2  C   UNL     1      50.069   8.434  13.610  0.00  0.00    +0.000 A 
ATOM      3  C   UNL     1      50.739   8.046  14.769  0.00  0.00    +0.000 A 
ATOM      4  C   UNL     1      50.231   6.987  15.516  0.00  0.00    +0.000 A 
ATOM      5  N   UNL     1      49.084   6.343  15.177  0.00  0.00    +0.000 NA
ATOM      6  C   UNL     1      48.466   6.727  14.037  0.00  0.00    +0.000 A 
ENDROOT
BRANCH   1   7
ATOM      7  C   UNL     1      48.182   8.099  11.952  0.00  0.00    +0.000 C 
BRANCH   7  10
ATOM      8  O   UNL     1      45.377   7.837  11.814  0.00  0.00    +0.000 OA
ATOM      9  C   UNL     1      46.083   6.948  11.350  0.00  0.00    +0.000 C 
ATOM     10  N   UNL     1      47.453   6.981  11.421  0.00  0.00    +0.000 N 
ATOM     11  H   UNL     1      47.992   6.323  10.866  0.00  0.00    +0.000 HD
BRANCH   9  12
ATOM     12  C   UNL     1      45.511   5.748  10.734  0.00  0.00    +0.000 A 
ATOM     13  C   UNL     1      45.697   5.486   9.383  0.00  0.00    +0.000 A 
ATOM     14  S   UNL     1      44.934   4.049   8.861  0.00  0.00    +0.000 S 
ATOM     15  C   UNL     1      44.373   3.714  10.431  0.00  0.00    +0.000 A 
ATOM     16  N   UNL     1      43.650   2.586  10.693  0.00  0.00    +0.000 NA
ATOM     17  C   UNL     1      43.325   2.439  11.935  0.00  0.00    +0.000 A 
ATOM     18  N   UNL     1      43.644   3.325  12.944  0.00  0.00    +0.000 N 
ATOM     19  C   UNL     1      44.300   4.505  12.703  0.00  0.00    +0.000 A 
ATOM     20  O   UNL     1      44.431   5.335  13.599  0.00  0.00    +0.000 OA
ATOM     21  C   UNL     1      44.732   4.692  11.335  0.00  0.00    +0.000 A 
ATOM     22  H   UNL     1      43.328   3.171  13.880  0.00  0.00    +0.000 HD
ENDBRANCH   9  12
ENDBRANCH   7  10
ENDBRANCH   1   7
BRANCH   4  23
ATOM     23  C   UNL     1      50.935   6.564  16.791  0.00  0.00    +0.000 C 
BRANCH  23  24
ATOM     24  N   UNL     1      50.739   5.168  17.176  0.00  0.00    +0.000 NA
ATOM     25  H   UNL     1      51.556   4.663  16.823  0.00  0.00    +0.000 HD
BRANCH  24  26
ATOM     26  C   UNL     1      50.634   4.890  18.626  0.00  0.00    +0.000 C 
BRANCH  26  27
ATOM     27  C   UNL     1      49.209   4.314  18.826  0.00  0.00    +0.000 C 
ATOM     28  C   UNL     1      49.063   2.952  18.121  0.00  0.00    +0.000 C 
ATOM     29  C   UNL     1      48.402   3.045  16.755  0.00  0.00    +0.000 C 
ATOM     30  C   UNL     1      47.089   3.795  16.865  0.00  0.00    +0.000 C 
ATOM     31  N   UNL     1      47.356   5.178  17.255  0.00  0.00    +0.000 NA
ATOM     32  C   UNL     1      48.009   5.254  18.566  0.00  0.00    +0.000 C 
ATOM     33  H   UNL     1      46.462   5.669  17.312  0.00  0.00    +0.000 HD
ENDBRANCH  26  27
ENDBRANCH  24  26
ENDBRANCH  23  24
ENDBRANCH   4  23
TORSDOF 7
ENDMDL
MODEL 7
REMARK VINA RESULT:    -6.692      2.224      3.831
REMARK INTER + INTRA:         -10.646
REMARK INTER:                  -9.572
REMARK INTRA:                  -1.074
REMARK UNBOUND:                -1.216
REMARK  Name = 
REMARK  7 active torsions:
REMARK  status: ('A' for Active; 'I' for Inactive)
REMARK    1  A    between atoms: C_2  and  C_20
REMARK    2  A    between atoms: N_3  and  C_4
REMARK    3  A    between atoms: C_4  and  C_5
REMARK    4  A    between atoms: C_8  and  C_9
REMARK    5  A    between atoms: C_9  and  N_10
REMARK    6  A    between atoms: N_10  and  C_11
REMARK    7  A    between atoms: C_11  and  C_12
REMARK                            x       y       z     vdW  Elec       q    Type
REMARK                         _______ _______ _______ _____ _____    ______ ____
ROOT
ATOM      1  C   UNL     1      46.217   4.731  13.158  0.00  0.00    +0.000 A 
ATOM      2  C   UNL     1      45.334   3.658  13.020  0.00  0.00    +0.000 A 
ATOM      3  C   UNL     1      44.508   3.581  11.900  0.00  0.00    +0.000 A 
ATOM      4  C   UNL     1      44.575   4.592  10.945  0.00  0.00    +0.000 A 
ATOM      5  N   UNL     1      45.388   5.672  11.086  0.00  0.00    +0.000 NA
ATOM      6  C   UNL     1      46.192   5.710  12.172  0.00  0.00    +0.000 A 
ENDROOT
BRANCH   1   7
ATOM      7  C   UNL     1      47.157   4.840  14.322  0.00  0.00    +0.000 C 
BRANCH   7  10
ATOM      8  O   UNL     1      48.590   6.016  16.449  0.00  0.00    +0.000 OA
ATOM      9  C   UNL     1      48.674   6.508  15.328  0.00  0.00    +0.000 C 
ATOM     10  N   UNL     1      47.972   6.021  14.254  0.00  0.00    +0.000 N 
ATOM     11  H   UNL     1      48.214   6.341  13.322  0.00  0.00    +0.000 HD
BRANCH   9  12
ATOM     12  C   UNL     1      49.491   7.694  15.065  0.00  0.00    +0.000 A 
ATOM     13  C   UNL     1      50.822   7.742  15.459  0.00  0.00    +0.000 A 
ATOM     14  S   UNL     1      51.590   9.219  15.074  0.00  0.00    +0.000 S 
ATOM     15  C   UNL     1      50.182   9.819  14.331  0.00  0.00    +0.000 A 
ATOM     16  N   UNL     1      50.164  11.056  13.756  0.00  0.00    +0.000 NA
ATOM     17  C   UNL     1      49.041  11.364  13.194  0.00  0.00    +0.000 A 
ATOM     18  N   UNL     1      47.925  10.553  13.164  0.00  0.00    +0.000 N 
ATOM     19  C   UNL     1      47.884   9.339  13.799  0.00  0.00    +0.000 A 
ATOM     20  O   UNL     1      46.828   8.716  13.878  0.00  0.00    +0.000 OA
ATOM     21  C   UNL     1      49.134   8.924  14.400  0.00  0.00    +0.000 A 
ATOM     22  H   UNL     1      47.074  10.869  12.745  0.00  0.00    +0.000 HD
ENDBRANCH   9  12
ENDBRANCH   7  10
ENDBRANCH   1   7
BRANCH   4  23
ATOM     23  C   UNL     1      43.669   4.536   9.730  0.00  0.00    +0.000 C 
BRANCH  23  24
ATOM     24  N   UNL     1      44.312   4.092   8.495  0.00  0.00    +0.000 NA
ATOM     25  H   UNL     1      45.199   4.599   8.443  0.00  0.00    +0.000 HD
BRANCH  24  26
ATOM     26  C   UNL     1      44.616   2.648   8.390  0.00  0.00    +0.000 C 
BRANCH  26  27
ATOM     27  C   UNL     1      46.156   2.568   8.230  0.00  0.00    +0.000 C 
ATOM     28  C   UNL     1      46.679   3.729   7.362  0.00  0.00    +0.000 C 
ATOM     29  C   UNL     1      46.907   3.343   5.909  0.00  0.00    +0.000 C 
ATOM     30  C   UNL     1      47.785   2.109   5.833  0.00  0.00    +0.000 C 
ATOM     31  N   UNL     1      47.074   0.977   6.422  0.00  0.00    +0.000 NA
ATOM     32  C   UNL     1      46.771   1.205   7.838  0.00  0.00    +0.000 C 
ATOM     33  H   UNL     1      47.676   0.154   6.350  0.00  0.00    +0.000 HD
ENDBRANCH  26  27
ENDBRANCH  24  26
ENDBRANCH  23  24
ENDBRANCH   4  23
TORSDOF 7
ENDMDL
MODEL 8
REMARK VINA RESULT:    -6.653      2.052      2.821
REMARK INTER + INTRA:         -10.592
REMARK INTER:                  -9.796
REMARK INTRA:                  -0.796
REMARK UNBOUND:                -1.216
REMARK  Name = 
REMARK  7 active torsions:
REMARK  status: ('A' for Active; 'I' for Inactive)
REMARK    1  A    between atoms: C_2  and  C_20
REMARK    2  A    between atoms: N_3  and  C_4
REMARK    3  A    between atoms: C_4  and  C_5
REMARK    4  A    between atoms: C_8  and  C_9
REMARK    5  A    between atoms: C_9  and  N_10
REMARK    6  A    between atoms: N_10  and  C_11
REMARK    7  A    between atoms: C_11  and  C_12
REMARK                            x       y       z     vdW  Elec       q    Type
REMARK                         _______ _______ _______ _____ _____    ______ ____
ROOT
ATOM      1  C   UNL     1      45.879   6.906  12.544  0.00  0.00    +0.000 A 
ATOM      2  C   UNL     1      44.707   7.236  11.861  0.00  0.00    +0.000 A 
ATOM      3  C   UNL     1      44.010   6.249  11.166  0.00  0.00    +0.000 A 
ATOM      4  C   UNL     1      44.512   4.951  11.159  0.00  0.00    +0.000 A 
ATOM      5  N   UNL     1      45.678   4.619  11.773  0.00  0.00    +0.000 NA
ATOM      6  C   UNL     1      46.322   5.593  12.455  0.00  0.00    +0.000 A 
ENDROOT
BRANCH   1   7
ATOM      7  C   UNL     1      46.645   7.921  13.342  0.00  0.00    +0.000 C 
BRANCH   7  10
ATOM      8  O   UNL     1      48.270   9.228  15.241  0.00  0.00    +0.000 OA
ATOM      9  C   UNL     1      48.381   8.016  15.094  0.00  0.00    +0.000 C 
ATOM     10  N   UNL     1      47.659   7.316  14.159  0.00  0.00    +0.000 N 
ATOM     11  H   UNL     1      47.650   6.302  14.202  0.00  0.00    +0.000 HD
BRANCH   9  12
ATOM     12  C   UNL     1      49.341   7.228  15.871  0.00  0.00    +0.000 A 
ATOM     13  C   UNL     1      48.912   6.397  16.898  0.00  0.00    +0.000 A 
ATOM     14  S   UNL     1      50.189   5.583  17.688  0.00  0.00    +0.000 S 
ATOM     15  C   UNL     1      51.345   6.281  16.654  0.00  0.00    +0.000 A 
ATOM     16  N   UNL     1      52.671   5.978  16.775  0.00  0.00    +0.000 NA
ATOM     17  C   UNL     1      53.429   6.549  15.898  0.00  0.00    +0.000 A 
ATOM     18  N   UNL     1      52.987   7.410  14.913  0.00  0.00    +0.000 N 
ATOM     19  C   UNL     1      51.675   7.796  14.812  0.00  0.00    +0.000 A 
ATOM     20  O   UNL     1      51.348   8.677  14.022  0.00  0.00    +0.000 OA
ATOM     21  C   UNL     1      50.776   7.143  15.740  0.00  0.00    +0.000 A 
ATOM     22  H   UNL     1      53.633   7.849  14.289  0.00  0.00    +0.000 HD
ENDBRANCH   9  12
ENDBRANCH   7  10
ENDBRANCH   1   7
BRANCH   4  23
ATOM     23  C   UNL     1      43.778   3.868  10.391  0.00  0.00    +0.000 C 
BRANCH  23  24
ATOM     24  N   UNL     1      44.129   3.763   8.976  0.00  0.00    +0.000 NA
ATOM     25  H   UNL     1      44.930   4.385   8.839  0.00  0.00    +0.000 HD
BRANCH  24  26
ATOM     26  C   UNL     1      44.518   2.421   8.489  0.00  0.00    +0.000 C 
BRANCH  26  27
ATOM     27  C   UNL     1      46.059   2.480   8.323  0.00  0.00    +0.000 C 
ATOM     28  C   UNL     1      46.473   3.697   7.473  0.00  0.00    +0.000 C 
ATOM     29  C   UNL     1      46.728   3.358   6.013  0.00  0.00    +0.000 C 
ATOM     30  C   UNL     1      47.711   2.207   5.913  0.00  0.00    +0.000 C 
ATOM     31  N   UNL     1      47.105   1.006   6.485  0.00  0.00    +0.000 NA
ATOM     32  C   UNL     1      46.789   1.183   7.906  0.00  0.00    +0.000 C 
ATOM     33  H   UNL     1      47.776   0.241   6.397  0.00  0.00    +0.000 HD
ENDBRANCH  26  27
ENDBRANCH  24  26
ENDBRANCH  23  24
ENDBRANCH   4  23
TORSDOF 7
ENDMDL
MODEL 9
REMARK VINA RESULT:    -6.393      3.645      9.028
REMARK INTER + INTRA:         -10.225
REMARK INTER:                  -8.591
REMARK INTRA:                  -1.634
REMARK UNBOUND:                -1.216
REMARK  Name = 
REMARK  7 active torsions:
REMARK  status: ('A' for Active; 'I' for Inactive)
REMARK    1  A    between atoms: C_2  and  C_20
REMARK    2  A    between atoms: N_3  and  C_4
REMARK    3  A    between atoms: C_4  and  C_5
REMARK    4  A    between atoms: C_8  and  C_9
REMARK    5  A    between atoms: C_9  and  N_10
REMARK    6  A    between atoms: N_10  and  C_11
REMARK    7  A    between atoms: C_11  and  C_12
REMARK                            x       y       z     vdW  Elec       q    Type
REMARK                         _______ _______ _______ _____ _____    ______ ____
ROOT
ATOM      1  C   UNL     1      48.643   6.150  16.256  0.00  0.00    +0.000 A 
ATOM      2  C   UNL     1      48.659   4.774  16.497  0.00  0.00    +0.000 A 
ATOM      3  C   UNL     1      48.663   4.302  17.808  0.00  0.00    +0.000 A 
ATOM      4  C   UNL     1      48.668   5.220  18.853  0.00  0.00    +0.000 A 
ATOM      5  N   UNL     1      48.707   6.562  18.642  0.00  0.00    +0.000 NA
ATOM      6  C   UNL     1      48.681   6.992  17.360  0.00  0.00    +0.000 A 
ENDROOT
BRANCH   1   7
ATOM      7  C   UNL     1      48.595   6.711  14.865  0.00  0.00    +0.000 C 
BRANCH   7  10
ATOM      8  O   UNL     1      48.060   6.904  12.102  0.00  0.00    +0.000 OA
ATOM      9  C   UNL     1      47.169   6.528  12.858  0.00  0.00    +0.000 C 
ATOM     10  N   UNL     1      47.339   6.453  14.218  0.00  0.00    +0.000 N 
ATOM     11  H   UNL     1      46.644   5.966  14.775  0.00  0.00    +0.000 HD
BRANCH   9  12
ATOM     12  C   UNL     1      45.833   6.185  12.367  0.00  0.00    +0.000 A 
ATOM     13  C   UNL     1      45.009   7.156  11.814  0.00  0.00    +0.000 A 
ATOM     14  S   UNL     1      43.488   6.553  11.320  0.00  0.00    +0.000 S 
ATOM     15  C   UNL     1      43.904   4.971  11.788  0.00  0.00    +0.000 A 
ATOM     16  N   UNL     1      43.034   3.935  11.612  0.00  0.00    +0.000 NA
ATOM     17  C   UNL     1      43.498   2.784  11.975  0.00  0.00    +0.000 A 
ATOM     18  N   UNL     1      44.751   2.572  12.513  0.00  0.00    +0.000 N 
ATOM     19  C   UNL     1      45.619   3.601  12.776  0.00  0.00    +0.000 A 
ATOM     20  O   UNL     1      46.660   3.390  13.393  0.00  0.00    +0.000 OA
ATOM     21  C   UNL     1      45.167   4.905  12.340  0.00  0.00    +0.000 A 
ATOM     22  H   UNL     1      45.034   1.660  12.810  0.00  0.00    +0.000 HD
ENDBRANCH   9  12
ENDBRANCH   7  10
ENDBRANCH   1   7
BRANCH   4  23
ATOM     23  C   UNL     1      48.695   4.724  20.287  0.00  0.00    +0.000 C 
BRANCH  23  24
ATOM     24  N   UNL     1      50.025   4.617  20.882  0.00  0.00    +0.000 NA
ATOM     25  H   UNL     1      50.551   3.977  20.280  0.00  0.00    +0.000 HD
BRANCH  24  26
ATOM     26  C   UNL     1      50.805   5.869  20.991  0.00  0.00    +0.000 C 
BRANCH  26  27
ATOM     27  C   UNL     1      52.191   5.540  20.378  0.00  0.00    +0.000 C 
ATOM     28  C   UNL     1      52.428   6.353  19.090  0.00  0.00    +0.000 C 
ATOM     29  C   UNL     1      52.124   5.576  17.819  0.00  0.00    +0.000 C 
ATOM     30  C   UNL     1      52.870   4.256  17.828  0.00  0.00    +0.000 C 
ATOM     31  N   UNL     1      52.360   3.424  18.915  0.00  0.00    +0.000 NA
ATOM     32  C   UNL     1      52.574   4.050  20.223  0.00  0.00    +0.000 C 
ATOM     33  H   UNL     1      52.865   2.536  18.897  0.00  0.00    +0.000 HD
ENDBRANCH  26  27
ENDBRANCH  24  26
ENDBRANCH  23  24
ENDBRANCH   4  23
TORSDOF 7
ENDMDL
