MODEL 1
REMARK VINA RESULT:    -8.327      0.000      0.000
REMARK INTER + INTRA:         -11.843
REMARK INTER:                 -11.734
REMARK INTRA:                  -0.109
REMARK UNBOUND:                -0.109
REMARK  Name = 
REMARK  8 active torsions:
REMARK  status: ('A' for Active; 'I' for Inactive)
REMARK    1  A    between atoms: N_1  and  C_2
REMARK    2  A    between atoms: C_2  and  C_3
REMARK    3  A    between atoms: C_3  and  C_4
REMARK    4  A    between atoms: C_7  and  C_8
REMARK    5  A    between atoms: C_8  and  N_9
REMARK    6  A    between atoms: N_9  and  C_10
REMARK    7  A    between atoms: C_13  and  C_14
REMARK    8  A    between atoms: N_16  and  O_17
REMARK                            x       y       z     vdW  Elec       q    Type
REMARK                         _______ _______ _______ _____ _____    ______ ____
ROOT
ATOM      1  N   UNL     1      43.722   5.037   9.740  0.00  0.00    +0.000 N 
ATOM      2  H   UNL     1      42.971   5.329   9.115  0.00  0.00    +0.000 HD
ENDROOT
BRANCH   1   3
ATOM      3  C   UNL     1      44.498   4.029   9.159  0.00  0.00    +0.000 A 
ATOM      4  C   UNL     1      44.417   2.674   9.495  0.00  0.00    +0.000 A 
ATOM      5  C   UNL     1      45.267   1.722   8.903  0.00  0.00    +0.000 A 
ATOM      6  C   UNL     1      46.251   2.112   7.984  0.00  0.00    +0.000 A 
ATOM      7  C   UNL     1      46.345   3.464   7.656  0.00  0.00    +0.000 A 
ATOM      8  C   UNL     1      45.500   4.407   8.256  0.00  0.00    +0.000 A 
BRANCH   6   9
ATOM      9  C   UNL     1      47.136   1.070   7.355  0.00  0.00    +0.000 C 
ATOM     10  N   UNL     1      46.847  -0.256   7.585  0.00  0.00    +0.000 N 
ATOM     11  N   UNL     1      48.174   1.268   6.580  0.00  0.00    +0.000 NA
ATOM     12  H   UNL     1      45.862  -0.489   7.623  0.00  0.00    +0.000 HD
ATOM     13  H   UNL     1      47.363  -0.855   6.948  0.00  0.00    +0.000 HD
BRANCH  11  14
ATOM     14  O   UNL     1      48.520   2.606   6.407  0.00  0.00    +0.000 OA
ATOM     15  H   UNL     1      48.522   2.939   7.323  0.00  0.00    +0.000 HD
ENDBRANCH  11  14
ENDBRANCH   6   9
ENDBRANCH   1   3
BRANCH   1  16
ATOM     16  C   UNL     1      43.299   4.932  11.127  0.00  0.00    +0.000 C 
BRANCH  16  20
ATOM     17  C   UNL     1      46.531   5.207  13.900  0.00  0.00    +0.000 A 
ATOM     18  C   UNL     1      46.223   6.323  13.129  0.00  0.00    +0.000 A 
ATOM     19  C   UNL     1      45.185   6.238  12.203  0.00  0.00    +0.000 A 
ATOM     20  C   UNL     1      44.475   5.043  12.059  0.00  0.00    +0.000 A 
ATOM     21  C   UNL     1      44.864   3.977  12.861  0.00  0.00    +0.000 A 
ATOM     22  N   UNL     1      45.873   4.031  13.766  0.00  0.00    +0.000 NA
BRANCH  17  23
ATOM     23  C   UNL     1      47.658   5.256  14.900  0.00  0.00    +0.000 C 
BRANCH  23  24
ATOM     24  C   UNL     1      47.466   4.186  15.976  0.00  0.00    +0.000 C 
BRANCH  24  25
ATOM     25  N   UNL     1      47.911   2.871  15.511  0.00  0.00    +0.000 NA
ATOM     26  H   UNL     1      47.265   2.164  15.860  0.00  0.00    +0.000 HD
ATOM     27  H   UNL     1      48.813   2.655  15.938  0.00  0.00    +0.000 HD
ENDBRANCH  24  25
ENDBRANCH  23  24
ENDBRANCH  17  23
ENDBRANCH  16  20
ENDBRANCH   1  16
TORSDOF 8
ENDMDL
MODEL 2
REMARK VINA RESULT:    -8.142      1.658      2.121
REMARK INTER + INTRA:         -11.582
REMARK INTER:                 -11.291
REMARK INTRA:                  -0.291
REMARK UNBOUND:                -0.109
REMARK  Name = 
REMARK  8 active torsions:
REMARK  status: ('A' for Active; 'I' for Inactive)
REMARK    1  A    between atoms: N_1  and  C_2
REMARK    2  A    between atoms: C_2  and  C_3
REMARK    3  A    between atoms: C_3  and  C_4
REMARK    4  A    between atoms: C_7  and  C_8
REMARK    5  A    between atoms: C_8  and  N_9
REMARK    6  A    between atoms: N_9  and  C_10
REMARK    7  A    between atoms: C_13  and  C_14
REMARK    8  A    between atoms: N_16  and  O_17
REMARK                            x       y       z     vdW  Elec       q    Type
REMARK                         _______ _______ _______ _____ _____    ______ ____
ROOT
ATOM      1  N   UNL     1      43.750   5.022   9.865  0.00  0.00    +0.000 N 
ATOM      2  H   UNL     1      42.881   5.182   9.358  0.00  0.00    +0.000 HD
ENDROOT
BRANCH   1   3
ATOM      3  C   UNL     1      44.516   4.026   9.252  0.00  0.00    +0.000 A 
ATOM      4  C   UNL     1      44.464   2.669   9.583  0.00  0.00    +0.000 A 
ATOM      5  C   UNL     1      45.303   1.731   8.955  0.00  0.00    +0.000 A 
ATOM      6  C   UNL     1      46.248   2.137   8.003  0.00  0.00    +0.000 A 
ATOM      7  C   UNL     1      46.314   3.492   7.679  0.00  0.00    +0.000 A 
ATOM      8  C   UNL     1      45.480   4.421   8.315  0.00  0.00    +0.000 A 
BRANCH   6   9
ATOM      9  C   UNL     1      47.122   1.109   7.337  0.00  0.00    +0.000 C 
ATOM     10  N   UNL     1      46.814  -0.221   7.512  0.00  0.00    +0.000 N 
ATOM     11  N   UNL     1      48.168   1.324   6.576  0.00  0.00    +0.000 NA
ATOM     12  H   UNL     1      45.825  -0.442   7.535  0.00  0.00    +0.000 HD
ATOM     13  H   UNL     1      47.325  -0.800   6.854  0.00  0.00    +0.000 HD
BRANCH  11  14
ATOM     14  O   UNL     1      48.533   2.662   6.460  0.00  0.00    +0.000 OA
ATOM     15  H   UNL     1      49.491   2.602   6.293  0.00  0.00    +0.000 HD
ENDBRANCH  11  14
ENDBRANCH   6   9
ENDBRANCH   1   3
BRANCH   1  16
ATOM     16  C   UNL     1      43.575   5.030  11.309  0.00  0.00    +0.000 C 
BRANCH  16  20
ATOM     17  C   UNL     1      47.188   6.403  13.119  0.00  0.00    +0.000 A 
ATOM     18  C   UNL     1      46.620   5.223  13.587  0.00  0.00    +0.000 A 
ATOM     19  C   UNL     1      45.427   4.777  13.019  0.00  0.00    +0.000 A 
ATOM     20  C   UNL     1      44.821   5.515  12.000  0.00  0.00    +0.000 A 
ATOM     21  C   UNL     1      45.454   6.689  11.609  0.00  0.00    +0.000 A 
ATOM     22  N   UNL     1      46.611   7.149  12.146  0.00  0.00    +0.000 NA
BRANCH  17  23
ATOM     23  C   UNL     1      48.469   6.926  13.719  0.00  0.00    +0.000 C 
BRANCH  23  24
ATOM     24  C   UNL     1      48.391   8.441  13.912  0.00  0.00    +0.000 C 
BRANCH  24  25
ATOM     25  N   UNL     1      47.182   8.828  14.640  0.00  0.00    +0.000 NA
ATOM     26  H   UNL     1      46.913   8.064  15.259  0.00  0.00    +0.000 HD
ATOM     27  H   UNL     1      46.413   8.930  13.977  0.00  0.00    +0.000 HD
ENDBRANCH  24  25
ENDBRANCH  23  24
ENDBRANCH  17  23
ENDBRANCH  16  20
ENDBRANCH   1  16
TORSDOF 8
ENDMDL
MODEL 3
REMARK VINA RESULT:    -7.881      2.340      6.926
REMARK INTER + INTRA:         -11.215
REMARK INTER:                 -10.501
REMARK INTRA:                  -0.713
REMARK UNBOUND:                -0.109
REMARK  Name = 
REMARK  8 active torsions:
REMARK  status: ('A' for Active; 'I' for Inactive)
REMARK    1  A    between atoms: N_1  and  C_2
REMARK    2  A    between atoms: C_2  and  C_3
REMARK    3  A    between atoms: C_3  and  C_4
REMARK    4  A    between atoms: C_7  and  C_8
REMARK    5  A    between atoms: C_8  and  N_9
REMARK    6  A    between atoms: N_9  and  C_10
REMARK    7  A    between atoms: C_13  and  C_14
REMARK    8  A    between atoms: N_16  and  O_17
REMARK                            x       y       z     vdW  Elec       q    Type
REMARK                         _______ _______ _______ _____ _____    ______ ____
ROOT
ATOM      1  N   UNL     1      44.485   5.962  10.640  0.00  0.00    +0.000 N 
ATOM      2  H   UNL     1      44.956   6.496   9.911  0.00  0.00    +0.000 HD
ENDROOT
BRANCH   1   3
ATOM      3  C   UNL     1      45.302   5.812  11.765  0.00  0.00    +0.000 A 
ATOM      4  C   UNL     1      46.592   6.337  11.883  0.00  0.00    +0.000 A 
ATOM      5  C   UNL     1      47.375   6.103  13.028  0.00  0.00    +0.000 A 
ATOM      6  C   UNL     1      46.895   5.299  14.073  0.00  0.00    +0.000 A 
ATOM      7  C   UNL     1      45.614   4.763  13.954  0.00  0.00    +0.000 A 
ATOM      8  C   UNL     1      44.844   4.994  12.806  0.00  0.00    +0.000 A 
BRANCH   6   9
ATOM      9  C   UNL     1      47.748   5.079  15.293  0.00  0.00    +0.000 C 
ATOM     10  N   UNL     1      48.173   6.181  16.000  0.00  0.00    +0.000 N 
ATOM     11  N   UNL     1      48.144   3.934  15.793  0.00  0.00    +0.000 NA
ATOM     12  H   UNL     1      47.505   6.940  16.070  0.00  0.00    +0.000 HD
ATOM     13  H   UNL     1      48.545   5.909  16.904  0.00  0.00    +0.000 HD
BRANCH  11  14
ATOM     14  O   UNL     1      47.786   2.820  15.038  0.00  0.00    +0.000 OA
ATOM     15  H   UNL     1      48.423   2.148  15.346  0.00  0.00    +0.000 HD
ENDBRANCH  11  14
ENDBRANCH   6   9
ENDBRANCH   1   3
BRANCH   1  16
ATOM     16  C   UNL     1      43.737   4.828  10.120  0.00  0.00    +0.000 C 
BRANCH  16  20
ATOM     17  C   UNL     1      46.218   2.235   7.810  0.00  0.00    +0.000 A 
ATOM     18  C   UNL     1      45.382   1.672   8.767  0.00  0.00    +0.000 A 
ATOM     19  C   UNL     1      44.585   2.511   9.544  0.00  0.00    +0.000 A 
ATOM     20  C   UNL     1      44.636   3.893   9.356  0.00  0.00    +0.000 A 
ATOM     21  C   UNL     1      45.514   4.366   8.387  0.00  0.00    +0.000 A 
ATOM     22  N   UNL     1      46.304   3.574   7.621  0.00  0.00    +0.000 NA
BRANCH  17  23
ATOM     23  C   UNL     1      47.108   1.362   6.962  0.00  0.00    +0.000 C 
BRANCH  23  24
ATOM     24  C   UNL     1      48.356   2.131   6.526  0.00  0.00    +0.000 C 
BRANCH  24  25
ATOM     25  N   UNL     1      48.282   2.522   5.117  0.00  0.00    +0.000 NA
ATOM     26  H   UNL     1      48.039   3.511   5.064  0.00  0.00    +0.000 HD
ATOM     27  H   UNL     1      47.509   2.024   4.674  0.00  0.00    +0.000 HD
ENDBRANCH  24  25
ENDBRANCH  23  24
ENDBRANCH  17  23
ENDBRANCH  16  20
ENDBRANCH   1  16
TORSDOF 8
ENDMDL
MODEL 4
REMARK VINA RESULT:    -7.816      3.059      6.975
REMARK INTER + INTRA:         -11.123
REMARK INTER:                 -10.409
REMARK INTRA:                  -0.713
REMARK UNBOUND:                -0.109
REMARK  Name = 
REMARK  8 active torsions:
REMARK  status: ('A' for Active; 'I' for Inactive)
REMARK    1  A    between atoms: N_1  and  C_2
REMARK    2  A    between atoms: C_2  and  C_3
REMARK    3  A    between atoms: C_3  and  C_4
REMARK    4  A    between atoms: C_7  and  C_8
REMARK    5  A    between atoms: C_8  and  N_9
REMARK    6  A    between atoms: N_9  and  C_10
REMARK    7  A    between atoms: C_13  and  C_14
REMARK    8  A    between atoms: N_16  and  O_17
REMARK                            x       y       z     vdW  Elec       q    Type
REMARK                         _______ _______ _______ _____ _____    ______ ____
ROOT
ATOM      1  N   UNL     1      44.031   4.360  11.794  0.00  0.00    +0.000 N 
ATOM      2  H   UNL     1      43.268   4.362  12.469  0.00  0.00    +0.000 HD
ENDROOT
BRANCH   1   3
ATOM      3  C   UNL     1      45.082   5.179  12.218  0.00  0.00    +0.000 A 
ATOM      4  C   UNL     1      45.442   6.385  11.608  0.00  0.00    +0.000 A 
ATOM      5  C   UNL     1      46.545   7.131  12.061  0.00  0.00    +0.000 A 
ATOM      6  C   UNL     1      47.342   6.666  13.116  0.00  0.00    +0.000 A 
ATOM      7  C   UNL     1      46.996   5.457  13.718  0.00  0.00    +0.000 A 
ATOM      8  C   UNL     1      45.900   4.716  13.256  0.00  0.00    +0.000 A 
BRANCH   6   9
ATOM      9  C   UNL     1      48.507   7.494  13.589  0.00  0.00    +0.000 C 
ATOM     10  N   UNL     1      49.768   7.156  13.153  0.00  0.00    +0.000 N 
ATOM     11  N   UNL     1      48.473   8.538  14.381  0.00  0.00    +0.000 NA
ATOM     12  H   UNL     1      49.827   6.833  12.194  0.00  0.00    +0.000 HD
ATOM     13  H   UNL     1      50.430   7.898  13.353  0.00  0.00    +0.000 HD
BRANCH  11  14
ATOM     14  O   UNL     1      47.212   8.836  14.890  0.00  0.00    +0.000 OA
ATOM     15  H   UNL     1      47.128   8.200  15.624  0.00  0.00    +0.000 HD
ENDBRANCH  11  14
ENDBRANCH   6   9
ENDBRANCH   1   3
BRANCH   1  16
ATOM     16  C   UNL     1      43.570   4.409  10.416  0.00  0.00    +0.000 C 
BRANCH  16  20
ATOM     17  C   UNL     1      46.247   2.134   7.993  0.00  0.00    +0.000 A 
ATOM     18  C   UNL     1      46.190   3.510   7.803  0.00  0.00    +0.000 A 
ATOM     19  C   UNL     1      45.302   4.261   8.572  0.00  0.00    +0.000 A 
ATOM     20  C   UNL     1      44.487   3.628   9.513  0.00  0.00    +0.000 A 
ATOM     21  C   UNL     1      44.603   2.247   9.621  0.00  0.00    +0.000 A 
ATOM     22  N   UNL     1      45.454   1.491   8.883  0.00  0.00    +0.000 NA
BRANCH  17  23
ATOM     23  C   UNL     1      47.183   1.286   7.169  0.00  0.00    +0.000 C 
BRANCH  23  24
ATOM     24  C   UNL     1      48.318   2.138   6.599  0.00  0.00    +0.000 C 
BRANCH  24  25
ATOM     25  N   UNL     1      48.378   2.047   5.139  0.00  0.00    +0.000 NA
ATOM     26  H   UNL     1      48.719   1.121   4.882  0.00  0.00    +0.000 HD
ATOM     27  H   UNL     1      49.078   2.704   4.793  0.00  0.00    +0.000 HD
ENDBRANCH  24  25
ENDBRANCH  23  24
ENDBRANCH  17  23
ENDBRANCH  16  20
ENDBRANCH   1  16
TORSDOF 8
ENDMDL
MODEL 5
REMARK VINA RESULT:    -7.791      2.578      6.922
REMARK INTER + INTRA:         -11.087
REMARK INTER:                 -10.394
REMARK INTRA:                  -0.693
REMARK UNBOUND:                -0.109
REMARK  Name = 
REMARK  8 active torsions:
REMARK  status: ('A' for Active; 'I' for Inactive)
REMARK    1  A    between atoms: N_1  and  C_2
REMARK    2  A    between atoms: C_2  and  C_3
REMARK    3  A    between atoms: C_3  and  C_4
REMARK    4  A    between atoms: C_7  and  C_8
REMARK    5  A    between atoms: C_8  and  N_9
REMARK    6  A    between atoms: N_9  and  C_10
REMARK    7  A    between atoms: C_13  and  C_14
REMARK    8  A    between atoms: N_16  and  O_17
REMARK                            x       y       z     vdW  Elec       q    Type
REMARK                         _______ _______ _______ _____ _____    ______ ____
ROOT
ATOM      1  N   UNL     1      44.185   3.629  12.574  0.00  0.00    +0.000 N 
ATOM      2  H   UNL     1      43.677   3.331  13.405  0.00  0.00    +0.000 HD
ENDROOT
BRANCH   1   3
ATOM      3  C   UNL     1      44.960   4.762  12.836  0.00  0.00    +0.000 A 
ATOM      4  C   UNL     1      44.558   6.076  12.577  0.00  0.00    +0.000 A 
ATOM      5  C   UNL     1      45.414   7.165  12.822  0.00  0.00    +0.000 A 
ATOM      6  C   UNL     1      46.716   6.961  13.298  0.00  0.00    +0.000 A 
ATOM      7  C   UNL     1      47.128   5.652  13.546  0.00  0.00    +0.000 A 
ATOM      8  C   UNL     1      46.272   4.572  13.292  0.00  0.00    +0.000 A 
BRANCH   6   9
ATOM      9  C   UNL     1      47.604   8.146  13.566  0.00  0.00    +0.000 C 
ATOM     10  N   UNL     1      47.440   8.830  14.750  0.00  0.00    +0.000 N 
ATOM     11  N   UNL     1      48.553   8.621  12.797  0.00  0.00    +0.000 NA
ATOM     12  H   UNL     1      47.224   8.259  15.558  0.00  0.00    +0.000 HD
ATOM     13  H   UNL     1      48.220   9.457  14.916  0.00  0.00    +0.000 HD
BRANCH  11  14
ATOM     14  O   UNL     1      48.671   7.985  11.564  0.00  0.00    +0.000 OA
ATOM     15  H   UNL     1      48.684   8.736  10.944  0.00  0.00    +0.000 HD
ENDBRANCH  11  14
ENDBRANCH   6   9
ENDBRANCH   1   3
BRANCH   1  16
ATOM     16  C   UNL     1      43.389   3.549  11.360  0.00  0.00    +0.000 C 
BRANCH  16  20
ATOM     17  C   UNL     1      45.747   3.101   7.831  0.00  0.00    +0.000 A 
ATOM     18  C   UNL     1      45.559   1.990   8.647  0.00  0.00    +0.000 A 
ATOM     19  C   UNL     1      44.811   2.130   9.815  0.00  0.00    +0.000 A 
ATOM     20  C   UNL     1      44.266   3.372  10.150  0.00  0.00    +0.000 A 
ATOM     21  C   UNL     1      44.520   4.428   9.282  0.00  0.00    +0.000 A 
ATOM     22  N   UNL     1      45.249   4.321   8.142  0.00  0.00    +0.000 NA
BRANCH  17  23
ATOM     23  C   UNL     1      46.565   2.993   6.569  0.00  0.00    +0.000 C 
BRANCH  23  24
ATOM     24  C   UNL     1      47.497   1.782   6.635  0.00  0.00    +0.000 C 
BRANCH  24  25
ATOM     25  N   UNL     1      48.537   1.848   5.607  0.00  0.00    +0.000 NA
ATOM     26  H   UNL     1      48.857   0.901   5.404  0.00  0.00    +0.000 HD
ATOM     27  H   UNL     1      49.349   2.338   5.986  0.00  0.00    +0.000 HD
ENDBRANCH  24  25
ENDBRANCH  23  24
ENDBRANCH  17  23
ENDBRANCH  16  20
ENDBRANCH   1  16
TORSDOF 8
ENDMDL
MODEL 6
REMARK VINA RESULT:    -7.392      1.587      2.117
REMARK INTER + INTRA:         -10.526
REMARK INTER:                 -10.306
REMARK INTRA:                  -0.220
REMARK UNBOUND:                -0.109
REMARK  Name = 
REMARK  8 active torsions:
REMARK  status: ('A' for Active; 'I' for Inactive)
REMARK    1  A    between atoms: N_1  and  C_2
REMARK    2  A    between atoms: C_2  and  C_3
REMARK    3  A    between atoms: C_3  and  C_4
REMARK    4  A    between atoms: C_7  and  C_8
REMARK    5  A    between atoms: C_8  and  N_9
REMARK    6  A    between atoms: N_9  and  C_10
REMARK    7  A    between atoms: C_13  and  C_14
REMARK    8  A    between atoms: N_16  and  O_17
REMARK                            x       y       z     vdW  Elec       q    Type
REMARK                         _______ _______ _______ _____ _____    ______ ____
ROOT
ATOM      1  N   UNL     1      43.757   4.850  10.362  0.00  0.00    +0.000 N 
ATOM      2  H   UNL     1      42.793   4.709  10.062  0.00  0.00    +0.000 HD
ENDROOT
BRANCH   1   3
ATOM      3  C   UNL     1      44.649   4.170   9.527  0.00  0.00    +0.000 A 
ATOM      4  C   UNL     1      45.515   4.788   8.619  0.00  0.00    +0.000 A 
ATOM      5  C   UNL     1      46.349   4.034   7.775  0.00  0.00    +0.000 A 
ATOM      6  C   UNL     1      46.309   2.633   7.792  0.00  0.00    +0.000 A 
ATOM      7  C   UNL     1      45.439   2.011   8.685  0.00  0.00    +0.000 A 
ATOM      8  C   UNL     1      44.604   2.769   9.517  0.00  0.00    +0.000 A 
BRANCH   6   9
ATOM      9  C   UNL     1      47.226   1.853   6.888  0.00  0.00    +0.000 C 
ATOM     10  N   UNL     1      47.845   2.518   5.854  0.00  0.00    +0.000 N 
ATOM     11  N   UNL     1      47.530   0.580   6.968  0.00  0.00    +0.000 NA
ATOM     12  H   UNL     1      48.141   3.465   6.059  0.00  0.00    +0.000 HD
ATOM     13  H   UNL     1      48.591   1.956   5.458  0.00  0.00    +0.000 HD
BRANCH  11  14
ATOM     14  O   UNL     1      46.847  -0.116   7.961  0.00  0.00    +0.000 OA
ATOM     15  H   UNL     1      47.104   0.367   8.768  0.00  0.00    +0.000 HD
ENDBRANCH  11  14
ENDBRANCH   6   9
ENDBRANCH   1   3
BRANCH   1  16
ATOM     16  C   UNL     1      43.916   4.796  11.806  0.00  0.00    +0.000 C 
BRANCH  16  20
ATOM     17  C   UNL     1      47.643   6.385  13.150  0.00  0.00    +0.000 A 
ATOM     18  C   UNL     1      46.817   7.196  12.379  0.00  0.00    +0.000 A 
ATOM     19  C   UNL     1      45.608   6.680  11.915  0.00  0.00    +0.000 A 
ATOM     20  C   UNL     1      45.245   5.367  12.223  0.00  0.00    +0.000 A 
ATOM     21  C   UNL     1      46.142   4.627  12.985  0.00  0.00    +0.000 A 
ATOM     22  N   UNL     1      47.326   5.101  13.446  0.00  0.00    +0.000 NA
BRANCH  17  23
ATOM     23  C   UNL     1      48.965   6.901  13.657  0.00  0.00    +0.000 C 
BRANCH  23  24
ATOM     24  C   UNL     1      48.831   7.395  15.099  0.00  0.00    +0.000 C 
BRANCH  24  25
ATOM     25  N   UNL     1      48.298   6.352  15.977  0.00  0.00    +0.000 NA
ATOM     26  H   UNL     1      47.407   6.030  15.600  0.00  0.00    +0.000 HD
ATOM     27  H   UNL     1      48.081   6.761  16.886  0.00  0.00    +0.000 HD
ENDBRANCH  24  25
ENDBRANCH  23  24
ENDBRANCH  17  23
ENDBRANCH  16  20
ENDBRANCH   1  16
TORSDOF 8
ENDMDL
MODEL 7
REMARK VINA RESULT:    -6.613      3.392      6.096
REMARK INTER + INTRA:          -9.428
REMARK INTER:                  -8.774
REMARK INTRA:                  -0.654
REMARK UNBOUND:                -0.109
REMARK  Name = 
REMARK  8 active torsions:
REMARK  status: ('A' for Active; 'I' for Inactive)
REMARK    1  A    between atoms: N_1  and  C_2
REMARK    2  A    between atoms: C_2  and  C_3
REMARK    3  A    between atoms: C_3  and  C_4
REMARK    4  A    between atoms: C_7  and  C_8
REMARK    5  A    between atoms: C_8  and  N_9
REMARK    6  A    between atoms: N_9  and  C_10
REMARK    7  A    between atoms: C_13  and  C_14
REMARK    8  A    between atoms: N_16  and  O_17
REMARK                            x       y       z     vdW  Elec       q    Type
REMARK                         _______ _______ _______ _____ _____    ______ ____
ROOT
ATOM      1  N   UNL     1      47.217   4.975  15.524  0.00  0.00    +0.000 N 
ATOM      2  H   UNL     1      46.949   5.840  15.991  0.00  0.00    +0.000 HD
ENDROOT
BRANCH   1   3
ATOM      3  C   UNL     1      46.623   4.878  14.262  0.00  0.00    +0.000 A 
ATOM      4  C   UNL     1      46.065   5.953  13.563  0.00  0.00    +0.000 A 
ATOM      5  C   UNL     1      45.439   5.770  12.317  0.00  0.00    +0.000 A 
ATOM      6  C   UNL     1      45.320   4.490  11.755  0.00  0.00    +0.000 A 
ATOM      7  C   UNL     1      45.862   3.413  12.454  0.00  0.00    +0.000 A 
ATOM      8  C   UNL     1      46.477   3.603  13.698  0.00  0.00    +0.000 A 
BRANCH   6   9
ATOM      9  C   UNL     1      44.658   4.327  10.413  0.00  0.00    +0.000 C 
ATOM     10  N   UNL     1      45.301   4.828   9.304  0.00  0.00    +0.000 N 
ATOM     11  N   UNL     1      43.516   3.738  10.155  0.00  0.00    +0.000 NA
ATOM     12  H   UNL     1      46.310   4.736   9.304  0.00  0.00    +0.000 HD
ATOM     13  H   UNL     1      44.879   4.473   8.451  0.00  0.00    +0.000 HD
BRANCH  11  14
ATOM     14  O   UNL     1      42.823   3.300  11.280  0.00  0.00    +0.000 OA
ATOM     15  H   UNL     1      42.090   2.792  10.887  0.00  0.00    +0.000 HD
ENDBRANCH  11  14
ENDBRANCH   6   9
ENDBRANCH   1   3
BRANCH   1  16
ATOM     16  C   UNL     1      47.234   3.828  16.417  0.00  0.00    +0.000 C 
BRANCH  16  20
ATOM     17  C   UNL     1      51.174   2.607  17.514  0.00  0.00    +0.000 A 
ATOM     18  C   UNL     1      50.708   3.832  17.977  0.00  0.00    +0.000 A 
ATOM     19  C   UNL     1      49.432   4.252  17.606  0.00  0.00    +0.000 A 
ATOM     20  C   UNL     1      48.645   3.447  16.779  0.00  0.00    +0.000 A 
ATOM     21  C   UNL     1      49.201   2.247  16.352  0.00  0.00    +0.000 A 
ATOM     22  N   UNL     1      50.441   1.816  16.694  0.00  0.00    +0.000 NA
BRANCH  17  23
ATOM     23  C   UNL     1      52.555   2.125  17.880  0.00  0.00    +0.000 C 
BRANCH  23  24
ATOM     24  C   UNL     1      52.695   0.629  17.593  0.00  0.00    +0.000 C 
BRANCH  24  25
ATOM     25  N   UNL     1      51.784  -0.164  18.419  0.00  0.00    +0.000 NA
ATOM     26  H   UNL     1      50.824   0.080  18.176  0.00  0.00    +0.000 HD
ATOM     27  H   UNL     1      51.898   0.107  19.396  0.00  0.00    +0.000 HD
ENDBRANCH  24  25
ENDBRANCH  23  24
ENDBRANCH  17  23
ENDBRANCH  16  20
ENDBRANCH   1  16
TORSDOF 8
ENDMDL
MODEL 8
REMARK VINA RESULT:    -6.573      3.527      7.425
REMARK INTER + INTRA:          -9.372
REMARK INTER:                  -8.575
REMARK INTRA:                  -0.797
REMARK UNBOUND:                -0.109
REMARK  Name = 
REMARK  8 active torsions:
REMARK  status: ('A' for Active; 'I' for Inactive)
REMARK    1  A    between atoms: N_1  and  C_2
REMARK    2  A    between atoms: C_2  and  C_3
REMARK    3  A    between atoms: C_3  and  C_4
REMARK    4  A    between atoms: C_7  and  C_8
REMARK    5  A    between atoms: C_8  and  N_9
REMARK    6  A    between atoms: N_9  and  C_10
REMARK    7  A    between atoms: C_13  and  C_14
REMARK    8  A    between atoms: N_16  and  O_17
REMARK                            x       y       z     vdW  Elec       q    Type
REMARK                         _______ _______ _______ _____ _____    ______ ____
ROOT
ATOM      1  N   UNL     1      44.687   5.364  11.879  0.00  0.00    +0.000 N 
ATOM      2  H   UNL     1      44.109   5.195  12.701  0.00  0.00    +0.000 HD
ENDROOT
BRANCH   1   3
ATOM      3  C   UNL     1      45.481   6.503  12.046  0.00  0.00    +0.000 A 
ATOM      4  C   UNL     1      46.855   6.556  11.793  0.00  0.00    +0.000 A 
ATOM      5  C   UNL     1      47.598   7.726  12.032  0.00  0.00    +0.000 A 
ATOM      6  C   UNL     1      46.987   8.866  12.572  0.00  0.00    +0.000 A 
ATOM      7  C   UNL     1      45.620   8.815  12.840  0.00  0.00    +0.000 A 
ATOM      8  C   UNL     1      44.888   7.643  12.606  0.00  0.00    +0.000 A 
BRANCH   6   9
ATOM      9  C   UNL     1      47.804  10.109  12.803  0.00  0.00    +0.000 C 
ATOM     10  N   UNL     1      48.478  10.234  13.997  0.00  0.00    +0.000 N 
ATOM     11  N   UNL     1      47.972  11.116  11.982  0.00  0.00    +0.000 NA
ATOM     12  H   UNL     1      48.876   9.379  14.366  0.00  0.00    +0.000 HD
ATOM     13  H   UNL     1      49.155  10.989  13.952  0.00  0.00    +0.000 HD
BRANCH  11  14
ATOM     14  O   UNL     1      47.230  11.034  10.806  0.00  0.00    +0.000 OA
ATOM     15  H   UNL     1      46.418  11.520  11.039  0.00  0.00    +0.000 HD
ENDBRANCH  11  14
ENDBRANCH   6   9
ENDBRANCH   1   3
BRANCH   1  16
ATOM     16  C   UNL     1      43.978   5.140  10.630  0.00  0.00    +0.000 C 
BRANCH  16  20
ATOM     17  C   UNL     1      46.015   2.452   8.015  0.00  0.00    +0.000 A 
ATOM     18  C   UNL     1      45.197   1.919   9.005  0.00  0.00    +0.000 A 
ATOM     19  C   UNL     1      44.546   2.787   9.881  0.00  0.00    +0.000 A 
ATOM     20  C   UNL     1      44.722   4.166   9.755  0.00  0.00    +0.000 A 
ATOM     21  C   UNL     1      45.571   4.605   8.745  0.00  0.00    +0.000 A 
ATOM     22  N   UNL     1      46.221   3.784   7.884  0.00  0.00    +0.000 NA
BRANCH  17  23
ATOM     23  C   UNL     1      46.749   1.545   7.059  0.00  0.00    +0.000 C 
BRANCH  23  24
ATOM     24  C   UNL     1      47.438   2.363   5.966  0.00  0.00    +0.000 C 
BRANCH  24  25
ATOM     25  N   UNL     1      48.825   2.673   6.319  0.00  0.00    +0.000 NA
ATOM     26  H   UNL     1      48.994   3.663   6.146  0.00  0.00    +0.000 HD
ATOM     27  H   UNL     1      49.449   2.171   5.687  0.00  0.00    +0.000 HD
ENDBRANCH  24  25
ENDBRANCH  23  24
ENDBRANCH  17  23
ENDBRANCH  16  20
ENDBRANCH   1  16
TORSDOF 8
ENDMDL
MODEL 9
REMARK VINA RESULT:    -6.248      3.537      8.324
REMARK INTER + INTRA:          -8.913
REMARK INTER:                  -8.261
REMARK INTRA:                  -0.652
REMARK UNBOUND:                -0.109
REMARK  Name = 
REMARK  8 active torsions:
REMARK  status: ('A' for Active; 'I' for Inactive)
REMARK    1  A    between atoms: N_1  and  C_2
REMARK    2  A    between atoms: C_2  and  C_3
REMARK    3  A    between atoms: C_3  and  C_4
REMARK    4  A    between atoms: C_7  and  C_8
REMARK    5  A    between atoms: C_8  and  N_9
REMARK    6  A    between atoms: N_9  and  C_10
REMARK    7  A    between atoms: C_13  and  C_14
REMARK    8  A    between atoms: N_16  and  O_17
REMARK                            x       y       z     vdW  Elec       q    Type
REMARK                         _______ _______ _______ _____ _____    ______ ____
ROOT
ATOM      1  N   UNL     1      46.467   4.385  14.781  0.00  0.00    +0.000 N 
ATOM      2  H   UNL     1      45.551   4.135  15.150  0.00  0.00    +0.000 HD
ENDROOT
BRANCH   1   3
ATOM      3  C   UNL     1      47.446   4.324  15.778  0.00  0.00    +0.000 A 
ATOM      4  C   UNL     1      47.744   3.183  16.529  0.00  0.00    +0.000 A 
ATOM      5  C   UNL     1      48.710   3.212  17.551  0.00  0.00    +0.000 A 
ATOM      6  C   UNL     1      49.377   4.402  17.874  0.00  0.00    +0.000 A 
ATOM      7  C   UNL     1      49.074   5.546  17.138  0.00  0.00    +0.000 A 
ATOM      8  C   UNL     1      48.105   5.511  16.126  0.00  0.00    +0.000 A 
BRANCH   6   9
ATOM      9  C   UNL     1      50.417   4.399  18.962  0.00  0.00    +0.000 C 
ATOM     10  N   UNL     1      49.998   4.550  20.265  0.00  0.00    +0.000 N 
ATOM     11  N   UNL     1      51.712   4.254  18.826  0.00  0.00    +0.000 NA
ATOM     12  H   UNL     1      49.124   4.094  20.500  0.00  0.00    +0.000 HD
ATOM     13  H   UNL     1      50.743   4.316  20.913  0.00  0.00    +0.000 HD
BRANCH  11  14
ATOM     14  O   UNL     1      52.150   4.182  17.506  0.00  0.00    +0.000 OA
ATOM     15  H   UNL     1      51.592   4.849  17.066  0.00  0.00    +0.000 HD
ENDBRANCH  11  14
ENDBRANCH   6   9
ENDBRANCH   1   3
BRANCH   1  16
ATOM     16  C   UNL     1      46.422   5.512  13.863  0.00  0.00    +0.000 C 
BRANCH  16  20
ATOM     17  C   UNL     1      45.039   4.411   9.979  0.00  0.00    +0.000 A 
ATOM     18  C   UNL     1      44.869   3.508  11.022  0.00  0.00    +0.000 A 
ATOM     19  C   UNL     1      45.338   3.847  12.290  0.00  0.00    +0.000 A 
ATOM     20  C   UNL     1      45.969   5.076  12.496  0.00  0.00    +0.000 A 
ATOM     21  C   UNL     1      46.108   5.907  11.390  0.00  0.00    +0.000 A 
ATOM     22  N   UNL     1      45.666   5.600  10.145  0.00  0.00    +0.000 NA
BRANCH  17  23
ATOM     23  C   UNL     1      44.560   4.074   8.589  0.00  0.00    +0.000 C 
BRANCH  23  24
ATOM     24  C   UNL     1      45.674   3.403   7.785  0.00  0.00    +0.000 C 
BRANCH  24  25
ATOM     25  N   UNL     1      46.648   4.381   7.296  0.00  0.00    +0.000 NA
ATOM     26  H   UNL     1      46.219   4.924   6.548  0.00  0.00    +0.000 HD
ATOM     27  H   UNL     1      47.429   3.886   6.865  0.00  0.00    +0.000 HD
ENDBRANCH  24  25
ENDBRANCH  23  24
ENDBRANCH  17  23
ENDBRANCH  16  20
ENDBRANCH   1  16
TORSDOF 8
ENDMDL
