MODEL 1
REMARK VINA RESULT:    -7.637      0.000      0.000
REMARK INTER + INTRA:          -9.766
REMARK INTER:                  -9.422
REMARK INTRA:                  -0.343
REMARK UNBOUND:                -0.343
REMARK  Name = 
REMARK  4 active torsions:
REMARK  status: ('A' for Active; 'I' for Inactive)
REMARK    1  A    between atoms: C_2  and  C_4
REMARK    2  A    between atoms: C_7  and  N_8
REMARK    3  A    between atoms: N_8  and  C_9
REMARK    4  A    between atoms: C_9  and  C_10
REMARK                            x       y       z     vdW  Elec       q    Type
REMARK                         _______ _______ _______ _____ _____    ______ ____
ROOT
ATOM      1  C   UNL     1      46.434   2.521   7.725  0.00  0.00    +0.000 A 
ATOM      2  C   UNL     1      46.392   3.899   7.594  0.00  0.00    +0.000 A 
ATOM      3  N   UNL     1      45.507   4.678   8.281  0.00  0.00    +0.000 NA
ATOM      4  C   UNL     1      44.668   4.038   9.127  0.00  0.00    +0.000 A 
ATOM      5  C   UNL     1      44.763   2.647   9.274  0.00  0.00    +0.000 A 
ATOM      6  N   UNL     1      45.610   1.845   8.570  0.00  0.00    +0.000 NA
ENDROOT
BRANCH   1   8
ATOM      7  N   UNL     1      48.492   2.402   6.437  0.00  0.00    +0.000 N 
ATOM      8  C   UNL     1      47.398   1.725   6.917  0.00  0.00    +0.000 C 
ATOM      9  O   UNL     1      47.241   0.534   6.702  0.00  0.00    +0.000 OA
ATOM     10  H   UNL     1      49.199   1.895   5.925  0.00  0.00    +0.000 HD
ATOM     11  H   UNL     1      48.645   3.368   6.696  0.00  0.00    +0.000 HD
ENDBRANCH   1   8
BRANCH   4  12
ATOM     12  N   UNL     1      43.772   4.760   9.940  0.00  0.00    +0.000 N 
ATOM     13  H   UNL     1      44.127   5.695  10.111  0.00  0.00    +0.000 HD
BRANCH  12  14
ATOM     14  C   UNL     1      43.419   4.097  11.200  0.00  0.00    +0.000 C 
BRANCH  14  15
ATOM     15  C   UNL     1      44.252   4.678  12.361  0.00  0.00    +0.000 C 
ATOM     16  C   UNL     1      45.498   3.826  12.656  0.00  0.00    +0.000 C 
ATOM     17  C   UNL     1      46.392   4.499  13.697  0.00  0.00    +0.000 C 
ATOM     18  C   UNL     1      46.707   5.942  13.314  0.00  0.00    +0.000 C 
ATOM     19  N   UNL     1      45.480   6.710  13.105  0.00  0.00    +0.000 NA
ATOM     20  C   UNL     1      44.664   6.125  12.038  0.00  0.00    +0.000 C 
ATOM     21  H   UNL     1      45.726   7.669  12.857  0.00  0.00    +0.000 HD
ENDBRANCH  14  15
ENDBRANCH  12  14
ENDBRANCH   4  12
TORSDOF 4
ENDMDL
MODEL 2
REMARK VINA RESULT:    -7.490      1.024      1.378
REMARK INTER + INTRA:          -9.585
REMARK INTER:                  -9.291
REMARK INTRA:                  -0.293
REMARK UNBOUND:                -0.343
REMARK  Name = 
REMARK  4 active torsions:
REMARK  status: ('A' for Active; 'I' for Inactive)
REMARK    1  A    between atoms: C_2  and  C_4
REMARK    2  A    between atoms: C_7  and  N_8
REMARK    3  A    between atoms: N_8  and  C_9
REMARK    4  A    between atoms: C_9  and  C_10
REMARK                            x       y       z     vdW  Elec       q    Type
REMARK                         _______ _______ _______ _____ _____    ______ ____
ROOT
ATOM      1  C   UNL     1      46.443   2.525   7.742  0.00  0.00    +0.000 A 
ATOM      2  C   UNL     1      46.347   3.899   7.600  0.00  0.00    +0.000 A 
ATOM      3  N   UNL     1      45.473   4.655   8.324  0.00  0.00    +0.000 NA
ATOM      4  C   UNL     1      44.701   3.998   9.220  0.00  0.00    +0.000 A 
ATOM      5  C   UNL     1      44.851   2.612   9.374  0.00  0.00    +0.000 A 
ATOM      6  N   UNL     1      45.688   1.832   8.636  0.00  0.00    +0.000 NA
ENDROOT
BRANCH   1   8
ATOM      7  N   UNL     1      48.485   2.439   6.424  0.00  0.00    +0.000 N 
ATOM      8  C   UNL     1      47.391   1.752   6.892  0.00  0.00    +0.000 C 
ATOM      9  O   UNL     1      47.221   0.572   6.635  0.00  0.00    +0.000 OA
ATOM     10  H   UNL     1      49.181   1.946   5.886  0.00  0.00    +0.000 HD
ATOM     11  H   UNL     1      48.649   3.393   6.718  0.00  0.00    +0.000 HD
ENDBRANCH   1   8
BRANCH   4  12
ATOM     12  N   UNL     1      43.824   4.698  10.071  0.00  0.00    +0.000 N 
ATOM     13  H   UNL     1      43.033   5.054   9.545  0.00  0.00    +0.000 HD
BRANCH  12  14
ATOM     14  C   UNL     1      44.454   5.767  10.853  0.00  0.00    +0.000 C 
BRANCH  14  15
ATOM     15  C   UNL     1      45.609   5.198  11.703  0.00  0.00    +0.000 C 
ATOM     16  C   UNL     1      46.530   6.307  12.239  0.00  0.00    +0.000 C 
ATOM     17  C   UNL     1      47.570   5.741  13.205  0.00  0.00    +0.000 C 
ATOM     18  C   UNL     1      46.918   4.898  14.297  0.00  0.00    +0.000 C 
ATOM     19  N   UNL     1      46.105   3.827  13.720  0.00  0.00    +0.000 NA
ATOM     20  C   UNL     1      45.042   4.369  12.869  0.00  0.00    +0.000 C 
ATOM     21  H   UNL     1      45.690   3.281  14.474  0.00  0.00    +0.000 HD
ENDBRANCH  14  15
ENDBRANCH  12  14
ENDBRANCH   4  12
TORSDOF 4
ENDMDL
MODEL 3
REMARK VINA RESULT:    -7.297      2.843      6.033
REMARK INTER + INTRA:          -9.346
REMARK INTER:                  -8.983
REMARK INTRA:                  -0.363
REMARK UNBOUND:                -0.343
REMARK  Name = 
REMARK  4 active torsions:
REMARK  status: ('A' for Active; 'I' for Inactive)
REMARK    1  A    between atoms: C_2  and  C_4
REMARK    2  A    between atoms: C_7  and  N_8
REMARK    3  A    between atoms: N_8  and  C_9
REMARK    4  A    between atoms: C_9  and  C_10
REMARK                            x       y       z     vdW  Elec       q    Type
REMARK                         _______ _______ _______ _____ _____    ______ ____
ROOT
ATOM      1  C   UNL     1      46.372   4.657  13.331  0.00  0.00    +0.000 A 
ATOM      2  C   UNL     1      46.144   5.576  12.320  0.00  0.00    +0.000 A 
ATOM      3  N   UNL     1      45.439   5.269  11.193  0.00  0.00    +0.000 NA
ATOM      4  C   UNL     1      44.946   4.013  11.109  0.00  0.00    +0.000 A 
ATOM      5  C   UNL     1      45.155   3.118  12.167  0.00  0.00    +0.000 A 
ATOM      6  N   UNL     1      45.887   3.387  13.284  0.00  0.00    +0.000 NA
ENDROOT
BRANCH   1   8
ATOM      7  N   UNL     1      46.877   4.403  15.696  0.00  0.00    +0.000 N 
ATOM      8  C   UNL     1      47.184   5.042  14.519  0.00  0.00    +0.000 C 
ATOM      9  O   UNL     1      48.082   5.866  14.456  0.00  0.00    +0.000 OA
ATOM     10  H   UNL     1      47.431   4.594  16.517  0.00  0.00    +0.000 HD
ATOM     11  H   UNL     1      46.185   3.665  15.707  0.00  0.00    +0.000 HD
ENDBRANCH   1   8
BRANCH   4  12
ATOM     12  N   UNL     1      44.139   3.624  10.022  0.00  0.00    +0.000 N 
ATOM     13  H   UNL     1      43.166   3.579  10.305  0.00  0.00    +0.000 HD
BRANCH  12  14
ATOM     14  C   UNL     1      44.551   2.376   9.370  0.00  0.00    +0.000 C 
BRANCH  14  15
ATOM     15  C   UNL     1      45.833   2.603   8.543  0.00  0.00    +0.000 C 
ATOM     16  C   UNL     1      46.387   1.289   7.967  0.00  0.00    +0.000 C 
ATOM     17  C   UNL     1      47.560   1.552   7.024  0.00  0.00    +0.000 C 
ATOM     18  C   UNL     1      47.203   2.588   5.963  0.00  0.00    +0.000 C 
ATOM     19  N   UNL     1      46.740   3.832   6.578  0.00  0.00    +0.000 NA
ATOM     20  C   UNL     1      45.553   3.604   7.407  0.00  0.00    +0.000 C 
ATOM     21  H   UNL     1      46.516   4.503   5.843  0.00  0.00    +0.000 HD
ENDBRANCH  14  15
ENDBRANCH  12  14
ENDBRANCH   4  12
TORSDOF 4
ENDMDL
MODEL 4
REMARK VINA RESULT:    -6.941      1.234      2.066
REMARK INTER + INTRA:          -8.908
REMARK INTER:                  -8.576
REMARK INTRA:                  -0.332
REMARK UNBOUND:                -0.343
REMARK  Name = 
REMARK  4 active torsions:
REMARK  status: ('A' for Active; 'I' for Inactive)
REMARK    1  A    between atoms: C_2  and  C_4
REMARK    2  A    between atoms: C_7  and  N_8
REMARK    3  A    between atoms: N_8  and  C_9
REMARK    4  A    between atoms: C_9  and  C_10
REMARK                            x       y       z     vdW  Elec       q    Type
REMARK                         _______ _______ _______ _____ _____    ______ ____
ROOT
ATOM      1  C   UNL     1      46.429   2.614   7.709  0.00  0.00    +0.000 A 
ATOM      2  C   UNL     1      45.610   1.970   8.622  0.00  0.00    +0.000 A 
ATOM      3  N   UNL     1      44.743   2.641   9.434  0.00  0.00    +0.000 NA
ATOM      4  C   UNL     1      44.699   3.985   9.295  0.00  0.00    +0.000 A 
ATOM      5  C   UNL     1      45.507   4.606   8.332  0.00  0.00    +0.000 A 
ATOM      6  N   UNL     1      46.408   3.963   7.538  0.00  0.00    +0.000 NA
ENDROOT
BRANCH   1   8
ATOM      7  N   UNL     1      48.483   2.506   6.413  0.00  0.00    +0.000 N 
ATOM      8  C   UNL     1      47.383   1.827   6.879  0.00  0.00    +0.000 C 
ATOM      9  O   UNL     1      47.215   0.643   6.637  0.00  0.00    +0.000 OA
ATOM     10  H   UNL     1      49.183   2.005   5.888  0.00  0.00    +0.000 HD
ATOM     11  H   UNL     1      48.645   3.464   6.694  0.00  0.00    +0.000 HD
ENDBRANCH   1   8
BRANCH   4  12
ATOM     12  N   UNL     1      43.781   4.759  10.031  0.00  0.00    +0.000 N 
ATOM     13  H   UNL     1      43.675   5.676   9.608  0.00  0.00    +0.000 HD
BRANCH  12  14
ATOM     14  C   UNL     1      44.086   4.875  11.461  0.00  0.00    +0.000 C 
BRANCH  14  15
ATOM     15  C   UNL     1      45.121   5.995  11.696  0.00  0.00    +0.000 C 
ATOM     16  C   UNL     1      44.547   7.385  11.376  0.00  0.00    +0.000 C 
ATOM     17  C   UNL     1      45.527   8.490  11.765  0.00  0.00    +0.000 C 
ATOM     18  C   UNL     1      46.001   8.336  13.207  0.00  0.00    +0.000 C 
ATOM     19  N   UNL     1      46.589   7.014  13.428  0.00  0.00    +0.000 NA
ATOM     20  C   UNL     1      45.620   5.950  13.152  0.00  0.00    +0.000 C 
ATOM     21  H   UNL     1      46.899   6.946  14.397  0.00  0.00    +0.000 HD
ENDBRANCH  14  15
ENDBRANCH  12  14
ENDBRANCH   4  12
TORSDOF 4
ENDMDL
MODEL 5
REMARK VINA RESULT:    -6.840      2.739      6.174
REMARK INTER + INTRA:          -8.783
REMARK INTER:                  -8.560
REMARK INTRA:                  -0.223
REMARK UNBOUND:                -0.343
REMARK  Name = 
REMARK  4 active torsions:
REMARK  status: ('A' for Active; 'I' for Inactive)
REMARK    1  A    between atoms: C_2  and  C_4
REMARK    2  A    between atoms: C_7  and  N_8
REMARK    3  A    between atoms: N_8  and  C_9
REMARK    4  A    between atoms: C_9  and  C_10
REMARK                            x       y       z     vdW  Elec       q    Type
REMARK                         _______ _______ _______ _____ _____    ______ ____
ROOT
ATOM      1  C   UNL     1      46.611   5.206  13.174  0.00  0.00    +0.000 A 
ATOM      2  C   UNL     1      46.219   3.883  13.288  0.00  0.00    +0.000 A 
ATOM      3  N   UNL     1      45.403   3.276  12.378  0.00  0.00    +0.000 NA
ATOM      4  C   UNL     1      44.999   4.029  11.329  0.00  0.00    +0.000 A 
ATOM      5  C   UNL     1      45.448   5.352  11.217  0.00  0.00    +0.000 A 
ATOM      6  N   UNL     1      46.230   5.991  12.131  0.00  0.00    +0.000 NA
ENDROOT
BRANCH   1   8
ATOM      7  N   UNL     1      47.608   7.187  14.171  0.00  0.00    +0.000 N 
ATOM      8  C   UNL     1      47.472   5.821  14.223  0.00  0.00    +0.000 C 
ATOM      9  O   UNL     1      48.015   5.158  15.091  0.00  0.00    +0.000 OA
ATOM     10  H   UNL     1      48.141   7.655  14.888  0.00  0.00    +0.000 HD
ATOM     11  H   UNL     1      47.082   7.724  13.493  0.00  0.00    +0.000 HD
ENDBRANCH   1   8
BRANCH   4  12
ATOM     12  N   UNL     1      44.220   3.472  10.297  0.00  0.00    +0.000 N 
ATOM     13  H   UNL     1      44.332   2.463  10.276  0.00  0.00    +0.000 HD
BRANCH  12  14
ATOM     14  C   UNL     1      44.460   4.050   8.970  0.00  0.00    +0.000 C 
BRANCH  14  15
ATOM     15  C   UNL     1      45.100   3.000   8.038  0.00  0.00    +0.000 C 
ATOM     16  C   UNL     1      46.220   3.603   7.175  0.00  0.00    +0.000 C 
ATOM     17  C   UNL     1      46.946   2.521   6.378  0.00  0.00    +0.000 C 
ATOM     18  C   UNL     1      47.407   1.379   7.277  0.00  0.00    +0.000 C 
ATOM     19  N   UNL     1      46.284   0.812   8.024  0.00  0.00    +0.000 NA
ATOM     20  C   UNL     1      45.644   1.824   8.869  0.00  0.00    +0.000 C 
ATOM     21  H   UNL     1      46.625   0.049   8.610  0.00  0.00    +0.000 HD
ENDBRANCH  14  15
ENDBRANCH  12  14
ENDBRANCH   4  12
TORSDOF 4
ENDMDL
MODEL 6
REMARK VINA RESULT:    -6.620      3.021      6.259
REMARK INTER + INTRA:          -8.511
REMARK INTER:                  -8.187
REMARK INTRA:                  -0.324
REMARK UNBOUND:                -0.343
REMARK  Name = 
REMARK  4 active torsions:
REMARK  status: ('A' for Active; 'I' for Inactive)
REMARK    1  A    between atoms: C_2  and  C_4
REMARK    2  A    between atoms: C_7  and  N_8
REMARK    3  A    between atoms: N_8  and  C_9
REMARK    4  A    between atoms: C_9  and  C_10
REMARK                            x       y       z     vdW  Elec       q    Type
REMARK                         _______ _______ _______ _____ _____    ______ ____
ROOT
ATOM      1  C   UNL     1      45.405   6.976  12.420  0.00  0.00    +0.000 A 
ATOM      2  C   UNL     1      46.187   5.984  12.988  0.00  0.00    +0.000 A 
ATOM      3  N   UNL     1      46.022   4.661  12.699  0.00  0.00    +0.000 NA
ATOM      4  C   UNL     1      45.057   4.352  11.804  0.00  0.00    +0.000 A 
ATOM      5  C   UNL     1      44.310   5.380  11.211  0.00  0.00    +0.000 A 
ATOM      6  N   UNL     1      44.429   6.703  11.512  0.00  0.00    +0.000 NA
ENDROOT
BRANCH   1   8
ATOM      7  N   UNL     1      44.573   9.258  12.531  0.00  0.00    +0.000 N 
ATOM      8  C   UNL     1      45.609   8.400  12.807  0.00  0.00    +0.000 C 
ATOM      9  O   UNL     1      46.628   8.787  13.355  0.00  0.00    +0.000 OA
ATOM     10  H   UNL     1      44.643  10.222  12.818  0.00  0.00    +0.000 HD
ATOM     11  H   UNL     1      43.704   8.900  12.153  0.00  0.00    +0.000 HD
ENDBRANCH   1   8
BRANCH   4  12
ATOM     12  N   UNL     1      44.862   3.023  11.381  0.00  0.00    +0.000 N 
ATOM     13  H   UNL     1      45.685   2.465  11.583  0.00  0.00    +0.000 HD
BRANCH  12  14
ATOM     14  C   UNL     1      44.467   2.880   9.975  0.00  0.00    +0.000 C 
BRANCH  14  15
ATOM     15  C   UNL     1      45.713   2.900   9.066  0.00  0.00    +0.000 C 
ATOM     16  C   UNL     1      45.928   1.554   8.354  0.00  0.00    +0.000 C 
ATOM     17  C   UNL     1      47.069   1.642   7.340  0.00  0.00    +0.000 C 
ATOM     18  C   UNL     1      46.882   2.820   6.390  0.00  0.00    +0.000 C 
ATOM     19  N   UNL     1      46.743   4.075   7.129  0.00  0.00    +0.000 NA
ATOM     20  C   UNL     1      45.590   4.034   8.032  0.00  0.00    +0.000 C 
ATOM     21  H   UNL     1      46.626   4.841   6.465  0.00  0.00    +0.000 HD
ENDBRANCH  14  15
ENDBRANCH  12  14
ENDBRANCH   4  12
TORSDOF 4
ENDMDL
MODEL 7
REMARK VINA RESULT:    -5.624      3.160      4.909
REMARK INTER + INTRA:          -7.282
REMARK INTER:                  -6.968
REMARK INTRA:                  -0.314
REMARK UNBOUND:                -0.343
REMARK  Name = 
REMARK  4 active torsions:
REMARK  status: ('A' for Active; 'I' for Inactive)
REMARK    1  A    between atoms: C_2  and  C_4
REMARK    2  A    between atoms: C_7  and  N_8
REMARK    3  A    between atoms: N_8  and  C_9
REMARK    4  A    between atoms: C_9  and  C_10
REMARK                            x       y       z     vdW  Elec       q    Type
REMARK                         _______ _______ _______ _____ _____    ______ ____
ROOT
ATOM      1  C   UNL     1      44.928   3.980  10.720  0.00  0.00    +0.000 A 
ATOM      2  C   UNL     1      45.039   3.256  11.895  0.00  0.00    +0.000 A 
ATOM      3  N   UNL     1      45.555   3.786  13.040  0.00  0.00    +0.000 NA
ATOM      4  C   UNL     1      45.944   5.080  12.988  0.00  0.00    +0.000 A 
ATOM      5  C   UNL     1      45.779   5.803  11.797  0.00  0.00    +0.000 A 
ATOM      6  N   UNL     1      45.303   5.284  10.631  0.00  0.00    +0.000 NA
ENDROOT
BRANCH   1   8
ATOM      7  N   UNL     1      44.227   4.145   8.398  0.00  0.00    +0.000 N 
ATOM      8  C   UNL     1      44.392   3.331   9.491  0.00  0.00    +0.000 C 
ATOM      9  O   UNL     1      44.128   2.140   9.445  0.00  0.00    +0.000 OA
ATOM     10  H   UNL     1      43.914   3.743   7.527  0.00  0.00    +0.000 HD
ATOM     11  H   UNL     1      44.531   5.110   8.433  0.00  0.00    +0.000 HD
ENDBRANCH   1   8
BRANCH   4  12
ATOM     12  N   UNL     1      46.416   5.741  14.138  0.00  0.00    +0.000 N 
ATOM     13  H   UNL     1      46.433   6.744  13.986  0.00  0.00    +0.000 HD
BRANCH  12  14
ATOM     14  C   UNL     1      47.715   5.266  14.628  0.00  0.00    +0.000 C 
BRANCH  14  15
ATOM     15  C   UNL     1      47.596   4.803  16.094  0.00  0.00    +0.000 C 
ATOM     16  C   UNL     1      47.672   3.272  16.221  0.00  0.00    +0.000 C 
ATOM     17  C   UNL     1      47.713   2.842  17.687  0.00  0.00    +0.000 C 
ATOM     18  C   UNL     1      48.804   3.580  18.456  0.00  0.00    +0.000 C 
ATOM     19  N   UNL     1      48.639   5.029  18.342  0.00  0.00    +0.000 NA
ATOM     20  C   UNL     1      48.698   5.461  16.943  0.00  0.00    +0.000 C 
ATOM     21  H   UNL     1      49.379   5.490  18.871  0.00  0.00    +0.000 HD
ENDBRANCH  14  15
ENDBRANCH  12  14
ENDBRANCH   4  12
TORSDOF 4
ENDMDL
MODEL 8
REMARK VINA RESULT:    -5.591      3.796      6.943
REMARK INTER + INTRA:          -7.242
REMARK INTER:                  -6.889
REMARK INTRA:                  -0.352
REMARK UNBOUND:                -0.343
REMARK  Name = 
REMARK  4 active torsions:
REMARK  status: ('A' for Active; 'I' for Inactive)
REMARK    1  A    between atoms: C_2  and  C_4
REMARK    2  A    between atoms: C_7  and  N_8
REMARK    3  A    between atoms: N_8  and  C_9
REMARK    4  A    between atoms: C_9  and  C_10
REMARK                            x       y       z     vdW  Elec       q    Type
REMARK                         _______ _______ _______ _____ _____    ______ ____
ROOT
ATOM      1  C   UNL     1      47.910   5.129  15.715  0.00  0.00    +0.000 A 
ATOM      2  C   UNL     1      46.924   4.271  15.257  0.00  0.00    +0.000 A 
ATOM      3  N   UNL     1      46.334   4.413  14.035  0.00  0.00    +0.000 NA
ATOM      4  C   UNL     1      46.774   5.434  13.264  0.00  0.00    +0.000 A 
ATOM      5  C   UNL     1      47.804   6.259  13.735  0.00  0.00    +0.000 A 
ATOM      6  N   UNL     1      48.380   6.162  14.966  0.00  0.00    +0.000 NA
ENDROOT
BRANCH   1   8
ATOM      7  N   UNL     1      49.848   5.086  17.182  0.00  0.00    +0.000 N 
ATOM      8  C   UNL     1      48.486   4.944  17.075  0.00  0.00    +0.000 C 
ATOM      9  O   UNL     1      47.792   4.698  18.049  0.00  0.00    +0.000 OA
ATOM     10  H   UNL     1      50.279   5.019  18.091  0.00  0.00    +0.000 HD
ATOM     11  H   UNL     1      50.393   5.372  16.378  0.00  0.00    +0.000 HD
ENDBRANCH   1   8
BRANCH   4  12
ATOM     12  N   UNL     1      46.284   5.616  11.956  0.00  0.00    +0.000 N 
ATOM     13  H   UNL     1      46.661   6.468  11.555  0.00  0.00    +0.000 HD
BRANCH  12  14
ATOM     14  C   UNL     1      44.822   5.587  11.841  0.00  0.00    +0.000 C 
BRANCH  14  15
ATOM     15  C   UNL     1      44.395   4.631  10.709  0.00  0.00    +0.000 C 
ATOM     16  C   UNL     1      45.274   4.791   9.458  0.00  0.00    +0.000 C 
ATOM     17  C   UNL     1      44.941   3.730   8.409  0.00  0.00    +0.000 C 
ATOM     18  C   UNL     1      44.966   2.327   9.006  0.00  0.00    +0.000 C 
ATOM     19  N   UNL     1      44.065   2.227  10.154  0.00  0.00    +0.000 NA
ATOM     20  C   UNL     1      44.441   3.175  11.207  0.00  0.00    +0.000 C 
ATOM     21  H   UNL     1      44.102   1.278  10.524  0.00  0.00    +0.000 HD
ENDBRANCH  14  15
ENDBRANCH  12  14
ENDBRANCH   4  12
TORSDOF 4
ENDMDL
MODEL 9
REMARK VINA RESULT:    -5.465      3.528      5.490
REMARK INTER + INTRA:          -7.087
REMARK INTER:                  -6.773
REMARK INTRA:                  -0.314
REMARK UNBOUND:                -0.343
REMARK  Name = 
REMARK  4 active torsions:
REMARK  status: ('A' for Active; 'I' for Inactive)
REMARK    1  A    between atoms: C_2  and  C_4
REMARK    2  A    between atoms: C_7  and  N_8
REMARK    3  A    between atoms: N_8  and  C_9
REMARK    4  A    between atoms: C_9  and  C_10
REMARK                            x       y       z     vdW  Elec       q    Type
REMARK                         _______ _______ _______ _____ _____    ______ ____
ROOT
ATOM      1  C   UNL     1      44.853   3.839  11.898  0.00  0.00    +0.000 A 
ATOM      2  C   UNL     1      45.022   5.168  11.547  0.00  0.00    +0.000 A 
ATOM      3  N   UNL     1      45.802   6.026  12.267  0.00  0.00    +0.000 NA
ATOM      4  C   UNL     1      46.431   5.511  13.348  0.00  0.00    +0.000 A 
ATOM      5  C   UNL     1      46.277   4.152  13.654  0.00  0.00    +0.000 A 
ATOM      6  N   UNL     1      45.474   3.286  12.975  0.00  0.00    +0.000 NA
ENDROOT
BRANCH   1   8
ATOM      7  N   UNL     1      44.212   2.909   9.745  0.00  0.00    +0.000 N 
ATOM      8  C   UNL     1      43.956   2.964  11.093  0.00  0.00    +0.000 C 
ATOM      9  O   UNL     1      43.053   2.317  11.598  0.00  0.00    +0.000 OA
ATOM     10  H   UNL     1      43.664   2.293   9.165  0.00  0.00    +0.000 HD
ATOM     11  H   UNL     1      45.017   3.389   9.361  0.00  0.00    +0.000 HD
ENDBRANCH   1   8
BRANCH   4  12
ATOM     12  N   UNL     1      47.320   6.295  14.109  0.00  0.00    +0.000 N 
ATOM     13  H   UNL     1      46.911   6.516  15.011  0.00  0.00    +0.000 HD
BRANCH  12  14
ATOM     14  C   UNL     1      47.790   7.512  13.438  0.00  0.00    +0.000 C 
BRANCH  14  15
ATOM     15  C   UNL     1      49.231   7.315  12.923  0.00  0.00    +0.000 C 
ATOM     16  C   UNL     1      49.393   7.796  11.471  0.00  0.00    +0.000 C 
ATOM     17  C   UNL     1      50.856   7.741  11.032  0.00  0.00    +0.000 C 
ATOM     18  C   UNL     1      51.765   8.458  12.025  0.00  0.00    +0.000 C 
ATOM     19  N   UNL     1      51.604   7.912  13.373  0.00  0.00    +0.000 NA
ATOM     20  C   UNL     1      50.222   8.053  13.840  0.00  0.00    +0.000 C 
ATOM     21  H   UNL     1      52.228   8.408  14.010  0.00  0.00    +0.000 HD
ENDBRANCH  14  15
ENDBRANCH  12  14
ENDBRANCH   4  12
TORSDOF 4
ENDMDL
