MODEL 1
REMARK VINA RESULT:    -8.232      0.000      0.000
REMARK INTER + INTRA:         -10.600
REMARK INTER:                 -10.157
REMARK INTRA:                  -0.443
REMARK UNBOUND:                -0.443
REMARK  Name = 
REMARK  6 active torsions:
REMARK  status: ('A' for Active; 'I' for Inactive)
REMARK    1  A    between atoms: C_1  and  C_2
REMARK    2  A    between atoms: C_2  and  C_3
REMARK    3  A    between atoms: O_8  and  C_9
REMARK    4  A    between atoms: C_13  and  C_14
REMARK    5  A    between atoms: C_14  and  N_15
REMARK    6  A    between atoms: C_19  and  C_20
REMARK                            x       y       z     vdW  Elec       q    Type
REMARK                         _______ _______ _______ _____ _____    ______ ____
ROOT
ATOM      1  C   UNL     1      44.039   4.550  11.490  0.00  0.00    +0.000 C 
ATOM      2  C   UNL     1      43.156   5.643  10.915  0.00  0.00    +0.000 C 
ATOM      3  C   UNL     1      42.656   4.840  12.071  0.00  0.00    +0.000 C 
ENDROOT
BRANCH   1   4
ATOM      4  N   UNL     1      44.203   3.237  10.818  0.00  0.00    +0.000 N 
ATOM      5  C   UNL     1      45.020   3.125   9.665  0.00  0.00    +0.000 A 
ATOM      6  C   UNL     1      45.190   1.850   9.121  0.00  0.00    +0.000 A 
ATOM      7  C   UNL     1      45.939   1.683   7.957  0.00  0.00    +0.000 A 
ATOM      8  C   UNL     1      46.506   2.801   7.353  0.00  0.00    +0.000 A 
ATOM      9  C   UNL     1      46.340   4.025   7.986  0.00  0.00    +0.000 A 
ATOM     10  N   UNL     1      45.625   4.205   9.132  0.00  0.00    +0.000 NA
ATOM     11  H   UNL     1      43.332   2.748  10.638  0.00  0.00    +0.000 HD
BRANCH   8  12
ATOM     12  C   UNL     1      47.279   2.736   6.098  0.00  0.00    +0.000 C 
ATOM     13  N   UNL     1      48.617   2.469   6.192  0.00  0.00    +0.000 N 
ATOM     14  O   UNL     1      46.734   2.886   5.012  0.00  0.00    +0.000 OA
ATOM     15  H   UNL     1      49.058   2.118   7.030  0.00  0.00    +0.000 HD
ATOM     16  H   UNL     1      49.114   2.331   5.318  0.00  0.00    +0.000 HD
ENDBRANCH   8  12
ENDBRANCH   1   4
BRANCH   1  21
ATOM     17  C   UNL     1      46.712   6.641  13.053  0.00  0.00    +0.000 A 
ATOM     18  C   UNL     1      47.370   5.753  13.906  0.00  0.00    +0.000 A 
ATOM     19  C   UNL     1      46.927   4.437  13.986  0.00  0.00    +0.000 A 
ATOM     20  C   UNL     1      45.846   4.034  13.212  0.00  0.00    +0.000 A 
ATOM     21  C   UNL     1      45.236   4.946  12.356  0.00  0.00    +0.000 A 
ATOM     22  N   UNL     1      45.683   6.236  12.285  0.00  0.00    +0.000 NA
BRANCH  17  30
ATOM     23  C   UNL     1      49.047   9.052  13.975  0.00  0.00    +0.000 C 
ATOM     24  C   UNL     1      48.442   8.386  12.716  0.00  0.00    +0.000 C 
ATOM     25  C   UNL     1      49.426   7.306  12.233  0.00  0.00    +0.000 C 
ATOM     26  C   UNL     1      48.363   9.460  11.596  0.00  0.00    +0.000 C 
ATOM     27  O   UNL     1      47.435  10.494  11.918  0.00  0.00    +0.000 OA
ATOM     28  C   UNL     1      46.118   9.977  12.082  0.00  0.00    +0.000 C 
ATOM     29  C   UNL     1      46.112   8.974  13.224  0.00  0.00    +0.000 C 
ATOM     30  O   UNL     1      47.086   7.977  12.974  0.00  0.00    +0.000 OA
ENDBRANCH  17  30
ENDBRANCH   1  21
TORSDOF 4
ENDMDL
MODEL 2
REMARK VINA RESULT:    -6.882      3.070      7.429
REMARK INTER + INTRA:          -8.934
REMARK INTER:                  -9.202
REMARK INTRA:                   0.268
REMARK UNBOUND:                -0.443
REMARK  Name = 
REMARK  6 active torsions:
REMARK  status: ('A' for Active; 'I' for Inactive)
REMARK    1  A    between atoms: C_1  and  C_2
REMARK    2  A    between atoms: C_2  and  C_3
REMARK    3  A    between atoms: O_8  and  C_9
REMARK    4  A    between atoms: C_13  and  C_14
REMARK    5  A    between atoms: C_14  and  N_15
REMARK    6  A    between atoms: C_19  and  C_20
REMARK                            x       y       z     vdW  Elec       q    Type
REMARK                         _______ _______ _______ _____ _____    ______ ____
ROOT
ATOM      1  C   UNL     1      48.818   8.170  12.633  0.00  0.00    +0.000 C 
ATOM      2  C   UNL     1      49.782   8.837  11.668  0.00  0.00    +0.000 C 
ATOM      3  C   UNL     1      49.817   7.352  11.817  0.00  0.00    +0.000 C 
ENDROOT
BRANCH   1   4
ATOM      4  N   UNL     1      49.034   8.190  14.101  0.00  0.00    +0.000 N 
ATOM      5  C   UNL     1      48.682   7.065  14.887  0.00  0.00    +0.000 A 
ATOM      6  C   UNL     1      48.975   7.120  16.252  0.00  0.00    +0.000 A 
ATOM      7  C   UNL     1      48.606   6.066  17.087  0.00  0.00    +0.000 A 
ATOM      8  C   UNL     1      47.944   4.972  16.539  0.00  0.00    +0.000 A 
ATOM      9  C   UNL     1      47.740   4.966  15.166  0.00  0.00    +0.000 A 
ATOM     10  N   UNL     1      48.108   5.979  14.333  0.00  0.00    +0.000 NA
ATOM     11  H   UNL     1      48.682   9.023  14.563  0.00  0.00    +0.000 HD
BRANCH   8  12
ATOM     12  C   UNL     1      47.473   3.827  17.344  0.00  0.00    +0.000 C 
ATOM     13  N   UNL     1      48.178   3.514  18.473  0.00  0.00    +0.000 N 
ATOM     14  O   UNL     1      46.469   3.202  17.026  0.00  0.00    +0.000 OA
ATOM     15  H   UNL     1      48.862   4.129  18.891  0.00  0.00    +0.000 HD
ATOM     16  H   UNL     1      47.788   2.790  19.065  0.00  0.00    +0.000 HD
ENDBRANCH   8  12
ENDBRANCH   1   4
BRANCH   1  21
ATOM     17  C   UNL     1      45.607   6.642  11.485  0.00  0.00    +0.000 A 
ATOM     18  C   UNL     1      44.703   7.706  11.523  0.00  0.00    +0.000 A 
ATOM     19  C   UNL     1      45.145   8.955  11.945  0.00  0.00    +0.000 A 
ATOM     20  C   UNL     1      46.474   9.119  12.312  0.00  0.00    +0.000 A 
ATOM     21  C   UNL     1      47.347   8.038  12.234  0.00  0.00    +0.000 A 
ATOM     22  N   UNL     1      46.901   6.816  11.815  0.00  0.00    +0.000 NA
BRANCH  17  30
ATOM     23  C   UNL     1      45.499   3.276  12.364  0.00  0.00    +0.000 C 
ATOM     24  C   UNL     1      44.561   4.462  12.038  0.00  0.00    +0.000 C 
ATOM     25  C   UNL     1      44.059   5.049  13.369  0.00  0.00    +0.000 C 
ATOM     26  C   UNL     1      43.317   3.900  11.294  0.00  0.00    +0.000 C 
ATOM     27  O   UNL     1      43.660   3.371  10.015  0.00  0.00    +0.000 OA
ATOM     28  C   UNL     1      44.222   4.372   9.172  0.00  0.00    +0.000 C 
ATOM     29  C   UNL     1      45.494   4.907   9.810  0.00  0.00    +0.000 C 
ATOM     30  O   UNL     1      45.203   5.365  11.118  0.00  0.00    +0.000 OA
ENDBRANCH  17  30
ENDBRANCH   1  21
TORSDOF 4
ENDMDL
MODEL 3
REMARK VINA RESULT:    -6.834      5.179      8.205
REMARK INTER + INTRA:          -8.875
REMARK INTER:                  -8.956
REMARK INTRA:                   0.081
REMARK UNBOUND:                -0.443
REMARK  Name = 
REMARK  6 active torsions:
REMARK  status: ('A' for Active; 'I' for Inactive)
REMARK    1  A    between atoms: C_1  and  C_2
REMARK    2  A    between atoms: C_2  and  C_3
REMARK    3  A    between atoms: O_8  and  C_9
REMARK    4  A    between atoms: C_13  and  C_14
REMARK    5  A    between atoms: C_14  and  N_15
REMARK    6  A    between atoms: C_19  and  C_20
REMARK                            x       y       z     vdW  Elec       q    Type
REMARK                         _______ _______ _______ _____ _____    ______ ____
ROOT
ATOM      1  C   UNL     1      48.019   4.591  16.878  0.00  0.00    +0.000 C 
ATOM      2  C   UNL     1      47.148   3.430  17.318  0.00  0.00    +0.000 C 
ATOM      3  C   UNL     1      46.864   4.793  17.857  0.00  0.00    +0.000 C 
ENDROOT
BRANCH   1   4
ATOM      4  N   UNL     1      49.383   4.803  17.423  0.00  0.00    +0.000 N 
ATOM      5  C   UNL     1      50.322   3.740  17.423  0.00  0.00    +0.000 A 
ATOM      6  C   UNL     1      51.609   4.024  17.886  0.00  0.00    +0.000 A 
ATOM      7  C   UNL     1      52.562   3.008  17.959  0.00  0.00    +0.000 A 
ATOM      8  C   UNL     1      52.207   1.720  17.569  0.00  0.00    +0.000 A 
ATOM      9  C   UNL     1      50.926   1.531  17.067  0.00  0.00    +0.000 A 
ATOM     10  N   UNL     1      49.988   2.515  16.974  0.00  0.00    +0.000 NA
ATOM     11  H   UNL     1      49.404   5.244  18.337  0.00  0.00    +0.000 HD
BRANCH   8  12
ATOM     12  C   UNL     1      53.127   0.569  17.650  0.00  0.00    +0.000 C 
ATOM     13  N   UNL     1      52.824  -0.422  18.542  0.00  0.00    +0.000 N 
ATOM     14  O   UNL     1      54.107   0.492  16.921  0.00  0.00    +0.000 OA
ATOM     15  H   UNL     1      51.924  -0.512  18.991  0.00  0.00    +0.000 HD
ATOM     16  H   UNL     1      53.410  -1.249  18.516  0.00  0.00    +0.000 HD
ENDBRANCH   8  12
ENDBRANCH   1   4
BRANCH   1  21
ATOM     17  C   UNL     1      46.580   5.168  13.478  0.00  0.00    +0.000 A 
ATOM     18  C   UNL     1      47.392   6.170  12.941  0.00  0.00    +0.000 A 
ATOM     19  C   UNL     1      48.432   6.683  13.709  0.00  0.00    +0.000 A 
ATOM     20  C   UNL     1      48.644   6.185  14.989  0.00  0.00    +0.000 A 
ATOM     21  C   UNL     1      47.827   5.168  15.473  0.00  0.00    +0.000 A 
ATOM     22  N   UNL     1      46.810   4.671  14.708  0.00  0.00    +0.000 NA
BRANCH  17  30
ATOM     23  C   UNL     1      43.116   5.061  13.163  0.00  0.00    +0.000 C 
ATOM     24  C   UNL     1      44.381   5.473  12.373  0.00  0.00    +0.000 C 
ATOM     25  C   UNL     1      44.540   6.999  12.495  0.00  0.00    +0.000 C 
ATOM     26  C   UNL     1      44.131   5.162  10.870  0.00  0.00    +0.000 C 
ATOM     27  O   UNL     1      44.017   3.761  10.632  0.00  0.00    +0.000 OA
ATOM     28  C   UNL     1      45.208   3.073  10.998  0.00  0.00    +0.000 C 
ATOM     29  C   UNL     1      45.465   3.271  12.483  0.00  0.00    +0.000 C 
ATOM     30  O   UNL     1      45.500   4.658  12.769  0.00  0.00    +0.000 OA
ENDBRANCH  17  30
ENDBRANCH   1  21
TORSDOF 4
ENDMDL
MODEL 4
REMARK VINA RESULT:    -6.704      3.855      6.669
REMARK INTER + INTRA:          -8.715
REMARK INTER:                  -7.919
REMARK INTRA:                  -0.796
REMARK UNBOUND:                -0.443
REMARK  Name = 
REMARK  6 active torsions:
REMARK  status: ('A' for Active; 'I' for Inactive)
REMARK    1  A    between atoms: C_1  and  C_2
REMARK    2  A    between atoms: C_2  and  C_3
REMARK    3  A    between atoms: O_8  and  C_9
REMARK    4  A    between atoms: C_13  and  C_14
REMARK    5  A    between atoms: C_14  and  N_15
REMARK    6  A    between atoms: C_19  and  C_20
REMARK                            x       y       z     vdW  Elec       q    Type
REMARK                         _______ _______ _______ _____ _____    ______ ____
ROOT
ATOM      1  C   UNL     1      48.592   8.036  13.689  0.00  0.00    +0.000 C 
ATOM      2  C   UNL     1      49.730   7.367  12.941  0.00  0.00    +0.000 C 
ATOM      3  C   UNL     1      49.715   8.855  13.057  0.00  0.00    +0.000 C 
ENDROOT
BRANCH   1   4
ATOM      4  N   UNL     1      47.245   8.199  13.090  0.00  0.00    +0.000 N 
ATOM      5  C   UNL     1      46.427   7.065  12.858  0.00  0.00    +0.000 A 
ATOM      6  C   UNL     1      45.143   7.293  12.357  0.00  0.00    +0.000 A 
ATOM      7  C   UNL     1      44.310   6.215  12.060  0.00  0.00    +0.000 A 
ATOM      8  C   UNL     1      44.779   4.922  12.268  0.00  0.00    +0.000 A 
ATOM      9  C   UNL     1      46.044   4.779  12.823  0.00  0.00    +0.000 A 
ATOM     10  N   UNL     1      46.865   5.821  13.134  0.00  0.00    +0.000 NA
ATOM     11  H   UNL     1      47.226   8.778  12.256  0.00  0.00    +0.000 HD
BRANCH   8  12
ATOM     12  C   UNL     1      43.993   3.715  11.945  0.00  0.00    +0.000 C 
ATOM     13  N   UNL     1      44.415   2.525  12.472  0.00  0.00    +0.000 N 
ATOM     14  O   UNL     1      42.983   3.785  11.257  0.00  0.00    +0.000 OA
ATOM     15  H   UNL     1      45.094   2.455  13.216  0.00  0.00    +0.000 HD
ATOM     16  H   UNL     1      43.811   1.724  12.323  0.00  0.00    +0.000 HD
ENDBRANCH   8  12
ENDBRANCH   1   4
BRANCH   1  21
ATOM     17  C   UNL     1      49.046   6.734  17.163  0.00  0.00    +0.000 A 
ATOM     18  C   UNL     1      48.608   7.786  17.970  0.00  0.00    +0.000 A 
ATOM     19  C   UNL     1      48.162   8.960  17.370  0.00  0.00    +0.000 A 
ATOM     20  C   UNL     1      48.155   9.056  15.984  0.00  0.00    +0.000 A 
ATOM     21  C   UNL     1      48.576   7.973  15.219  0.00  0.00    +0.000 A 
ATOM     22  N   UNL     1      49.010   6.826  15.820  0.00  0.00    +0.000 NA
BRANCH  17  30
ATOM     23  C   UNL     1      48.608   4.246  19.557  0.00  0.00    +0.000 C 
ATOM     24  C   UNL     1      48.707   4.433  18.024  0.00  0.00    +0.000 C 
ATOM     25  C   UNL     1      47.276   4.440  17.455  0.00  0.00    +0.000 C 
ATOM     26  C   UNL     1      49.423   3.187  17.433  0.00  0.00    +0.000 C 
ATOM     27  O   UNL     1      50.782   3.108  17.858  0.00  0.00    +0.000 OA
ATOM     28  C   UNL     1      51.527   4.245  17.435  0.00  0.00    +0.000 C 
ATOM     29  C   UNL     1      50.920   5.497  18.050  0.00  0.00    +0.000 C 
ATOM     30  O   UNL     1      49.546   5.562  17.715  0.00  0.00    +0.000 OA
ENDBRANCH  17  30
ENDBRANCH   1  21
TORSDOF 4
ENDMDL
MODEL 5
REMARK VINA RESULT:    -6.501      3.259      5.765
REMARK INTER + INTRA:          -8.464
REMARK INTER:                  -8.044
REMARK INTRA:                  -0.420
REMARK UNBOUND:                -0.443
REMARK  Name = 
REMARK  6 active torsions:
REMARK  status: ('A' for Active; 'I' for Inactive)
REMARK    1  A    between atoms: C_1  and  C_2
REMARK    2  A    between atoms: C_2  and  C_3
REMARK    3  A    between atoms: O_8  and  C_9
REMARK    4  A    between atoms: C_13  and  C_14
REMARK    5  A    between atoms: C_14  and  N_15
REMARK    6  A    between atoms: C_19  and  C_20
REMARK                            x       y       z     vdW  Elec       q    Type
REMARK                         _______ _______ _______ _____ _____    ______ ____
ROOT
ATOM      1  C   UNL     1      47.606   8.529  13.120  0.00  0.00    +0.000 C 
ATOM      2  C   UNL     1      48.045   9.050  11.764  0.00  0.00    +0.000 C 
ATOM      3  C   UNL     1      47.676  10.027  12.831  0.00  0.00    +0.000 C 
ENDROOT
BRANCH   1   4
ATOM      4  N   UNL     1      46.250   7.969  13.347  0.00  0.00    +0.000 N 
ATOM      5  C   UNL     1      45.758   6.937  12.509  0.00  0.00    +0.000 A 
ATOM      6  C   UNL     1      44.504   6.405  12.819  0.00  0.00    +0.000 A 
ATOM      7  C   UNL     1      43.943   5.424  12.002  0.00  0.00    +0.000 A 
ATOM      8  C   UNL     1      44.649   4.993  10.883  0.00  0.00    +0.000 A 
ATOM      9  C   UNL     1      45.913   5.528  10.676  0.00  0.00    +0.000 A 
ATOM     10  N   UNL     1      46.483   6.475  11.472  0.00  0.00    +0.000 NA
ATOM     11  H   UNL     1      45.522   8.668  13.451  0.00  0.00    +0.000 HD
BRANCH   8  12
ATOM     12  C   UNL     1      44.125   3.992   9.933  0.00  0.00    +0.000 C 
ATOM     13  N   UNL     1      44.147   4.310   8.603  0.00  0.00    +0.000 N 
ATOM     14  O   UNL     1      43.714   2.906  10.321  0.00  0.00    +0.000 OA
ATOM     15  H   UNL     1      44.676   5.082   8.223  0.00  0.00    +0.000 HD
ATOM     16  H   UNL     1      43.876   3.577   7.957  0.00  0.00    +0.000 HD
ENDBRANCH   8  12
ENDBRANCH   1   4
BRANCH   1  21
ATOM     17  C   UNL     1      49.145   6.626  15.945  0.00  0.00    +0.000 A 
ATOM     18  C   UNL     1      50.508   6.904  15.826  0.00  0.00    +0.000 A 
ATOM     19  C   UNL     1      50.945   7.724  14.791  0.00  0.00    +0.000 A 
ATOM     20  C   UNL     1      50.016   8.254  13.904  0.00  0.00    +0.000 A 
ATOM     21  C   UNL     1      48.664   7.972  14.076  0.00  0.00    +0.000 A 
ATOM     22  N   UNL     1      48.248   7.167  15.098  0.00  0.00    +0.000 NA
BRANCH  17  30
ATOM     23  C   UNL     1      49.429   5.578  19.252  0.00  0.00    +0.000 C 
ATOM     24  C   UNL     1      48.410   6.217  18.278  0.00  0.00    +0.000 C 
ATOM     25  C   UNL     1      48.399   7.735  18.533  0.00  0.00    +0.000 C 
ATOM     26  C   UNL     1      46.996   5.687  18.646  0.00  0.00    +0.000 C 
ATOM     27  O   UNL     1      46.876   4.287  18.400  0.00  0.00    +0.000 OA
ATOM     28  C   UNL     1      47.081   3.982  17.025  0.00  0.00    +0.000 C 
ATOM     29  C   UNL     1      48.484   4.405  16.622  0.00  0.00    +0.000 C 
ATOM     30  O   UNL     1      48.665   5.775  16.932  0.00  0.00    +0.000 OA
ENDBRANCH  17  30
ENDBRANCH   1  21
TORSDOF 4
ENDMDL
MODEL 6
REMARK VINA RESULT:    -6.479      4.878      8.344
REMARK INTER + INTRA:          -8.437
REMARK INTER:                  -8.209
REMARK INTRA:                  -0.228
REMARK UNBOUND:                -0.443
REMARK  Name = 
REMARK  6 active torsions:
REMARK  status: ('A' for Active; 'I' for Inactive)
REMARK    1  A    between atoms: C_1  and  C_2
REMARK    2  A    between atoms: C_2  and  C_3
REMARK    3  A    between atoms: O_8  and  C_9
REMARK    4  A    between atoms: C_13  and  C_14
REMARK    5  A    between atoms: C_14  and  N_15
REMARK    6  A    between atoms: C_19  and  C_20
REMARK                            x       y       z     vdW  Elec       q    Type
REMARK                         _______ _______ _______ _____ _____    ______ ____
ROOT
ATOM      1  C   UNL     1      43.645  10.255  10.945  0.00  0.00    +0.000 C 
ATOM      2  C   UNL     1      43.242  10.077   9.492  0.00  0.00    +0.000 C 
ATOM      3  C   UNL     1      44.280  11.093   9.837  0.00  0.00    +0.000 C 
ENDROOT
BRANCH   1   4
ATOM      4  N   UNL     1      42.793  10.989  11.913  0.00  0.00    +0.000 N 
ATOM      5  C   UNL     1      41.383  10.855  11.864  0.00  0.00    +0.000 A 
ATOM      6  C   UNL     1      40.642  11.516  12.846  0.00  0.00    +0.000 A 
ATOM      7  C   UNL     1      39.248  11.465  12.820  0.00  0.00    +0.000 A 
ATOM      8  C   UNL     1      38.618  10.753  11.804  0.00  0.00    +0.000 A 
ATOM      9  C   UNL     1      39.424  10.075  10.899  0.00  0.00    +0.000 A 
ATOM     10  N   UNL     1      40.787  10.101  10.919  0.00  0.00    +0.000 NA
ATOM     11  H   UNL     1      43.015  11.975  12.001  0.00  0.00    +0.000 HD
BRANCH   8  12
ATOM     12  C   UNL     1      37.151  10.673  11.663  0.00  0.00    +0.000 C 
ATOM     13  N   UNL     1      36.652   9.848  10.694  0.00  0.00    +0.000 N 
ATOM     14  O   UNL     1      36.410  11.301  12.409  0.00  0.00    +0.000 OA
ATOM     15  H   UNL     1      37.205   9.151  10.217  0.00  0.00    +0.000 HD
ATOM     16  H   UNL     1      35.645   9.730  10.673  0.00  0.00    +0.000 HD
ENDBRANCH   8  12
ENDBRANCH   1   4
BRANCH   1  21
ATOM     17  C   UNL     1      45.198   6.944  11.713  0.00  0.00    +0.000 A 
ATOM     18  C   UNL     1      46.140   7.242  12.700  0.00  0.00    +0.000 A 
ATOM     19  C   UNL     1      46.285   8.560  13.123  0.00  0.00    +0.000 A 
ATOM     20  C   UNL     1      45.486   9.547  12.559  0.00  0.00    +0.000 A 
ATOM     21  C   UNL     1      44.542   9.201  11.597  0.00  0.00    +0.000 A 
ATOM     22  N   UNL     1      44.408   7.903  11.193  0.00  0.00    +0.000 NA
BRANCH  17  30
ATOM     23  C   UNL     1      45.267   3.544  12.453  0.00  0.00    +0.000 C 
ATOM     24  C   UNL     1      44.308   4.639  11.929  0.00  0.00    +0.000 C 
ATOM     25  C   UNL     1      43.426   5.098  13.105  0.00  0.00    +0.000 C 
ATOM     26  C   UNL     1      43.362   3.989  10.881  0.00  0.00    +0.000 C 
ATOM     27  O   UNL     1      44.072   3.568   9.718  0.00  0.00    +0.000 OA
ATOM     28  C   UNL     1      44.705   4.666   9.070  0.00  0.00    +0.000 C 
ATOM     29  C   UNL     1      45.708   5.299  10.021  0.00  0.00    +0.000 C 
ATOM     30  O   UNL     1      45.049   5.653  11.224  0.00  0.00    +0.000 OA
ENDBRANCH  17  30
ENDBRANCH   1  21
TORSDOF 4
ENDMDL
MODEL 7
REMARK VINA RESULT:    -6.353      3.432      8.377
REMARK INTER + INTRA:          -8.281
REMARK INTER:                  -7.609
REMARK INTRA:                  -0.672
REMARK UNBOUND:                -0.443
REMARK  Name = 
REMARK  6 active torsions:
REMARK  status: ('A' for Active; 'I' for Inactive)
REMARK    1  A    between atoms: C_1  and  C_2
REMARK    2  A    between atoms: C_2  and  C_3
REMARK    3  A    between atoms: O_8  and  C_9
REMARK    4  A    between atoms: C_13  and  C_14
REMARK    5  A    between atoms: C_14  and  N_15
REMARK    6  A    between atoms: C_19  and  C_20
REMARK                            x       y       z     vdW  Elec       q    Type
REMARK                         _______ _______ _______ _____ _____    ______ ____
ROOT
ATOM      1  C   UNL     1      48.921   8.018  12.584  0.00  0.00    +0.000 C 
ATOM      2  C   UNL     1      49.683   9.300  12.307  0.00  0.00    +0.000 C 
ATOM      3  C   UNL     1      49.948   8.102  11.457  0.00  0.00    +0.000 C 
ENDROOT
BRANCH   1   4
ATOM      4  N   UNL     1      49.266   7.126  13.719  0.00  0.00    +0.000 N 
ATOM      5  C   UNL     1      48.966   7.518  15.047  0.00  0.00    +0.000 A 
ATOM      6  C   UNL     1      49.253   6.604  16.065  0.00  0.00    +0.000 A 
ATOM      7  C   UNL     1      49.028   6.951  17.396  0.00  0.00    +0.000 A 
ATOM      8  C   UNL     1      48.521   8.213  17.688  0.00  0.00    +0.000 A 
ATOM      9  C   UNL     1      48.207   9.042  16.619  0.00  0.00    +0.000 A 
ATOM     10  N   UNL     1      48.405   8.714  15.312  0.00  0.00    +0.000 NA
ATOM     11  H   UNL     1      50.218   6.776  13.699  0.00  0.00    +0.000 HD
BRANCH   8  12
ATOM     12  C   UNL     1      48.288   8.692  19.065  0.00  0.00    +0.000 C 
ATOM     13  N   UNL     1      49.384   8.894  19.858  0.00  0.00    +0.000 N 
ATOM     14  O   UNL     1      47.157   8.930  19.469  0.00  0.00    +0.000 OA
ATOM     15  H   UNL     1      50.329   8.931  19.504  0.00  0.00    +0.000 HD
ATOM     16  H   UNL     1      49.216   9.315  20.765  0.00  0.00    +0.000 HD
ENDBRANCH   8  12
ENDBRANCH   1   4
BRANCH   1  21
ATOM     17  C   UNL     1      45.682   6.567  11.413  0.00  0.00    +0.000 A 
ATOM     18  C   UNL     1      44.814   7.660  11.404  0.00  0.00    +0.000 A 
ATOM     19  C   UNL     1      45.290   8.906  11.800  0.00  0.00    +0.000 A 
ATOM     20  C   UNL     1      46.617   9.036  12.190  0.00  0.00    +0.000 A 
ATOM     21  C   UNL     1      47.453   7.924  12.159  0.00  0.00    +0.000 A 
ATOM     22  N   UNL     1      46.974   6.707  11.764  0.00  0.00    +0.000 NA
BRANCH  17  30
ATOM     23  C   UNL     1      45.468   3.227  12.368  0.00  0.00    +0.000 C 
ATOM     24  C   UNL     1      44.567   4.432  12.008  0.00  0.00    +0.000 C 
ATOM     25  C   UNL     1      44.075   5.065  13.322  0.00  0.00    +0.000 C 
ATOM     26  C   UNL     1      43.312   3.891  11.268  0.00  0.00    +0.000 C 
ATOM     27  O   UNL     1      43.648   3.322  10.004  0.00  0.00    +0.000 OA
ATOM     28  C   UNL     1      44.245   4.286   9.143  0.00  0.00    +0.000 C 
ATOM     29  C   UNL     1      45.528   4.797   9.777  0.00  0.00    +0.000 C 
ATOM     30  O   UNL     1      45.242   5.294  11.072  0.00  0.00    +0.000 OA
ENDBRANCH  17  30
ENDBRANCH   1  21
TORSDOF 4
ENDMDL
MODEL 8
REMARK VINA RESULT:    -6.074      5.218      7.847
REMARK INTER + INTRA:          -7.937
REMARK INTER:                  -7.695
REMARK INTRA:                  -0.242
REMARK UNBOUND:                -0.443
REMARK  Name = 
REMARK  6 active torsions:
REMARK  status: ('A' for Active; 'I' for Inactive)
REMARK    1  A    between atoms: C_1  and  C_2
REMARK    2  A    between atoms: C_2  and  C_3
REMARK    3  A    between atoms: O_8  and  C_9
REMARK    4  A    between atoms: C_13  and  C_14
REMARK    5  A    between atoms: C_14  and  N_15
REMARK    6  A    between atoms: C_19  and  C_20
REMARK                            x       y       z     vdW  Elec       q    Type
REMARK                         _______ _______ _______ _____ _____    ______ ____
ROOT
ATOM      1  C   UNL     1      48.202   4.532  17.108  0.00  0.00    +0.000 C 
ATOM      2  C   UNL     1      47.357   3.420  17.699  0.00  0.00    +0.000 C 
ATOM      3  C   UNL     1      47.122   4.824  18.146  0.00  0.00    +0.000 C 
ENDROOT
BRANCH   1   4
ATOM      4  N   UNL     1      49.603   4.769  17.536  0.00  0.00    +0.000 N 
ATOM      5  C   UNL     1      50.536   3.701  17.539  0.00  0.00    +0.000 A 
ATOM      6  C   UNL     1      51.855   4.005  17.887  0.00  0.00    +0.000 A 
ATOM      7  C   UNL     1      52.807   2.989  17.958  0.00  0.00    +0.000 A 
ATOM      8  C   UNL     1      52.421   1.681  17.683  0.00  0.00    +0.000 A 
ATOM      9  C   UNL     1      51.106   1.469  17.290  0.00  0.00    +0.000 A 
ATOM     10  N   UNL     1      50.166   2.451  17.199  0.00  0.00    +0.000 NA
ATOM     11  H   UNL     1      49.692   5.270  18.414  0.00  0.00    +0.000 HD
BRANCH   8  12
ATOM     12  C   UNL     1      53.341   0.530  17.773  0.00  0.00    +0.000 C 
ATOM     13  N   UNL     1      53.633  -0.139  16.617  0.00  0.00    +0.000 N 
ATOM     14  O   UNL     1      53.847   0.209  18.840  0.00  0.00    +0.000 OA
ATOM     15  H   UNL     1      53.426   0.222  15.697  0.00  0.00    +0.000 HD
ATOM     16  H   UNL     1      54.340  -0.863  16.678  0.00  0.00    +0.000 HD
ENDBRANCH   8  12
ENDBRANCH   1   4
BRANCH   1  21
ATOM     17  C   UNL     1      48.274   6.610  14.003  0.00  0.00    +0.000 A 
ATOM     18  C   UNL     1      47.470   5.899  13.110  0.00  0.00    +0.000 A 
ATOM     19  C   UNL     1      46.894   4.701  13.523  0.00  0.00    +0.000 A 
ATOM     20  C   UNL     1      47.127   4.244  14.814  0.00  0.00    +0.000 A 
ATOM     21  C   UNL     1      47.914   4.998  15.679  0.00  0.00    +0.000 A 
ATOM     22  N   UNL     1      48.471   6.174  15.261  0.00  0.00    +0.000 NA
BRANCH  17  30
ATOM     23  C   UNL     1      48.513   9.126  11.609  0.00  0.00    +0.000 C 
ATOM     24  C   UNL     1      48.189   8.922  13.109  0.00  0.00    +0.000 C 
ATOM     25  C   UNL     1      46.658   8.919  13.266  0.00  0.00    +0.000 C 
ATOM     26  C   UNL     1      48.721  10.158  13.888  0.00  0.00    +0.000 C 
ATOM     27  O   UNL     1      50.145  10.233  13.850  0.00  0.00    +0.000 OA
ATOM     28  C   UNL     1      50.742   9.087  14.447  0.00  0.00    +0.000 C 
ATOM     29  C   UNL     1      50.323   7.846  13.676  0.00  0.00    +0.000 C 
ATOM     30  O   UNL     1      48.909   7.785  13.622  0.00  0.00    +0.000 OA
ENDBRANCH  17  30
ENDBRANCH   1  21
TORSDOF 4
ENDMDL
MODEL 9
REMARK VINA RESULT:    -5.979      3.391      6.850
REMARK INTER + INTRA:          -7.820
REMARK INTER:                  -7.244
REMARK INTRA:                  -0.576
REMARK UNBOUND:                -0.443
REMARK  Name = 
REMARK  6 active torsions:
REMARK  status: ('A' for Active; 'I' for Inactive)
REMARK    1  A    between atoms: C_1  and  C_2
REMARK    2  A    between atoms: C_2  and  C_3
REMARK    3  A    between atoms: O_8  and  C_9
REMARK    4  A    between atoms: C_13  and  C_14
REMARK    5  A    between atoms: C_14  and  N_15
REMARK    6  A    between atoms: C_19  and  C_20
REMARK                            x       y       z     vdW  Elec       q    Type
REMARK                         _______ _______ _______ _____ _____    ______ ____
ROOT
ATOM      1  C   UNL     1      48.392   8.237  13.257  0.00  0.00    +0.000 C 
ATOM      2  C   UNL     1      48.952   7.044  14.009  0.00  0.00    +0.000 C 
ATOM      3  C   UNL     1      48.358   8.174  14.783  0.00  0.00    +0.000 C 
ENDROOT
BRANCH   1   4
ATOM      4  N   UNL     1      49.269   9.277  12.664  0.00  0.00    +0.000 N 
ATOM      5  C   UNL     1      50.253   8.918  11.709  0.00  0.00    +0.000 A 
ATOM      6  C   UNL     1      50.998   9.952  11.138  0.00  0.00    +0.000 A 
ATOM      7  C   UNL     1      52.015   9.657  10.230  0.00  0.00    +0.000 A 
ATOM      8  C   UNL     1      52.272   8.327   9.912  0.00  0.00    +0.000 A 
ATOM      9  C   UNL     1      51.450   7.362  10.477  0.00  0.00    +0.000 A 
ATOM     10  N   UNL     1      50.441   7.632  11.353  0.00  0.00    +0.000 NA
ATOM     11  H   UNL     1      49.698   9.897  13.343  0.00  0.00    +0.000 HD
BRANCH   8  12
ATOM     12  C   UNL     1      53.353   7.909   8.998  0.00  0.00    +0.000 C 
ATOM     13  N   UNL     1      53.628   6.572   8.913  0.00  0.00    +0.000 N 
ATOM     14  O   UNL     1      53.958   8.729   8.318  0.00  0.00    +0.000 OA
ATOM     15  H   UNL     1      53.017   5.854   9.272  0.00  0.00    +0.000 HD
ATOM     16  H   UNL     1      54.304   6.293   8.211  0.00  0.00    +0.000 HD
ENDBRANCH   8  12
ENDBRANCH   1   4
BRANCH   1  21
ATOM     17  C   UNL     1      45.502   6.674  11.476  0.00  0.00    +0.000 A 
ATOM     18  C   UNL     1      44.626   7.741  11.268  0.00  0.00    +0.000 A 
ATOM     19  C   UNL     1      44.976   9.006  11.730  0.00  0.00    +0.000 A 
ATOM     20  C   UNL     1      46.191   9.180  12.380  0.00  0.00    +0.000 A 
ATOM     21  C   UNL     1      47.046   8.094  12.542  0.00  0.00    +0.000 A 
ATOM     22  N   UNL     1      46.690   6.858  12.082  0.00  0.00    +0.000 NA
BRANCH  17  30
ATOM     23  C   UNL     1      45.447   3.304  12.342  0.00  0.00    +0.000 C 
ATOM     24  C   UNL     1      44.495   4.456  11.942  0.00  0.00    +0.000 C 
ATOM     25  C   UNL     1      43.867   5.021  13.230  0.00  0.00    +0.000 C 
ATOM     26  C   UNL     1      43.336   3.852  11.101  0.00  0.00    +0.000 C 
ATOM     27  O   UNL     1      43.799   3.340   9.853  0.00  0.00    +0.000 OA
ATOM     28  C   UNL     1      44.390   4.363   9.059  0.00  0.00    +0.000 C 
ATOM     29  C   UNL     1      45.587   4.942   9.796  0.00  0.00    +0.000 C 
ATOM     30  O   UNL     1      45.176   5.385  11.077  0.00  0.00    +0.000 OA
ENDBRANCH  17  30
ENDBRANCH   1  21
TORSDOF 4
ENDMDL
