MODEL 1
REMARK VINA RESULT:    -8.445      0.000      0.000
REMARK INTER + INTRA:         -13.835
REMARK INTER:                 -12.395
REMARK INTRA:                  -1.441
REMARK UNBOUND:                -1.441
REMARK  Name = 
REMARK  9 active torsions:
REMARK  status: ('A' for Active; 'I' for Inactive)
REMARK    1  A    between atoms: C_1  and  O_2
REMARK    2  A    between atoms: O_2  and  C_3
REMARK    3  A    between atoms: C_10  and  C_11
REMARK    4  A    between atoms: N_13  and  C_14
REMARK    5  A    between atoms: C_14  and  C_15
REMARK    6  A    between atoms: C_18  and  N_19
REMARK    7  A    between atoms: N_19  and  C_20
REMARK    8  A    between atoms: C_20  and  C_21
REMARK    9  A    between atoms: C_21  and  C_22
REMARK                            x       y       z     vdW  Elec       q    Type
REMARK                         _______ _______ _______ _____ _____    ______ ____
ROOT
ATOM      1  C   UNL     1      47.603   8.507  13.688  0.00  0.00    +0.000 C 
ENDROOT
BRANCH   1   2
ATOM      2  C   UNL     1      46.699   7.821  12.698  0.00  0.00    +0.000 A 
ATOM      3  C   UNL     1      47.197   6.822  11.854  0.00  0.00    +0.000 A 
ATOM      4  C   UNL     1      46.334   6.093  11.030  0.00  0.00    +0.000 A 
ATOM      5  C   UNL     1      44.956   6.327  11.046  0.00  0.00    +0.000 A 
ATOM      6  C   UNL     1      44.486   7.422  11.778  0.00  0.00    +0.000 A 
ATOM      7  C   UNL     1      45.343   8.156  12.607  0.00  0.00    +0.000 A 
BRANCH   5   8
ATOM      8  N   UNL     1      44.025   5.558  10.334  0.00  0.00    +0.000 N 
ATOM      9  H   UNL     1      43.664   6.091   9.544  0.00  0.00    +0.000 HD
BRANCH   8  10
ATOM     10  C   UNL     1      44.391   4.185   9.961  0.00  0.00    +0.000 C 
BRANCH  10  11
ATOM     11  C   UNL     1      44.456   4.019   8.434  0.00  0.00    +0.000 C 
BRANCH  11  12
ATOM     12  C   UNL     1      45.525   3.057   7.996  0.00  0.00    +0.000 A 
ATOM     13  C   UNL     1      46.525   3.434   7.099  0.00  0.00    +0.000 A 
ATOM     14  C   UNL     1      47.484   2.504   6.708  0.00  0.00    +0.000 A 
ATOM     15  C   UNL     1      47.415   1.226   7.236  0.00  0.00    +0.000 A 
ATOM     16  N   UNL     1      46.471   0.828   8.115  0.00  0.00    +0.000 NA
ATOM     17  C   UNL     1      45.547   1.748   8.471  0.00  0.00    +0.000 A 
ENDBRANCH  11  12
ENDBRANCH  10  11
ENDBRANCH   8  10
ENDBRANCH   5   8
ENDBRANCH   1   2
BRANCH   1  20
ATOM     18  C   UNL     1      49.051   7.038  15.015  0.00  0.00    +0.000 C 
ATOM     19  O   UNL     1      49.953   7.131  14.185  0.00  0.00    +0.000 OA
ATOM     20  N   UNL     1      47.859   7.688  14.842  0.00  0.00    +0.000 N 
ATOM     21  H   UNL     1      47.120   7.598  15.526  0.00  0.00    +0.000 HD
BRANCH  18  29
ATOM     22  C   UNL     1      47.345   4.329  16.271  0.00  0.00    +0.000 A 
ATOM     23  N   UNL     1      46.903   3.249  16.945  0.00  0.00    +0.000 NA
ATOM     24  C   UNL     1      47.543   2.908  18.067  0.00  0.00    +0.000 A 
ATOM     25  N   UNL     1      48.584   3.527  18.617  0.00  0.00    +0.000 NA
ATOM     26  C   UNL     1      49.001   4.587  17.904  0.00  0.00    +0.000 A 
ATOM     27  S   UNL     1      50.317   5.506  18.459  0.00  0.00    +0.000 S 
ATOM     28  C   UNL     1      50.221   6.544  17.120  0.00  0.00    +0.000 A 
ATOM     29  C   UNL     1      49.209   6.221  16.227  0.00  0.00    +0.000 A 
ATOM     30  C   UNL     1      48.464   5.059  16.712  0.00  0.00    +0.000 A 
BRANCH  22  32
ATOM     31  C   UNL     1      46.975   3.827  14.013  0.00  0.00    +0.000 C 
ATOM     32  O   UNL     1      46.687   4.686  15.114  0.00  0.00    +0.000 OA
ENDBRANCH  22  32
ENDBRANCH  18  29
ENDBRANCH   1  20
TORSDOF 8
ENDMDL
MODEL 2
REMARK VINA RESULT:    -7.907      1.601      2.164
REMARK INTER + INTRA:         -13.046
REMARK INTER:                 -11.786
REMARK INTRA:                  -1.260
REMARK UNBOUND:                -1.441
REMARK  Name = 
REMARK  9 active torsions:
REMARK  status: ('A' for Active; 'I' for Inactive)
REMARK    1  A    between atoms: C_1  and  O_2
REMARK    2  A    between atoms: O_2  and  C_3
REMARK    3  A    between atoms: C_10  and  C_11
REMARK    4  A    between atoms: N_13  and  C_14
REMARK    5  A    between atoms: C_14  and  C_15
REMARK    6  A    between atoms: C_18  and  N_19
REMARK    7  A    between atoms: N_19  and  C_20
REMARK    8  A    between atoms: C_20  and  C_21
REMARK    9  A    between atoms: C_21  and  C_22
REMARK                            x       y       z     vdW  Elec       q    Type
REMARK                         _______ _______ _______ _____ _____    ______ ____
ROOT
ATOM      1  C   UNL     1      47.961   6.611  13.284  0.00  0.00    +0.000 C 
ENDROOT
BRANCH   1   2
ATOM      2  C   UNL     1      46.836   5.791  12.711  0.00  0.00    +0.000 A 
ATOM      3  C   UNL     1      46.068   6.281  11.649  0.00  0.00    +0.000 A 
ATOM      4  C   UNL     1      45.113   5.469  11.029  0.00  0.00    +0.000 A 
ATOM      5  C   UNL     1      44.918   4.146  11.438  0.00  0.00    +0.000 A 
ATOM      6  C   UNL     1      45.581   3.714  12.592  0.00  0.00    +0.000 A 
ATOM      7  C   UNL     1      46.540   4.519  13.216  0.00  0.00    +0.000 A 
BRANCH   5   8
ATOM      8  N   UNL     1      44.064   3.245  10.789  0.00  0.00    +0.000 N 
ATOM      9  H   UNL     1      43.095   3.454  11.022  0.00  0.00    +0.000 HD
BRANCH   8  10
ATOM     10  C   UNL     1      44.254   3.014   9.350  0.00  0.00    +0.000 C 
BRANCH  10  11
ATOM     11  C   UNL     1      45.221   1.846   9.094  0.00  0.00    +0.000 C 
BRANCH  11  12
ATOM     12  C   UNL     1      46.114   2.079   7.907  0.00  0.00    +0.000 A 
ATOM     13  C   UNL     1      46.017   3.238   7.136  0.00  0.00    +0.000 A 
ATOM     14  C   UNL     1      46.853   3.402   6.035  0.00  0.00    +0.000 A 
ATOM     15  C   UNL     1      47.766   2.402   5.747  0.00  0.00    +0.000 A 
ATOM     16  N   UNL     1      47.898   1.274   6.477  0.00  0.00    +0.000 NA
ATOM     17  C   UNL     1      47.068   1.136   7.535  0.00  0.00    +0.000 A 
ENDBRANCH  11  12
ENDBRANCH  10  11
ENDBRANCH   8  10
ENDBRANCH   5   8
ENDBRANCH   1   2
BRANCH   1  20
ATOM     18  C   UNL     1      48.939   7.219  15.449  0.00  0.00    +0.000 C 
ATOM     19  O   UNL     1      49.862   7.813  14.898  0.00  0.00    +0.000 OA
ATOM     20  N   UNL     1      47.958   6.600  14.722  0.00  0.00    +0.000 N 
ATOM     21  H   UNL     1      47.208   6.106  15.185  0.00  0.00    +0.000 HD
BRANCH  18  29
ATOM     22  C   UNL     1      48.658   4.600  17.661  0.00  0.00    +0.000 A 
ATOM     23  N   UNL     1      48.609   3.777  18.727  0.00  0.00    +0.000 NA
ATOM     24  C   UNL     1      48.614   4.329  19.943  0.00  0.00    +0.000 A 
ATOM     25  N   UNL     1      48.656   5.627  20.236  0.00  0.00    +0.000 NA
ATOM     26  C   UNL     1      48.721   6.409  19.145  0.00  0.00    +0.000 A 
ATOM     27  S   UNL     1      48.772   8.097  19.325  0.00  0.00    +0.000 S 
ATOM     28  C   UNL     1      48.851   8.324  17.645  0.00  0.00    +0.000 A 
ATOM     29  C   UNL     1      48.847   7.143  16.915  0.00  0.00    +0.000 A 
ATOM     30  C   UNL     1      48.746   5.995  17.817  0.00  0.00    +0.000 A 
BRANCH  22  32
ATOM     31  C   UNL     1      48.334   2.646  16.412  0.00  0.00    +0.000 C 
ATOM     32  O   UNL     1      48.650   4.035  16.404  0.00  0.00    +0.000 OA
ENDBRANCH  22  32
ENDBRANCH  18  29
ENDBRANCH   1  20
TORSDOF 8
ENDMDL
MODEL 3
REMARK VINA RESULT:    -7.593      2.307      3.116
REMARK INTER + INTRA:         -12.584
REMARK INTER:                 -11.275
REMARK INTRA:                  -1.309
REMARK UNBOUND:                -1.441
REMARK  Name = 
REMARK  9 active torsions:
REMARK  status: ('A' for Active; 'I' for Inactive)
REMARK    1  A    between atoms: C_1  and  O_2
REMARK    2  A    between atoms: O_2  and  C_3
REMARK    3  A    between atoms: C_10  and  C_11
REMARK    4  A    between atoms: N_13  and  C_14
REMARK    5  A    between atoms: C_14  and  C_15
REMARK    6  A    between atoms: C_18  and  N_19
REMARK    7  A    between atoms: N_19  and  C_20
REMARK    8  A    between atoms: C_20  and  C_21
REMARK    9  A    between atoms: C_21  and  C_22
REMARK                            x       y       z     vdW  Elec       q    Type
REMARK                         _______ _______ _______ _____ _____    ______ ____
ROOT
ATOM      1  C   UNL     1      47.877   7.278  13.596  0.00  0.00    +0.000 C 
ENDROOT
BRANCH   1   2
ATOM      2  C   UNL     1      47.056   6.229  12.892  0.00  0.00    +0.000 A 
ATOM      3  C   UNL     1      46.789   5.002  13.510  0.00  0.00    +0.000 A 
ATOM      4  C   UNL     1      45.919   4.083  12.917  0.00  0.00    +0.000 A 
ATOM      5  C   UNL     1      45.279   4.374  11.708  0.00  0.00    +0.000 A 
ATOM      6  C   UNL     1      45.665   5.533  11.027  0.00  0.00    +0.000 A 
ATOM      7  C   UNL     1      46.533   6.460  11.615  0.00  0.00    +0.000 A 
BRANCH   5   8
ATOM      8  N   UNL     1      44.311   3.551  11.119  0.00  0.00    +0.000 N 
ATOM      9  H   UNL     1      43.393   3.757  11.510  0.00  0.00    +0.000 HD
BRANCH   8  10
ATOM     10  C   UNL     1      44.282   3.442   9.654  0.00  0.00    +0.000 C 
BRANCH  10  11
ATOM     11  C   UNL     1      44.825   2.083   9.182  0.00  0.00    +0.000 C 
BRANCH  11  12
ATOM     12  C   UNL     1      45.882   2.214   8.121  0.00  0.00    +0.000 A 
ATOM     13  C   UNL     1      46.051   3.398   7.401  0.00  0.00    +0.000 A 
ATOM     14  C   UNL     1      47.031   3.467   6.415  0.00  0.00    +0.000 A 
ATOM     15  C   UNL     1      47.817   2.350   6.188  0.00  0.00    +0.000 A 
ATOM     16  N   UNL     1      47.691   1.194   6.872  0.00  0.00    +0.000 NA
ATOM     17  C   UNL     1      46.726   1.150   7.818  0.00  0.00    +0.000 A 
ENDBRANCH  11  12
ENDBRANCH  10  11
ENDBRANCH   8  10
ENDBRANCH   5   8
ENDBRANCH   1   2
BRANCH   1  20
ATOM     18  C   UNL     1      48.983   6.799  15.731  0.00  0.00    +0.000 C 
ATOM     19  O   UNL     1      50.066   6.648  15.170  0.00  0.00    +0.000 OA
ATOM     20  N   UNL     1      47.854   7.112  15.024  0.00  0.00    +0.000 N 
ATOM     21  H   UNL     1      46.967   7.225  15.495  0.00  0.00    +0.000 HD
BRANCH  18  29
ATOM     22  C   UNL     1      47.811   8.861  18.222  0.00  0.00    +0.000 A 
ATOM     23  N   UNL     1      47.363   9.427  19.360  0.00  0.00    +0.000 NA
ATOM     24  C   UNL     1      47.450   8.717  20.488  0.00  0.00    +0.000 A 
ATOM     25  N   UNL     1      47.947   7.491  20.628  0.00  0.00    +0.000 NA
ATOM     26  C   UNL     1      48.367   6.959  19.467  0.00  0.00    +0.000 A 
ATOM     27  S   UNL     1      49.040   5.400  19.454  0.00  0.00    +0.000 S 
ATOM     28  C   UNL     1      49.277   5.462  17.774  0.00  0.00    +0.000 A 
ATOM     29  C   UNL     1      48.851   6.646  17.188  0.00  0.00    +0.000 A 
ATOM     30  C   UNL     1      48.326   7.552  18.210  0.00  0.00    +0.000 A 
BRANCH  22  32
ATOM     31  C   UNL     1      48.868  10.407  16.816  0.00  0.00    +0.000 C 
ATOM     32  O   UNL     1      47.725   9.591  17.056  0.00  0.00    +0.000 OA
ENDBRANCH  22  32
ENDBRANCH  18  29
ENDBRANCH   1  20
TORSDOF 8
ENDMDL
MODEL 4
REMARK VINA RESULT:    -7.539      1.748      2.376
REMARK INTER + INTRA:         -12.506
REMARK INTER:                 -11.162
REMARK INTRA:                  -1.343
REMARK UNBOUND:                -1.441
REMARK  Name = 
REMARK  9 active torsions:
REMARK  status: ('A' for Active; 'I' for Inactive)
REMARK    1  A    between atoms: C_1  and  O_2
REMARK    2  A    between atoms: O_2  and  C_3
REMARK    3  A    between atoms: C_10  and  C_11
REMARK    4  A    between atoms: N_13  and  C_14
REMARK    5  A    between atoms: C_14  and  C_15
REMARK    6  A    between atoms: C_18  and  N_19
REMARK    7  A    between atoms: N_19  and  C_20
REMARK    8  A    between atoms: C_20  and  C_21
REMARK    9  A    between atoms: C_21  and  C_22
REMARK                            x       y       z     vdW  Elec       q    Type
REMARK                         _______ _______ _______ _____ _____    ______ ____
ROOT
ATOM      1  C   UNL     1      46.980   7.513  13.298  0.00  0.00    +0.000 C 
ENDROOT
BRANCH   1   2
ATOM      2  C   UNL     1      46.284   6.299  12.741  0.00  0.00    +0.000 A 
ATOM      3  C   UNL     1      45.830   6.285  11.417  0.00  0.00    +0.000 A 
ATOM      4  C   UNL     1      45.304   5.115  10.860  0.00  0.00    +0.000 A 
ATOM      5  C   UNL     1      45.240   3.931  11.600  0.00  0.00    +0.000 A 
ATOM      6  C   UNL     1      45.555   3.993  12.961  0.00  0.00    +0.000 A 
ATOM      7  C   UNL     1      46.085   5.159  13.527  0.00  0.00    +0.000 A 
BRANCH   5   8
ATOM      8  N   UNL     1      44.834   2.700  11.069  0.00  0.00    +0.000 N 
ATOM      9  H   UNL     1      44.297   2.181  11.763  0.00  0.00    +0.000 HD
BRANCH   8  10
ATOM     10  C   UNL     1      44.197   2.684   9.745  0.00  0.00    +0.000 C 
BRANCH  10  11
ATOM     11  C   UNL     1      44.731   1.530   8.881  0.00  0.00    +0.000 C 
BRANCH  11  12
ATOM     12  C   UNL     1      45.921   1.924   8.051  0.00  0.00    +0.000 A 
ATOM     13  C   UNL     1      46.108   3.239   7.621  0.00  0.00    +0.000 A 
ATOM     14  C   UNL     1      47.215   3.555   6.839  0.00  0.00    +0.000 A 
ATOM     15  C   UNL     1      48.106   2.543   6.520  0.00  0.00    +0.000 A 
ATOM     16  N   UNL     1      47.965   1.265   6.929  0.00  0.00    +0.000 NA
ATOM     17  C   UNL     1      46.877   0.984   7.679  0.00  0.00    +0.000 A 
ENDBRANCH  11  12
ENDBRANCH  10  11
ENDBRANCH   8  10
ENDBRANCH   5   8
ENDBRANCH   1   2
BRANCH   1  20
ATOM     18  C   UNL     1      48.608   7.999  15.066  0.00  0.00    +0.000 C 
ATOM     19  O   UNL     1      48.090   9.092  15.283  0.00  0.00    +0.000 OA
ATOM     20  N   UNL     1      48.119   7.160  14.102  0.00  0.00    +0.000 N 
ATOM     21  H   UNL     1      48.559   6.268  13.924  0.00  0.00    +0.000 HD
BRANCH  18  29
ATOM     22  C   UNL     1      49.410   5.037  16.619  0.00  0.00    +0.000 A 
ATOM     23  N   UNL     1      49.991   3.994  17.243  0.00  0.00    +0.000 NA
ATOM     24  C   UNL     1      51.220   4.165  17.736  0.00  0.00    +0.000 A 
ATOM     25  N   UNL     1      51.956   5.273  17.690  0.00  0.00    +0.000 NA
ATOM     26  C   UNL     1      51.346   6.281  17.045  0.00  0.00    +0.000 A 
ATOM     27  S   UNL     1      52.133   7.779  16.895  0.00  0.00    +0.000 S 
ATOM     28  C   UNL     1      50.829   8.434  16.030  0.00  0.00    +0.000 A 
ATOM     29  C   UNL     1      49.782   7.546  15.829  0.00  0.00    +0.000 A 
ATOM     30  C   UNL     1      50.085   6.261  16.459  0.00  0.00    +0.000 A 
BRANCH  22  32
ATOM     31  C   UNL     1      47.321   4.021  16.915  0.00  0.00    +0.000 C 
ATOM     32  O   UNL     1      48.140   4.865  16.111  0.00  0.00    +0.000 OA
ENDBRANCH  22  32
ENDBRANCH  18  29
ENDBRANCH   1  20
TORSDOF 8
ENDMDL
MODEL 5
REMARK VINA RESULT:    -7.490      1.920      3.584
REMARK INTER + INTRA:         -12.433
REMARK INTER:                 -10.988
REMARK INTRA:                  -1.445
REMARK UNBOUND:                -1.441
REMARK  Name = 
REMARK  9 active torsions:
REMARK  status: ('A' for Active; 'I' for Inactive)
REMARK    1  A    between atoms: C_1  and  O_2
REMARK    2  A    between atoms: O_2  and  C_3
REMARK    3  A    between atoms: C_10  and  C_11
REMARK    4  A    between atoms: N_13  and  C_14
REMARK    5  A    between atoms: C_14  and  C_15
REMARK    6  A    between atoms: C_18  and  N_19
REMARK    7  A    between atoms: N_19  and  C_20
REMARK    8  A    between atoms: C_20  and  C_21
REMARK    9  A    between atoms: C_21  and  C_22
REMARK                            x       y       z     vdW  Elec       q    Type
REMARK                         _______ _______ _______ _____ _____    ______ ____
ROOT
ATOM      1  C   UNL     1      47.163   4.252  15.091  0.00  0.00    +0.000 C 
ENDROOT
BRANCH   1   2
ATOM      2  C   UNL     1      46.464   4.446  13.771  0.00  0.00    +0.000 A 
ATOM      3  C   UNL     1      45.973   3.347  13.058  0.00  0.00    +0.000 A 
ATOM      4  C   UNL     1      45.209   3.535  11.902  0.00  0.00    +0.000 A 
ATOM      5  C   UNL     1      44.900   4.819  11.444  0.00  0.00    +0.000 A 
ATOM      6  C   UNL     1      45.517   5.904  12.074  0.00  0.00    +0.000 A 
ATOM      7  C   UNL     1      46.281   5.726  13.234  0.00  0.00    +0.000 A 
BRANCH   5   8
ATOM      8  N   UNL     1      44.046   5.078  10.363  0.00  0.00    +0.000 N 
ATOM      9  H   UNL     1      44.074   6.069  10.128  0.00  0.00    +0.000 HD
BRANCH   8  10
ATOM     10  C   UNL     1      44.140   4.219   9.175  0.00  0.00    +0.000 C 
BRANCH  10  11
ATOM     11  C   UNL     1      45.458   4.453   8.418  0.00  0.00    +0.000 C 
BRANCH  11  12
ATOM     12  C   UNL     1      46.104   3.174   7.964  0.00  0.00    +0.000 A 
ATOM     13  C   UNL     1      47.073   3.161   6.958  0.00  0.00    +0.000 A 
ATOM     14  C   UNL     1      47.630   1.951   6.558  0.00  0.00    +0.000 A 
ATOM     15  C   UNL     1      47.207   0.791   7.184  0.00  0.00    +0.000 A 
ATOM     16  N   UNL     1      46.284   0.765   8.168  0.00  0.00    +0.000 NA
ATOM     17  C   UNL     1      45.752   1.953   8.532  0.00  0.00    +0.000 A 
ENDBRANCH  11  12
ENDBRANCH  10  11
ENDBRANCH   8  10
ENDBRANCH   5   8
ENDBRANCH   1   2
BRANCH   1  20
ATOM     18  C   UNL     1      48.621   5.643  16.488  0.00  0.00    +0.000 C 
ATOM     19  O   UNL     1      49.380   4.698  16.687  0.00  0.00    +0.000 OA
ATOM     20  N   UNL     1      47.503   5.505  15.710  0.00  0.00    +0.000 N 
ATOM     21  H   UNL     1      46.880   6.286  15.561  0.00  0.00    +0.000 HD
BRANCH  18  29
ATOM     22  C   UNL     1      48.823   8.816  15.177  0.00  0.00    +0.000 A 
ATOM     23  N   UNL     1      48.893  10.141  14.943  0.00  0.00    +0.000 NA
ATOM     24  C   UNL     1      49.102  10.951  15.985  0.00  0.00    +0.000 A 
ATOM     25  N   UNL     1      49.263  10.595  17.257  0.00  0.00    +0.000 NA
ATOM     26  C   UNL     1      49.170   9.269  17.447  0.00  0.00    +0.000 A 
ATOM     27  S   UNL     1      49.357   8.630  19.010  0.00  0.00    +0.000 S 
ATOM     28  C   UNL     1      49.110   7.048  18.447  0.00  0.00    +0.000 A 
ATOM     29  C   UNL     1      48.875   6.965  17.082  0.00  0.00    +0.000 A 
ATOM     30  C   UNL     1      48.934   8.298  16.480  0.00  0.00    +0.000 A 
BRANCH  22  32
ATOM     31  C   UNL     1      49.802   7.658  13.393  0.00  0.00    +0.000 C 
ATOM     32  O   UNL     1      48.610   7.978  14.104  0.00  0.00    +0.000 OA
ENDBRANCH  22  32
ENDBRANCH  18  29
ENDBRANCH   1  20
TORSDOF 8
ENDMDL
MODEL 6
REMARK VINA RESULT:    -7.170      1.978      2.450
REMARK INTER + INTRA:         -11.964
REMARK INTER:                 -10.921
REMARK INTRA:                  -1.043
REMARK UNBOUND:                -1.441
REMARK  Name = 
REMARK  9 active torsions:
REMARK  status: ('A' for Active; 'I' for Inactive)
REMARK    1  A    between atoms: C_1  and  O_2
REMARK    2  A    between atoms: O_2  and  C_3
REMARK    3  A    between atoms: C_10  and  C_11
REMARK    4  A    between atoms: N_13  and  C_14
REMARK    5  A    between atoms: C_14  and  C_15
REMARK    6  A    between atoms: C_18  and  N_19
REMARK    7  A    between atoms: N_19  and  C_20
REMARK    8  A    between atoms: C_20  and  C_21
REMARK    9  A    between atoms: C_21  and  C_22
REMARK                            x       y       z     vdW  Elec       q    Type
REMARK                         _______ _______ _______ _____ _____    ______ ____
ROOT
ATOM      1  C   UNL     1      48.419   7.458  14.713  0.00  0.00    +0.000 C 
ENDROOT
BRANCH   1   2
ATOM      2  C   UNL     1      47.570   6.670  13.751  0.00  0.00    +0.000 A 
ATOM      3  C   UNL     1      47.278   5.324  13.999  0.00  0.00    +0.000 A 
ATOM      4  C   UNL     1      46.383   4.629  13.179  0.00  0.00    +0.000 A 
ATOM      5  C   UNL     1      45.743   5.265  12.112  0.00  0.00    +0.000 A 
ATOM      6  C   UNL     1      46.151   6.562  11.783  0.00  0.00    +0.000 A 
ATOM      7  C   UNL     1      47.045   7.265  12.599  0.00  0.00    +0.000 A 
BRANCH   5   8
ATOM      8  N   UNL     1      44.752   4.663  11.325  0.00  0.00    +0.000 N 
ATOM      9  H   UNL     1      43.839   5.053  11.555  0.00  0.00    +0.000 HD
BRANCH   8  10
ATOM     10  C   UNL     1      44.969   4.572   9.875  0.00  0.00    +0.000 C 
BRANCH  10  11
ATOM     11  C   UNL     1      44.683   3.154   9.354  0.00  0.00    +0.000 C 
BRANCH  11  12
ATOM     12  C   UNL     1      45.668   2.706   8.310  0.00  0.00    +0.000 A 
ATOM     13  C   UNL     1      46.099   1.380   8.232  0.00  0.00    +0.000 A 
ATOM     14  C   UNL     1      47.025   1.015   7.261  0.00  0.00    +0.000 A 
ATOM     15  C   UNL     1      47.485   1.989   6.391  0.00  0.00    +0.000 A 
ATOM     16  N   UNL     1      47.082   3.277   6.426  0.00  0.00    +0.000 NA
ATOM     17  C   UNL     1      46.189   3.607   7.385  0.00  0.00    +0.000 A 
ENDBRANCH  11  12
ENDBRANCH  10  11
ENDBRANCH   8  10
ENDBRANCH   5   8
ENDBRANCH   1   2
BRANCH   1  20
ATOM     18  C   UNL     1      49.335   6.255  16.644  0.00  0.00    +0.000 C 
ATOM     19  O   UNL     1      48.380   6.589  17.342  0.00  0.00    +0.000 OA
ATOM     20  N   UNL     1      49.428   6.643  15.335  0.00  0.00    +0.000 N 
ATOM     21  H   UNL     1      50.223   6.371  14.773  0.00  0.00    +0.000 HD
BRANCH  18  29
ATOM     22  C   UNL     1      49.817   2.858  16.887  0.00  0.00    +0.000 A 
ATOM     23  N   UNL     1      50.279   1.603  17.051  0.00  0.00    +0.000 NA
ATOM     24  C   UNL     1      51.488   1.448  17.599  0.00  0.00    +0.000 A 
ATOM     25  N   UNL     1      52.307   2.408  18.021  0.00  0.00    +0.000 NA
ATOM     26  C   UNL     1      51.814   3.642  17.824  0.00  0.00    +0.000 A 
ATOM     27  S   UNL     1      52.720   4.994  18.310  0.00  0.00    +0.000 S 
ATOM     28  C   UNL     1      51.522   6.059  17.753  0.00  0.00    +0.000 A 
ATOM     29  C   UNL     1      50.424   5.427  17.186  0.00  0.00    +0.000 A 
ATOM     30  C   UNL     1      50.592   3.975  17.250  0.00  0.00    +0.000 A 
BRANCH  22  32
ATOM     31  C   UNL     1      47.515   3.026  17.282  0.00  0.00    +0.000 C 
ATOM     32  O   UNL     1      48.570   3.023  16.324  0.00  0.00    +0.000 OA
ENDBRANCH  22  32
ENDBRANCH  18  29
ENDBRANCH   1  20
TORSDOF 8
ENDMDL
MODEL 7
REMARK VINA RESULT:    -6.956      2.091      3.985
REMARK INTER + INTRA:         -11.651
REMARK INTER:                 -10.620
REMARK INTRA:                  -1.030
REMARK UNBOUND:                -1.441
REMARK  Name = 
REMARK  9 active torsions:
REMARK  status: ('A' for Active; 'I' for Inactive)
REMARK    1  A    between atoms: C_1  and  O_2
REMARK    2  A    between atoms: O_2  and  C_3
REMARK    3  A    between atoms: C_10  and  C_11
REMARK    4  A    between atoms: N_13  and  C_14
REMARK    5  A    between atoms: C_14  and  C_15
REMARK    6  A    between atoms: C_18  and  N_19
REMARK    7  A    between atoms: N_19  and  C_20
REMARK    8  A    between atoms: C_20  and  C_21
REMARK    9  A    between atoms: C_21  and  C_22
REMARK                            x       y       z     vdW  Elec       q    Type
REMARK                         _______ _______ _______ _____ _____    ______ ____
ROOT
ATOM      1  C   UNL     1      47.136   4.712  14.741  0.00  0.00    +0.000 C 
ENDROOT
BRANCH   1   2
ATOM      2  C   UNL     1      46.126   4.720  13.623  0.00  0.00    +0.000 A 
ATOM      3  C   UNL     1      45.558   5.922  13.188  0.00  0.00    +0.000 A 
ATOM      4  C   UNL     1      44.724   5.948  12.066  0.00  0.00    +0.000 A 
ATOM      5  C   UNL     1      44.457   4.782  11.341  0.00  0.00    +0.000 A 
ATOM      6  C   UNL     1      44.906   3.567  11.868  0.00  0.00    +0.000 A 
ATOM      7  C   UNL     1      45.743   3.533  12.989  0.00  0.00    +0.000 A 
BRANCH   5   8
ATOM      8  N   UNL     1      43.726   4.756  10.146  0.00  0.00    +0.000 N 
ATOM      9  H   UNL     1      43.169   5.605  10.059  0.00  0.00    +0.000 HD
BRANCH   8  10
ATOM     10  C   UNL     1      44.433   4.424   8.901  0.00  0.00    +0.000 C 
BRANCH  10  11
ATOM     11  C   UNL     1      44.607   2.904   8.745  0.00  0.00    +0.000 C 
BRANCH  11  12
ATOM     12  C   UNL     1      45.772   2.538   7.868  0.00  0.00    +0.000 A 
ATOM     13  C   UNL     1      46.244   3.405   6.881  0.00  0.00    +0.000 A 
ATOM     14  C   UNL     1      47.313   3.016   6.080  0.00  0.00    +0.000 A 
ATOM     15  C   UNL     1      47.882   1.772   6.299  0.00  0.00    +0.000 A 
ATOM     16  N   UNL     1      47.461   0.913   7.251  0.00  0.00    +0.000 NA
ATOM     17  C   UNL     1      46.416   1.312   8.009  0.00  0.00    +0.000 A 
ENDBRANCH  11  12
ENDBRANCH  10  11
ENDBRANCH   8  10
ENDBRANCH   5   8
ENDBRANCH   1   2
BRANCH   1  20
ATOM     18  C   UNL     1      48.851   6.148  15.748  0.00  0.00    +0.000 C 
ATOM     19  O   UNL     1      49.162   5.266  16.545  0.00  0.00    +0.000 OA
ATOM     20  N   UNL     1      47.860   5.952  14.824  0.00  0.00    +0.000 N 
ATOM     21  H   UNL     1      47.605   6.687  14.179  0.00  0.00    +0.000 HD
BRANCH  18  29
ATOM     22  C   UNL     1      49.897   8.271  13.252  0.00  0.00    +0.000 A 
ATOM     23  N   UNL     1      50.341   9.292  12.494  0.00  0.00    +0.000 NA
ATOM     24  C   UNL     1      50.850  10.358  13.116  0.00  0.00    +0.000 A 
ATOM     25  N   UNL     1      50.983  10.534  14.428  0.00  0.00    +0.000 NA
ATOM     26  C   UNL     1      50.514   9.500  15.146  0.00  0.00    +0.000 A 
ATOM     27  S   UNL     1      50.608   9.544  16.842  0.00  0.00    +0.000 S 
ATOM     28  C   UNL     1      49.865   8.023  16.972  0.00  0.00    +0.000 A 
ATOM     29  C   UNL     1      49.525   7.455  15.753  0.00  0.00    +0.000 A 
ATOM     30  C   UNL     1      49.936   8.333  14.657  0.00  0.00    +0.000 A 
BRANCH  22  32
ATOM     31  C   UNL     1      48.521   7.501  11.521  0.00  0.00    +0.000 C 
ATOM     32  O   UNL     1      49.372   7.168  12.614  0.00  0.00    +0.000 OA
ENDBRANCH  22  32
ENDBRANCH  18  29
ENDBRANCH   1  20
TORSDOF 8
ENDMDL
MODEL 8
REMARK VINA RESULT:    -6.716      3.192      7.595
REMARK INTER + INTRA:         -11.297
REMARK INTER:                  -9.619
REMARK INTRA:                  -1.678
REMARK UNBOUND:                -1.441
REMARK  Name = 
REMARK  9 active torsions:
REMARK  status: ('A' for Active; 'I' for Inactive)
REMARK    1  A    between atoms: C_1  and  O_2
REMARK    2  A    between atoms: O_2  and  C_3
REMARK    3  A    between atoms: C_10  and  C_11
REMARK    4  A    between atoms: N_13  and  C_14
REMARK    5  A    between atoms: C_14  and  C_15
REMARK    6  A    between atoms: C_18  and  N_19
REMARK    7  A    between atoms: N_19  and  C_20
REMARK    8  A    between atoms: C_20  and  C_21
REMARK    9  A    between atoms: C_21  and  C_22
REMARK                            x       y       z     vdW  Elec       q    Type
REMARK                         _______ _______ _______ _____ _____    ______ ____
ROOT
ATOM      1  C   UNL     1      48.320   8.081  11.904  0.00  0.00    +0.000 C 
ENDROOT
BRANCH   1   2
ATOM      2  C   UNL     1      48.473   7.981  13.399  0.00  0.00    +0.000 A 
ATOM      3  C   UNL     1      49.244   6.961  13.968  0.00  0.00    +0.000 A 
ATOM      4  C   UNL     1      49.496   6.944  15.343  0.00  0.00    +0.000 A 
ATOM      5  C   UNL     1      49.006   7.954  16.177  0.00  0.00    +0.000 A 
ATOM      6  C   UNL     1      48.117   8.882  15.626  0.00  0.00    +0.000 A 
ATOM      7  C   UNL     1      47.861   8.908  14.250  0.00  0.00    +0.000 A 
BRANCH   5   8
ATOM      8  N   UNL     1      49.316   8.061  17.539  0.00  0.00    +0.000 N 
ATOM      9  H   UNL     1      49.392   9.042  17.803  0.00  0.00    +0.000 HD
BRANCH   8  10
ATOM     10  C   UNL     1      48.522   7.284  18.501  0.00  0.00    +0.000 C 
BRANCH  10  11
ATOM     11  C   UNL     1      49.290   6.044  18.988  0.00  0.00    +0.000 C 
BRANCH  11  12
ATOM     12  C   UNL     1      48.972   4.810  18.190  0.00  0.00    +0.000 A 
ATOM     13  C   UNL     1      47.654   4.411  17.955  0.00  0.00    +0.000 A 
ATOM     14  C   UNL     1      47.408   3.252  17.227  0.00  0.00    +0.000 A 
ATOM     15  C   UNL     1      48.489   2.532  16.748  0.00  0.00    +0.000 A 
ATOM     16  N   UNL     1      49.775   2.893  16.944  0.00  0.00    +0.000 NA
ATOM     17  C   UNL     1      49.987   4.018  17.662  0.00  0.00    +0.000 A 
ENDBRANCH  11  12
ENDBRANCH  10  11
ENDBRANCH   8  10
ENDBRANCH   5   8
ENDBRANCH   1   2
BRANCH   1  20
ATOM     18  C   UNL     1      46.245   6.923  11.299  0.00  0.00    +0.000 C 
ATOM     19  O   UNL     1      45.567   7.860  11.713  0.00  0.00    +0.000 OA
ATOM     20  N   UNL     1      47.612   6.955  11.357  0.00  0.00    +0.000 N 
ATOM     21  H   UNL     1      48.160   6.175  11.023  0.00  0.00    +0.000 HD
BRANCH  18  29
ATOM     22  C   UNL     1      44.460   4.319  12.663  0.00  0.00    +0.000 A 
ATOM     23  N   UNL     1      43.698   3.237  12.919  0.00  0.00    +0.000 NA
ATOM     24  C   UNL     1      43.347   2.461  11.890  0.00  0.00    +0.000 A 
ATOM     25  N   UNL     1      43.674   2.628  10.611  0.00  0.00    +0.000 NA
ATOM     26  C   UNL     1      44.419   3.726  10.399  0.00  0.00    +0.000 A 
ATOM     27  S   UNL     1      44.939   4.097   8.825  0.00  0.00    +0.000 S 
ATOM     28  C   UNL     1      45.732   5.497   9.362  0.00  0.00    +0.000 A 
ATOM     29  C   UNL     1      45.618   5.721  10.727  0.00  0.00    +0.000 A 
ATOM     30  C   UNL     1      44.849   4.644  11.351  0.00  0.00    +0.000 A 
BRANCH  22  32
ATOM     31  C   UNL     1      46.150   4.870  14.188  0.00  0.00    +0.000 C 
ATOM     32  O   UNL     1      44.826   5.120  13.722  0.00  0.00    +0.000 OA
ENDBRANCH  22  32
ENDBRANCH  18  29
ENDBRANCH   1  20
TORSDOF 8
ENDMDL
MODEL 9
REMARK VINA RESULT:    -6.601      2.327      3.336
REMARK INTER + INTRA:         -11.129
REMARK INTER:                 -10.177
REMARK INTRA:                  -0.951
REMARK UNBOUND:                -1.441
REMARK  Name = 
REMARK  9 active torsions:
REMARK  status: ('A' for Active; 'I' for Inactive)
REMARK    1  A    between atoms: C_1  and  O_2
REMARK    2  A    between atoms: O_2  and  C_3
REMARK    3  A    between atoms: C_10  and  C_11
REMARK    4  A    between atoms: N_13  and  C_14
REMARK    5  A    between atoms: C_14  and  C_15
REMARK    6  A    between atoms: C_18  and  N_19
REMARK    7  A    between atoms: N_19  and  C_20
REMARK    8  A    between atoms: C_20  and  C_21
REMARK    9  A    between atoms: C_21  and  C_22
REMARK                            x       y       z     vdW  Elec       q    Type
REMARK                         _______ _______ _______ _____ _____    ______ ____
ROOT
ATOM      1  C   UNL     1      46.889   4.290  15.505  0.00  0.00    +0.000 C 
ENDROOT
BRANCH   1   2
ATOM      2  C   UNL     1      46.465   4.512  14.077  0.00  0.00    +0.000 A 
ATOM      3  C   UNL     1      46.064   3.436  13.278  0.00  0.00    +0.000 A 
ATOM      4  C   UNL     1      45.545   3.656  11.999  0.00  0.00    +0.000 A 
ATOM      5  C   UNL     1      45.393   4.952  11.497  0.00  0.00    +0.000 A 
ATOM      6  C   UNL     1      45.933   6.008  12.238  0.00  0.00    +0.000 A 
ATOM      7  C   UNL     1      46.452   5.797  13.521  0.00  0.00    +0.000 A 
BRANCH   5   8
ATOM      8  N   UNL     1      44.776   5.248  10.274  0.00  0.00    +0.000 N 
ATOM      9  H   UNL     1      45.384   5.842   9.712  0.00  0.00    +0.000 HD
BRANCH   8  10
ATOM     10  C   UNL     1      44.198   4.144   9.496  0.00  0.00    +0.000 C 
BRANCH  10  11
ATOM     11  C   UNL     1      44.691   4.168   8.040  0.00  0.00    +0.000 C 
BRANCH  11  12
ATOM     12  C   UNL     1      45.651   3.053   7.732  0.00  0.00    +0.000 A 
ATOM     13  C   UNL     1      46.606   3.169   6.720  0.00  0.00    +0.000 A 
ATOM     14  C   UNL     1      47.462   2.103   6.458  0.00  0.00    +0.000 A 
ATOM     15  C   UNL     1      47.340   0.957   7.225  0.00  0.00    +0.000 A 
ATOM     16  N   UNL     1      46.439   0.813   8.219  0.00  0.00    +0.000 NA
ATOM     17  C   UNL     1      45.614   1.859   8.447  0.00  0.00    +0.000 A 
ENDBRANCH  11  12
ENDBRANCH  10  11
ENDBRANCH   8  10
ENDBRANCH   5   8
ENDBRANCH   1   2
BRANCH   1  20
ATOM     18  C   UNL     1      48.463   5.382  17.036  0.00  0.00    +0.000 C 
ATOM     19  O   UNL     1      47.656   5.311  17.961  0.00  0.00    +0.000 OA
ATOM     20  N   UNL     1      48.160   4.899  15.792  0.00  0.00    +0.000 N 
ATOM     21  H   UNL     1      48.826   4.971  15.035  0.00  0.00    +0.000 HD
BRANCH  18  29
ATOM     22  C   UNL     1      51.592   4.088  17.635  0.00  0.00    +0.000 A 
ATOM     23  N   UNL     1      52.908   3.851  17.808  0.00  0.00    +0.000 NA
ATOM     24  C   UNL     1      53.733   4.901  17.839  0.00  0.00    +0.000 A 
ATOM     25  N   UNL     1      53.403   6.185  17.725  0.00  0.00    +0.000 NA
ATOM     26  C   UNL     1      52.086   6.374  17.538  0.00  0.00    +0.000 A 
ATOM     27  S   UNL     1      51.478   7.952  17.380  0.00  0.00    +0.000 S 
ATOM     28  C   UNL     1      49.894   7.376  17.182  0.00  0.00    +0.000 A 
ATOM     29  C   UNL     1      49.787   5.993  17.223  0.00  0.00    +0.000 A 
ATOM     30  C   UNL     1      51.101   5.394  17.460  0.00  0.00    +0.000 A 
BRANCH  22  32
ATOM     31  C   UNL     1      51.403   1.767  17.388  0.00  0.00    +0.000 C 
ATOM     32  O   UNL     1      50.737   3.008  17.605  0.00  0.00    +0.000 OA
ENDBRANCH  22  32
ENDBRANCH  18  29
ENDBRANCH   1  20
TORSDOF 8
ENDMDL
