MODEL 1
REMARK VINA RESULT:    -8.559      0.000      0.000
REMARK INTER + INTRA:         -11.762
REMARK INTER:                 -11.061
REMARK INTRA:                  -0.701
REMARK UNBOUND:                -0.701
REMARK  Name = 
REMARK  5 active torsions:
REMARK  status: ('A' for Active; 'I' for Inactive)
REMARK    1  A    between atoms: C_2  and  C_4
REMARK    2  A    between atoms: C_7  and  O_8
REMARK    3  A    between atoms: O_8  and  C_9
REMARK    4  A    between atoms: C_9  and  C_10
REMARK    5  A    between atoms: C_15  and  C_16
REMARK                            x       y       z     vdW  Elec       q    Type
REMARK                         _______ _______ _______ _____ _____    ______ ____
ROOT
ATOM      1  C   UNL     1      43.548   4.384  11.168  0.00  0.00    +0.000 C 
ENDROOT
BRANCH   1   2
ATOM      2  C   UNL     1      44.750   4.861  11.959  0.00  0.00    +0.000 A 
ATOM      3  C   UNL     1      45.329   4.000  12.900  0.00  0.00    +0.000 A 
ATOM      4  C   UNL     1      46.464   4.390  13.600  0.00  0.00    +0.000 A 
ATOM      5  C   UNL     1      47.033   5.637  13.357  0.00  0.00    +0.000 A 
ATOM      6  F   UNL     1      48.117   5.970  14.075  0.00  0.00    +0.000 F 
ATOM      7  C   UNL     1      46.505   6.530  12.408  0.00  0.00    +0.000 A 
ATOM      8  C   UNL     1      45.354   6.108  11.711  0.00  0.00    +0.000 A 
BRANCH   7   9
ATOM      9  C   UNL     1      47.124   7.843  12.150  0.00  0.00    +0.000 A 
ATOM     10  C   UNL     1      48.436   8.004  11.727  0.00  0.00    +0.000 A 
ATOM     11  N   UNL     1      49.040   9.193  11.498  0.00  0.00    +0.000 NA
ATOM     12  C   UNL     1      48.281  10.276  11.702  0.00  0.00    +0.000 A 
ATOM     13  N   UNL     1      47.000  10.271  12.095  0.00  0.00    +0.000 NA
ATOM     14  C   UNL     1      46.460   9.050  12.310  0.00  0.00    +0.000 A 
ENDBRANCH   7   9
ENDBRANCH   1   2
BRANCH   1  15
ATOM     15  O   UNL     1      43.656   4.746   9.788  0.00  0.00    +0.000 OA
BRANCH  15  19
ATOM     16  C   UNL     1      46.288   2.256   7.825  0.00  0.00    +0.000 A 
ATOM     17  C   UNL     1      45.408   1.724   8.769  0.00  0.00    +0.000 A 
ATOM     18  C   UNL     1      44.518   2.575   9.428  0.00  0.00    +0.000 A 
ATOM     19  C   UNL     1      44.541   3.927   9.114  0.00  0.00    +0.000 A 
ATOM     20  N   UNL     1      45.382   4.467   8.204  0.00  0.00    +0.000 NA
ATOM     21  C   UNL     1      46.242   3.623   7.588  0.00  0.00    +0.000 A 
BRANCH  16  23
ATOM     22  N   UNL     1      48.389   2.098   6.613  0.00  0.00    +0.000 N 
ATOM     23  C   UNL     1      47.285   1.452   7.089  0.00  0.00    +0.000 C 
ATOM     24  O   UNL     1      47.146   0.245   6.944  0.00  0.00    +0.000 OA
ATOM     25  H   UNL     1      49.109   1.510   6.209  0.00  0.00    +0.000 HD
ATOM     26  H   UNL     1      48.663   3.018   6.930  0.00  0.00    +0.000 HD
ENDBRANCH  16  23
ENDBRANCH  15  19
ENDBRANCH   1  15
TORSDOF 5
ENDMDL
MODEL 2
REMARK VINA RESULT:    -8.244      2.615      3.712
REMARK INTER + INTRA:         -11.355
REMARK INTER:                 -10.721
REMARK INTRA:                  -0.634
REMARK UNBOUND:                -0.701
REMARK  Name = 
REMARK  5 active torsions:
REMARK  status: ('A' for Active; 'I' for Inactive)
REMARK    1  A    between atoms: C_2  and  C_4
REMARK    2  A    between atoms: C_7  and  O_8
REMARK    3  A    between atoms: O_8  and  C_9
REMARK    4  A    between atoms: C_9  and  C_10
REMARK    5  A    between atoms: C_15  and  C_16
REMARK                            x       y       z     vdW  Elec       q    Type
REMARK                         _______ _______ _______ _____ _____    ______ ____
ROOT
ATOM      1  C   UNL     1      43.570   4.551  11.219  0.00  0.00    +0.000 C 
ENDROOT
BRANCH   1   2
ATOM      2  C   UNL     1      44.758   5.217  11.884  0.00  0.00    +0.000 A 
ATOM      3  C   UNL     1      45.134   6.502  11.473  0.00  0.00    +0.000 A 
ATOM      4  C   UNL     1      46.184   7.160  12.102  0.00  0.00    +0.000 A 
ATOM      5  C   UNL     1      46.859   6.541  13.151  0.00  0.00    +0.000 A 
ATOM      6  F   UNL     1      47.877   7.213  13.709  0.00  0.00    +0.000 F 
ATOM      7  C   UNL     1      46.508   5.262  13.617  0.00  0.00    +0.000 A 
ATOM      8  C   UNL     1      45.437   4.619  12.962  0.00  0.00    +0.000 A 
BRANCH   7   9
ATOM      9  C   UNL     1      47.221   4.622  14.738  0.00  0.00    +0.000 A 
ATOM     10  C   UNL     1      47.590   3.285  14.751  0.00  0.00    +0.000 A 
ATOM     11  N   UNL     1      48.228   2.663  15.769  0.00  0.00    +0.000 NA
ATOM     12  C   UNL     1      48.513   3.429  16.828  0.00  0.00    +0.000 A 
ATOM     13  N   UNL     1      48.231   4.734  16.947  0.00  0.00    +0.000 NA
ATOM     14  C   UNL     1      47.590   5.292  15.896  0.00  0.00    +0.000 A 
ENDBRANCH   7   9
ENDBRANCH   1   2
BRANCH   1  15
ATOM     15  O   UNL     1      43.611   4.712   9.798  0.00  0.00    +0.000 OA
BRANCH  15  19
ATOM     16  C   UNL     1      46.204   2.069   7.987  0.00  0.00    +0.000 A 
ATOM     17  C   UNL     1      46.282   3.430   7.686  0.00  0.00    +0.000 A 
ATOM     18  C   UNL     1      45.401   4.318   8.305  0.00  0.00    +0.000 A 
ATOM     19  C   UNL     1      44.475   3.810   9.207  0.00  0.00    +0.000 A 
ATOM     20  N   UNL     1      44.378   2.499   9.518  0.00  0.00    +0.000 NA
ATOM     21  C   UNL     1      45.236   1.657   8.895  0.00  0.00    +0.000 A 
BRANCH  16  23
ATOM     22  N   UNL     1      46.801  -0.265   7.665  0.00  0.00    +0.000 N 
ATOM     23  C   UNL     1      47.068   1.042   7.372  0.00  0.00    +0.000 C 
ATOM     24  O   UNL     1      47.967   1.347   6.601  0.00  0.00    +0.000 OA
ATOM     25  H   UNL     1      47.335  -0.954   7.148  0.00  0.00    +0.000 HD
ATOM     26  H   UNL     1      45.928  -0.565   8.077  0.00  0.00    +0.000 HD
ENDBRANCH  16  23
ENDBRANCH  15  19
ENDBRANCH   1  15
TORSDOF 5
ENDMDL
MODEL 3
REMARK VINA RESULT:    -8.185      1.874      2.513
REMARK INTER + INTRA:         -11.278
REMARK INTER:                 -10.612
REMARK INTRA:                  -0.667
REMARK UNBOUND:                -0.701
REMARK  Name = 
REMARK  5 active torsions:
REMARK  status: ('A' for Active; 'I' for Inactive)
REMARK    1  A    between atoms: C_2  and  C_4
REMARK    2  A    between atoms: C_7  and  O_8
REMARK    3  A    between atoms: O_8  and  C_9
REMARK    4  A    between atoms: C_9  and  C_10
REMARK    5  A    between atoms: C_15  and  C_16
REMARK                            x       y       z     vdW  Elec       q    Type
REMARK                         _______ _______ _______ _____ _____    ______ ____
ROOT
ATOM      1  C   UNL     1      44.282   3.313  11.487  0.00  0.00    +0.000 C 
ENDROOT
BRANCH   1   2
ATOM      2  C   UNL     1      44.698   4.757  11.683  0.00  0.00    +0.000 A 
ATOM      3  C   UNL     1      43.789   5.775  11.367  0.00  0.00    +0.000 A 
ATOM      4  C   UNL     1      44.123   7.106  11.588  0.00  0.00    +0.000 A 
ATOM      5  C   UNL     1      45.362   7.427  12.136  0.00  0.00    +0.000 A 
ATOM      6  F   UNL     1      45.640   8.728  12.310  0.00  0.00    +0.000 F 
ATOM      7  C   UNL     1      46.302   6.443  12.492  0.00  0.00    +0.000 A 
ATOM      8  C   UNL     1      45.936   5.101  12.258  0.00  0.00    +0.000 A 
BRANCH   7   9
ATOM      9  C   UNL     1      47.606   6.795  13.084  0.00  0.00    +0.000 A 
ATOM     10  C   UNL     1      48.572   7.543  12.426  0.00  0.00    +0.000 A 
ATOM     11  N   UNL     1      49.783   7.868  12.932  0.00  0.00    +0.000 NA
ATOM     12  C   UNL     1      50.034   7.418  14.167  0.00  0.00    +0.000 A 
ATOM     13  N   UNL     1      49.193   6.699  14.923  0.00  0.00    +0.000 NA
ATOM     14  C   UNL     1      48.002   6.406  14.355  0.00  0.00    +0.000 A 
ENDBRANCH   7   9
ENDBRANCH   1   2
BRANCH   1  15
ATOM     15  O   UNL     1      43.715   3.107  10.189  0.00  0.00    +0.000 OA
BRANCH  15  19
ATOM     16  C   UNL     1      46.606   2.564   7.302  0.00  0.00    +0.000 A 
ATOM     17  C   UNL     1      45.985   3.808   7.433  0.00  0.00    +0.000 A 
ATOM     18  C   UNL     1      45.008   3.983   8.415  0.00  0.00    +0.000 A 
ATOM     19  C   UNL     1      44.691   2.906   9.232  0.00  0.00    +0.000 A 
ATOM     20  N   UNL     1      45.277   1.693   9.128  0.00  0.00    +0.000 NA
ATOM     21  C   UNL     1      46.212   1.546   8.160  0.00  0.00    +0.000 A 
BRANCH  16  23
ATOM     22  N   UNL     1      47.735   3.114   5.221  0.00  0.00    +0.000 N 
ATOM     23  C   UNL     1      47.631   2.263   6.283  0.00  0.00    +0.000 C 
ATOM     24  O   UNL     1      48.385   1.306   6.404  0.00  0.00    +0.000 OA
ATOM     25  H   UNL     1      48.514   2.951   4.594  0.00  0.00    +0.000 HD
ATOM     26  H   UNL     1      47.320   4.036   5.218  0.00  0.00    +0.000 HD
ENDBRANCH  16  23
ENDBRANCH  15  19
ENDBRANCH   1  15
TORSDOF 5
ENDMDL
MODEL 4
REMARK VINA RESULT:    -7.911      1.866      2.360
REMARK INTER + INTRA:         -10.924
REMARK INTER:                 -10.565
REMARK INTRA:                  -0.359
REMARK UNBOUND:                -0.701
REMARK  Name = 
REMARK  5 active torsions:
REMARK  status: ('A' for Active; 'I' for Inactive)
REMARK    1  A    between atoms: C_2  and  C_4
REMARK    2  A    between atoms: C_7  and  O_8
REMARK    3  A    between atoms: O_8  and  C_9
REMARK    4  A    between atoms: C_9  and  C_10
REMARK    5  A    between atoms: C_15  and  C_16
REMARK                            x       y       z     vdW  Elec       q    Type
REMARK                         _______ _______ _______ _____ _____    ______ ____
ROOT
ATOM      1  C   UNL     1      44.067   3.975  11.415  0.00  0.00    +0.000 C 
ENDROOT
BRANCH   1   2
ATOM      2  C   UNL     1      44.826   5.218  11.835  0.00  0.00    +0.000 A 
ATOM      3  C   UNL     1      46.065   5.074  12.472  0.00  0.00    +0.000 A 
ATOM      4  C   UNL     1      46.808   6.195  12.819  0.00  0.00    +0.000 A 
ATOM      5  C   UNL     1      46.323   7.467  12.524  0.00  0.00    +0.000 A 
ATOM      6  F   UNL     1      47.072   8.515  12.898  0.00  0.00    +0.000 F 
ATOM      7  C   UNL     1      45.096   7.666  11.866  0.00  0.00    +0.000 A 
ATOM      8  C   UNL     1      44.364   6.510  11.524  0.00  0.00    +0.000 A 
BRANCH   7   9
ATOM      9  C   UNL     1      44.598   9.017  11.546  0.00  0.00    +0.000 A 
ATOM     10  C   UNL     1      45.128  10.179  12.088  0.00  0.00    +0.000 A 
ATOM     11  N   UNL     1      44.684  11.431  11.830  0.00  0.00    +0.000 NA
ATOM     12  C   UNL     1      43.656  11.516  10.979  0.00  0.00    +0.000 A 
ATOM     13  N   UNL     1      43.056  10.484  10.370  0.00  0.00    +0.000 NA
ATOM     14  C   UNL     1      43.546   9.261  10.675  0.00  0.00    +0.000 A 
ENDBRANCH   7   9
ENDBRANCH   1   2
BRANCH   1  15
ATOM     15  O   UNL     1      43.647   4.058  10.049  0.00  0.00    +0.000 OA
BRANCH  15  19
ATOM     16  C   UNL     1      46.565   2.632   7.513  0.00  0.00    +0.000 A 
ATOM     17  C   UNL     1      45.911   1.752   8.378  0.00  0.00    +0.000 A 
ATOM     18  C   UNL     1      44.923   2.244   9.233  0.00  0.00    +0.000 A 
ATOM     19  C   UNL     1      44.623   3.599   9.186  0.00  0.00    +0.000 A 
ATOM     20  N   UNL     1      45.239   4.471   8.359  0.00  0.00    +0.000 NA
ATOM     21  C   UNL     1      46.202   3.971   7.549  0.00  0.00    +0.000 A 
BRANCH  16  23
ATOM     22  N   UNL     1      47.847   2.993   5.479  0.00  0.00    +0.000 N 
ATOM     23  C   UNL     1      47.641   2.223   6.588  0.00  0.00    +0.000 C 
ATOM     24  O   UNL     1      48.346   1.251   6.823  0.00  0.00    +0.000 OA
ATOM     25  H   UNL     1      48.657   2.759   4.918  0.00  0.00    +0.000 HD
ATOM     26  H   UNL     1      47.470   3.927   5.385  0.00  0.00    +0.000 HD
ENDBRANCH  16  23
ENDBRANCH  15  19
ENDBRANCH   1  15
TORSDOF 5
ENDMDL
MODEL 5
REMARK VINA RESULT:    -7.866      1.265      1.653
REMARK INTER + INTRA:         -10.866
REMARK INTER:                 -10.312
REMARK INTRA:                  -0.554
REMARK UNBOUND:                -0.701
REMARK  Name = 
REMARK  5 active torsions:
REMARK  status: ('A' for Active; 'I' for Inactive)
REMARK    1  A    between atoms: C_2  and  C_4
REMARK    2  A    between atoms: C_7  and  O_8
REMARK    3  A    between atoms: O_8  and  C_9
REMARK    4  A    between atoms: C_9  and  C_10
REMARK    5  A    between atoms: C_15  and  C_16
REMARK                            x       y       z     vdW  Elec       q    Type
REMARK                         _______ _______ _______ _____ _____    ______ ____
ROOT
ATOM      1  C   UNL     1      44.011   5.200  10.677  0.00  0.00    +0.000 C 
ENDROOT
BRANCH   1   2
ATOM      2  C   UNL     1      45.043   5.360  11.776  0.00  0.00    +0.000 A 
ATOM      3  C   UNL     1      45.073   4.425  12.819  0.00  0.00    +0.000 A 
ATOM      4  C   UNL     1      46.043   4.514  13.810  0.00  0.00    +0.000 A 
ATOM      5  C   UNL     1      46.993   5.531  13.761  0.00  0.00    +0.000 A 
ATOM      6  F   UNL     1      47.894   5.581  14.754  0.00  0.00    +0.000 F 
ATOM      7  C   UNL     1      47.020   6.481  12.725  0.00  0.00    +0.000 A 
ATOM      8  C   UNL     1      46.026   6.366  11.731  0.00  0.00    +0.000 A 
BRANCH   7   9
ATOM      9  C   UNL     1      48.039   7.546  12.675  0.00  0.00    +0.000 A 
ATOM     10  C   UNL     1      48.342   8.370  13.749  0.00  0.00    +0.000 A 
ATOM     11  N   UNL     1      49.257   9.366  13.732  0.00  0.00    +0.000 NA
ATOM     12  C   UNL     1      49.903   9.539  12.574  0.00  0.00    +0.000 A 
ATOM     13  N   UNL     1      49.726   8.811  11.463  0.00  0.00    +0.000 NA
ATOM     14  C   UNL     1      48.794   7.835  11.547  0.00  0.00    +0.000 A 
ENDBRANCH   7   9
ENDBRANCH   1   2
BRANCH   1  15
ATOM     15  O   UNL     1      43.840   3.825  10.319  0.00  0.00    +0.000 OA
BRANCH  15  19
ATOM     16  C   UNL     1      46.619   2.679   7.500  0.00  0.00    +0.000 A 
ATOM     17  C   UNL     1      46.247   4.021   7.597  0.00  0.00    +0.000 A 
ATOM     18  C   UNL     1      45.306   4.400   8.557  0.00  0.00    +0.000 A 
ATOM     19  C   UNL     1      44.775   3.421   9.386  0.00  0.00    +0.000 A 
ATOM     20  N   UNL     1      45.118   2.117   9.313  0.00  0.00    +0.000 NA
ATOM     21  C   UNL     1      46.023   1.773   8.367  0.00  0.00    +0.000 A 
BRANCH  16  23
ATOM     22  N   UNL     1      47.890   2.972   5.449  0.00  0.00    +0.000 N 
ATOM     23  C   UNL     1      47.584   2.165   6.507  0.00  0.00    +0.000 C 
ATOM     24  O   UNL     1      48.118   1.073   6.645  0.00  0.00    +0.000 OA
ATOM     25  H   UNL     1      48.633   2.647   4.842  0.00  0.00    +0.000 HD
ATOM     26  H   UNL     1      47.678   3.961   5.436  0.00  0.00    +0.000 HD
ENDBRANCH  16  23
ENDBRANCH  15  19
ENDBRANCH   1  15
TORSDOF 5
ENDMDL
MODEL 6
REMARK VINA RESULT:    -6.880      1.854      2.560
REMARK INTER + INTRA:          -9.592
REMARK INTER:                  -8.901
REMARK INTRA:                  -0.690
REMARK UNBOUND:                -0.701
REMARK  Name = 
REMARK  5 active torsions:
REMARK  status: ('A' for Active; 'I' for Inactive)
REMARK    1  A    between atoms: C_2  and  C_4
REMARK    2  A    between atoms: C_7  and  O_8
REMARK    3  A    between atoms: O_8  and  C_9
REMARK    4  A    between atoms: C_9  and  C_10
REMARK    5  A    between atoms: C_15  and  C_16
REMARK                            x       y       z     vdW  Elec       q    Type
REMARK                         _______ _______ _______ _____ _____    ______ ____
ROOT
ATOM      1  C   UNL     1      45.038   4.924  11.826  0.00  0.00    +0.000 C 
ENDROOT
BRANCH   1   2
ATOM      2  C   UNL     1      45.624   6.319  11.905  0.00  0.00    +0.000 A 
ATOM      3  C   UNL     1      44.763   7.423  11.845  0.00  0.00    +0.000 A 
ATOM      4  C   UNL     1      45.266   8.711  11.972  0.00  0.00    +0.000 A 
ATOM      5  C   UNL     1      46.631   8.906  12.167  0.00  0.00    +0.000 A 
ATOM      6  F   UNL     1      47.066  10.172  12.263  0.00  0.00    +0.000 F 
ATOM      7  C   UNL     1      47.536   7.833  12.257  0.00  0.00    +0.000 A 
ATOM      8  C   UNL     1      46.997   6.536  12.128  0.00  0.00    +0.000 A 
BRANCH   7   9
ATOM      9  C   UNL     1      48.977   8.050  12.479  0.00  0.00    +0.000 A 
ATOM     10  C   UNL     1      49.910   8.122  11.453  0.00  0.00    +0.000 A 
ATOM     11  N   UNL     1      51.239   8.303  11.622  0.00  0.00    +0.000 NA
ATOM     12  C   UNL     1      51.651   8.420  12.890  0.00  0.00    +0.000 A 
ATOM     13  N   UNL     1      50.865   8.385  13.974  0.00  0.00    +0.000 NA
ATOM     14  C   UNL     1      49.547   8.198  13.734  0.00  0.00    +0.000 A 
ENDBRANCH   7   9
ENDBRANCH   1   2
BRANCH   1  15
ATOM     15  O   UNL     1      44.222   4.768  10.660  0.00  0.00    +0.000 OA
BRANCH  15  19
ATOM     16  C   UNL     1      46.283   2.889   7.627  0.00  0.00    +0.000 A 
ATOM     17  C   UNL     1      45.608   2.124   8.582  0.00  0.00    +0.000 A 
ATOM     18  C   UNL     1      44.911   2.770   9.605  0.00  0.00    +0.000 A 
ATOM     19  C   UNL     1      44.912   4.158   9.632  0.00  0.00    +0.000 A 
ATOM     20  N   UNL     1      45.555   4.922   8.721  0.00  0.00    +0.000 NA
ATOM     21  C   UNL     1      46.233   4.272   7.747  0.00  0.00    +0.000 A 
BRANCH  16  23
ATOM     22  N   UNL     1      48.022   1.384   6.839  0.00  0.00    +0.000 N 
ATOM     23  C   UNL     1      47.070   2.310   6.520  0.00  0.00    +0.000 C 
ATOM     24  O   UNL     1      46.854   2.621   5.357  0.00  0.00    +0.000 OA
ATOM     25  H   UNL     1      48.472   0.922   6.058  0.00  0.00    +0.000 HD
ATOM     26  H   UNL     1      48.052   0.919   7.736  0.00  0.00    +0.000 HD
ENDBRANCH  16  23
ENDBRANCH  15  19
ENDBRANCH   1  15
TORSDOF 5
ENDMDL
MODEL 7
REMARK VINA RESULT:    -6.874      3.070      7.261
REMARK INTER + INTRA:          -9.584
REMARK INTER:                  -9.014
REMARK INTRA:                  -0.569
REMARK UNBOUND:                -0.701
REMARK  Name = 
REMARK  5 active torsions:
REMARK  status: ('A' for Active; 'I' for Inactive)
REMARK    1  A    between atoms: C_2  and  C_4
REMARK    2  A    between atoms: C_7  and  O_8
REMARK    3  A    between atoms: O_8  and  C_9
REMARK    4  A    between atoms: C_9  and  C_10
REMARK    5  A    between atoms: C_15  and  C_16
REMARK                            x       y       z     vdW  Elec       q    Type
REMARK                         _______ _______ _______ _____ _____    ______ ____
ROOT
ATOM      1  C   UNL     1      45.095   6.380  11.132  0.00  0.00    +0.000 C 
ENDROOT
BRANCH   1   2
ATOM      2  C   UNL     1      44.969   4.980  10.564  0.00  0.00    +0.000 A 
ATOM      3  C   UNL     1      44.049   4.094  11.140  0.00  0.00    +0.000 A 
ATOM      4  C   UNL     1      43.872   2.824  10.606  0.00  0.00    +0.000 A 
ATOM      5  C   UNL     1      44.606   2.434   9.488  0.00  0.00    +0.000 A 
ATOM      6  F   UNL     1      44.410   1.189   9.026  0.00  0.00    +0.000 F 
ATOM      7  C   UNL     1      45.525   3.291   8.859  0.00  0.00    +0.000 A 
ATOM      8  C   UNL     1      45.683   4.576   9.420  0.00  0.00    +0.000 A 
BRANCH   7   9
ATOM      9  C   UNL     1      46.286   2.873   7.667  0.00  0.00    +0.000 A 
ATOM     10  C   UNL     1      47.100   1.749   7.631  0.00  0.00    +0.000 A 
ATOM     11  N   UNL     1      47.825   1.347   6.562  0.00  0.00    +0.000 NA
ATOM     12  C   UNL     1      47.722   2.115   5.471  0.00  0.00    +0.000 A 
ATOM     13  N   UNL     1      46.966   3.215   5.358  0.00  0.00    +0.000 NA
ATOM     14  C   UNL     1      46.271   3.563   6.464  0.00  0.00    +0.000 A 
ENDBRANCH   7   9
ENDBRANCH   1   2
BRANCH   1  15
ATOM     15  O   UNL     1      45.440   6.349  12.520  0.00  0.00    +0.000 OA
BRANCH  15  19
ATOM     16  C   UNL     1      49.130   8.073  13.149  0.00  0.00    +0.000 A 
ATOM     17  C   UNL     1      48.284   8.589  12.164  0.00  0.00    +0.000 A 
ATOM     18  C   UNL     1      47.035   8.000  11.960  0.00  0.00    +0.000 A 
ATOM     19  C   UNL     1      46.677   6.916  12.752  0.00  0.00    +0.000 A 
ATOM     20  N   UNL     1      47.475   6.398  13.711  0.00  0.00    +0.000 NA
ATOM     21  C   UNL     1      48.685   6.980  13.881  0.00  0.00    +0.000 A 
BRANCH  16  23
ATOM     22  N   UNL     1      51.419   7.724  13.888  0.00  0.00    +0.000 N 
ATOM     23  C   UNL     1      50.479   8.603  13.431  0.00  0.00    +0.000 C 
ATOM     24  O   UNL     1      50.755   9.777  13.229  0.00  0.00    +0.000 OA
ATOM     25  H   UNL     1      52.362   8.085  13.970  0.00  0.00    +0.000 HD
ATOM     26  H   UNL     1      51.308   6.722  13.820  0.00  0.00    +0.000 HD
ENDBRANCH  16  23
ENDBRANCH  15  19
ENDBRANCH   1  15
TORSDOF 5
ENDMDL
MODEL 8
REMARK VINA RESULT:    -6.853      5.581      7.998
REMARK INTER + INTRA:          -9.557
REMARK INTER:                  -8.803
REMARK INTRA:                  -0.754
REMARK UNBOUND:                -0.701
REMARK  Name = 
REMARK  5 active torsions:
REMARK  status: ('A' for Active; 'I' for Inactive)
REMARK    1  A    between atoms: C_2  and  C_4
REMARK    2  A    between atoms: C_7  and  O_8
REMARK    3  A    between atoms: O_8  and  C_9
REMARK    4  A    between atoms: C_9  and  C_10
REMARK    5  A    between atoms: C_15  and  C_16
REMARK                            x       y       z     vdW  Elec       q    Type
REMARK                         _______ _______ _______ _____ _____    ______ ____
ROOT
ATOM      1  C   UNL     1      49.359   6.693  16.224  0.00  0.00    +0.000 C 
ENDROOT
BRANCH   1   2
ATOM      2  C   UNL     1      48.719   6.673  14.850  0.00  0.00    +0.000 A 
ATOM      3  C   UNL     1      49.382   7.295  13.783  0.00  0.00    +0.000 A 
ATOM      4  C   UNL     1      48.846   7.245  12.502  0.00  0.00    +0.000 A 
ATOM      5  C   UNL     1      47.650   6.568  12.278  0.00  0.00    +0.000 A 
ATOM      6  F   UNL     1      47.168   6.569  11.025  0.00  0.00    +0.000 F 
ATOM      7  C   UNL     1      46.957   5.909  13.308  0.00  0.00    +0.000 A 
ATOM      8  C   UNL     1      47.524   5.974  14.598  0.00  0.00    +0.000 A 
BRANCH   7   9
ATOM      9  C   UNL     1      45.698   5.183  13.055  0.00  0.00    +0.000 A 
ATOM     10  C   UNL     1      45.630   3.812  12.853  0.00  0.00    +0.000 A 
ATOM     11  N   UNL     1      44.497   3.118  12.602  0.00  0.00    +0.000 NA
ATOM     12  C   UNL     1      43.373   3.843  12.555  0.00  0.00    +0.000 A 
ATOM     13  N   UNL     1      43.287   5.166  12.745  0.00  0.00    +0.000 NA
ATOM     14  C   UNL     1      44.457   5.799  12.988  0.00  0.00    +0.000 A 
ENDBRANCH   7   9
ENDBRANCH   1   2
BRANCH   1  15
ATOM     15  O   UNL     1      48.780   5.704  17.082  0.00  0.00    +0.000 OA
BRANCH  15  19
ATOM     16  C   UNL     1      51.306   2.478  17.526  0.00  0.00    +0.000 A 
ATOM     17  C   UNL     1      51.758   3.760  17.850  0.00  0.00    +0.000 A 
ATOM     18  C   UNL     1      50.894   4.846  17.698  0.00  0.00    +0.000 A 
ATOM     19  C   UNL     1      49.609   4.609  17.230  0.00  0.00    +0.000 A 
ATOM     20  N   UNL     1      49.146   3.381  16.910  0.00  0.00    +0.000 NA
ATOM     21  C   UNL     1      50.007   2.346  17.054  0.00  0.00    +0.000 A 
BRANCH  16  23
ATOM     22  N   UNL     1      51.578   0.154  18.181  0.00  0.00    +0.000 N 
ATOM     23  C   UNL     1      52.142   1.265  17.624  0.00  0.00    +0.000 C 
ATOM     24  O   UNL     1      53.286   1.245  17.191  0.00  0.00    +0.000 OA
ATOM     25  H   UNL     1      52.130  -0.694  18.139  0.00  0.00    +0.000 HD
ATOM     26  H   UNL     1      50.580   0.053  18.309  0.00  0.00    +0.000 HD
ENDBRANCH  16  23
ENDBRANCH  15  19
ENDBRANCH   1  15
TORSDOF 5
ENDMDL
MODEL 9
REMARK VINA RESULT:    -6.425      4.609      8.135
REMARK INTER + INTRA:          -9.004
REMARK INTER:                  -8.259
REMARK INTRA:                  -0.745
REMARK UNBOUND:                -0.701
REMARK  Name = 
REMARK  5 active torsions:
REMARK  status: ('A' for Active; 'I' for Inactive)
REMARK    1  A    between atoms: C_2  and  C_4
REMARK    2  A    between atoms: C_7  and  O_8
REMARK    3  A    between atoms: O_8  and  C_9
REMARK    4  A    between atoms: C_9  and  C_10
REMARK    5  A    between atoms: C_15  and  C_16
REMARK                            x       y       z     vdW  Elec       q    Type
REMARK                         _______ _______ _______ _____ _____    ______ ____
ROOT
ATOM      1  C   UNL     1      48.554   7.591  13.914  0.00  0.00    +0.000 C 
ENDROOT
BRANCH   1   2
ATOM      2  C   UNL     1      47.235   7.580  13.168  0.00  0.00    +0.000 A 
ATOM      3  C   UNL     1      46.419   8.718  13.215  0.00  0.00    +0.000 A 
ATOM      4  C   UNL     1      45.231   8.758  12.495  0.00  0.00    +0.000 A 
ATOM      5  C   UNL     1      44.855   7.666  11.718  0.00  0.00    +0.000 A 
ATOM      6  F   UNL     1      43.689   7.751  11.059  0.00  0.00    +0.000 F 
ATOM      7  C   UNL     1      45.648   6.509  11.618  0.00  0.00    +0.000 A 
ATOM      8  C   UNL     1      46.849   6.496  12.357  0.00  0.00    +0.000 A 
BRANCH   7   9
ATOM      9  C   UNL     1      45.246   5.364  10.780  0.00  0.00    +0.000 A 
ATOM     10  C   UNL     1      44.460   4.315  11.238  0.00  0.00    +0.000 A 
ATOM     11  N   UNL     1      44.089   3.243  10.502  0.00  0.00    +0.000 NA
ATOM     12  C   UNL     1      44.530   3.227   9.239  0.00  0.00    +0.000 A 
ATOM     13  N   UNL     1      45.281   4.173   8.660  0.00  0.00    +0.000 NA
ATOM     14  C   UNL     1      45.619   5.216   9.453  0.00  0.00    +0.000 A 
ENDBRANCH   7   9
ENDBRANCH   1   2
BRANCH   1  15
ATOM     15  O   UNL     1      48.956   6.266  14.278  0.00  0.00    +0.000 OA
BRANCH  15  19
ATOM     16  C   UNL     1      48.282   5.546  18.279  0.00  0.00    +0.000 A 
ATOM     17  C   UNL     1      48.909   6.731  17.886  0.00  0.00    +0.000 A 
ATOM     18  C   UNL     1      49.131   6.967  16.528  0.00  0.00    +0.000 A 
ATOM     19  C   UNL     1      48.715   6.009  15.614  0.00  0.00    +0.000 A 
ATOM     20  N   UNL     1      48.106   4.856  15.966  0.00  0.00    +0.000 NA
ATOM     21  C   UNL     1      47.912   4.645  17.289  0.00  0.00    +0.000 A 
BRANCH  16  23
ATOM     22  N   UNL     1      48.549   4.012  20.146  0.00  0.00    +0.000 N 
ATOM     23  C   UNL     1      48.021   5.185  19.687  0.00  0.00    +0.000 C 
ATOM     24  O   UNL     1      47.386   5.925  20.426  0.00  0.00    +0.000 OA
ATOM     25  H   UNL     1      48.450   3.838  21.139  0.00  0.00    +0.000 HD
ATOM     26  H   UNL     1      49.279   3.513  19.656  0.00  0.00    +0.000 HD
ENDBRANCH  16  23
ENDBRANCH  15  19
ENDBRANCH   1  15
TORSDOF 5
ENDMDL
