MODEL 1
REMARK VINA RESULT:    -8.096      0.000      0.000
REMARK INTER + INTRA:         -10.838
REMARK INTER:                 -10.462
REMARK INTRA:                  -0.376
REMARK UNBOUND:                -0.376
REMARK  Name = 
REMARK  6 active torsions:
REMARK  status: ('A' for Active; 'I' for Inactive)
REMARK    1  A    between atoms: C_1  and  N_2
REMARK    2  A    between atoms: C_3  and  C_5
REMARK    3  A    between atoms: C_8  and  O_9
REMARK    4  A    between atoms: O_9  and  C_10
REMARK    5  A    between atoms: C_10  and  C_11
REMARK    6  A    between atoms: C_15  and  C_16
REMARK                            x       y       z     vdW  Elec       q    Type
REMARK                         _______ _______ _______ _____ _____    ______ ____
ROOT
ATOM      1  O   UNL     1      43.613   4.145  11.435  0.00  0.00    +0.000 OA
ENDROOT
BRANCH   1   5
ATOM      2  C   UNL     1      46.853   5.697  13.551  0.00  0.00    +0.000 A 
ATOM      3  C   UNL     1      45.939   6.534  12.900  0.00  0.00    +0.000 A 
ATOM      4  C   UNL     1      44.842   5.978  12.229  0.00  0.00    +0.000 A 
ATOM      5  C   UNL     1      44.662   4.592  12.194  0.00  0.00    +0.000 A 
ATOM      6  C   UNL     1      45.544   3.766  12.894  0.00  0.00    +0.000 A 
ATOM      7  C   UNL     1      46.645   4.315  13.552  0.00  0.00    +0.000 A 
BRANCH   2  10
ATOM      8  C   UNL     1      49.268   6.691  16.284  0.00  0.00    +0.000 C 
ATOM      9  N   UNL     1      48.093   6.247  15.582  0.00  0.00    +0.000 N 
ATOM     10  C   UNL     1      48.087   6.208  14.204  0.00  0.00    +0.000 C 
ATOM     11  O   UNL     1      49.044   6.551  13.518  0.00  0.00    +0.000 OA
ATOM     12  H   UNL     1      47.358   5.788  16.103  0.00  0.00    +0.000 HD
ENDBRANCH   2  10
ENDBRANCH   1   5
BRANCH   1  13
ATOM     13  C   UNL     1      43.840   2.889  10.791  0.00  0.00    +0.000 C 
BRANCH  13  14
ATOM     14  C   UNL     1      44.704   3.083   9.578  0.00  0.00    +0.000 A 
ATOM     15  C   UNL     1      44.850   4.341   9.008  0.00  0.00    +0.000 A 
ATOM     16  N   UNL     1      45.638   4.603   7.942  0.00  0.00    +0.000 NA
ATOM     17  C   UNL     1      46.313   3.560   7.411  0.00  0.00    +0.000 A 
ATOM     18  C   UNL     1      46.236   2.262   7.891  0.00  0.00    +0.000 A 
ATOM     19  C   UNL     1      45.412   2.025   8.997  0.00  0.00    +0.000 A 
BRANCH  18  20
ATOM     20  C   UNL     1      47.021   1.162   7.247  0.00  0.00    +0.000 C 
ATOM     21  F   UNL     1      48.369   1.343   7.311  0.00  0.00    +0.000 F 
ATOM     22  F   UNL     1      46.782  -0.051   7.820  0.00  0.00    +0.000 F 
ATOM     23  F   UNL     1      46.727   1.014   5.927  0.00  0.00    +0.000 F 
ENDBRANCH  18  20
ENDBRANCH  13  14
ENDBRANCH   1  13
TORSDOF 5
ENDMDL
MODEL 2
REMARK VINA RESULT:    -7.820      1.338      1.845
REMARK INTER + INTRA:         -10.481
REMARK INTER:                  -9.778
REMARK INTRA:                  -0.704
REMARK UNBOUND:                -0.376
REMARK  Name = 
REMARK  6 active torsions:
REMARK  status: ('A' for Active; 'I' for Inactive)
REMARK    1  A    between atoms: C_1  and  N_2
REMARK    2  A    between atoms: C_3  and  C_5
REMARK    3  A    between atoms: C_8  and  O_9
REMARK    4  A    between atoms: O_9  and  C_10
REMARK    5  A    between atoms: C_10  and  C_11
REMARK    6  A    between atoms: C_15  and  C_16
REMARK                            x       y       z     vdW  Elec       q    Type
REMARK                         _______ _______ _______ _____ _____    ______ ____
ROOT
ATOM      1  O   UNL     1      43.801   4.298  10.565  0.00  0.00    +0.000 OA
ENDROOT
BRANCH   1   5
ATOM      2  C   UNL     1      46.813   5.707  13.082  0.00  0.00    +0.000 A 
ATOM      3  C   UNL     1      46.302   6.495  12.043  0.00  0.00    +0.000 A 
ATOM      4  C   UNL     1      45.265   6.002  11.240  0.00  0.00    +0.000 A 
ATOM      5  C   UNL     1      44.747   4.723  11.462  0.00  0.00    +0.000 A 
ATOM      6  C   UNL     1      45.220   3.965  12.534  0.00  0.00    +0.000 A 
ATOM      7  C   UNL     1      46.261   4.447  13.327  0.00  0.00    +0.000 A 
BRANCH   2  10
ATOM      8  C   UNL     1      48.922   6.369  16.148  0.00  0.00    +0.000 C 
ATOM      9  N   UNL     1      47.827   6.020  15.280  0.00  0.00    +0.000 N 
ATOM     10  C   UNL     1      47.971   6.126  13.913  0.00  0.00    +0.000 C 
ATOM     11  O   UNL     1      48.999   6.522  13.374  0.00  0.00    +0.000 OA
ATOM     12  H   UNL     1      47.038   5.523  15.667  0.00  0.00    +0.000 HD
ENDBRANCH   2  10
ENDBRANCH   1   5
BRANCH   1  13
ATOM     13  C   UNL     1      44.148   4.506   9.194  0.00  0.00    +0.000 C 
BRANCH  13  14
ATOM     14  C   UNL     1      44.970   3.354   8.693  0.00  0.00    +0.000 A 
ATOM     15  C   UNL     1      44.767   2.071   9.188  0.00  0.00    +0.000 A 
ATOM     16  N   UNL     1      45.438   0.980   8.762  0.00  0.00    +0.000 NA
ATOM     17  C   UNL     1      46.363   1.170   7.795  0.00  0.00    +0.000 A 
ATOM     18  C   UNL     1      46.655   2.404   7.235  0.00  0.00    +0.000 A 
ATOM     19  C   UNL     1      45.941   3.514   7.698  0.00  0.00    +0.000 A 
BRANCH  18  20
ATOM     20  C   UNL     1      47.692   2.529   6.163  0.00  0.00    +0.000 C 
ATOM     21  F   UNL     1      48.106   1.333   5.660  0.00  0.00    +0.000 F 
ATOM     22  F   UNL     1      47.251   3.249   5.093  0.00  0.00    +0.000 F 
ATOM     23  F   UNL     1      48.818   3.160   6.597  0.00  0.00    +0.000 F 
ENDBRANCH  18  20
ENDBRANCH  13  14
ENDBRANCH   1  13
TORSDOF 5
ENDMDL
MODEL 3
REMARK VINA RESULT:    -7.743      1.380      2.066
REMARK INTER + INTRA:         -10.382
REMARK INTER:                  -9.703
REMARK INTRA:                  -0.679
REMARK UNBOUND:                -0.376
REMARK  Name = 
REMARK  6 active torsions:
REMARK  status: ('A' for Active; 'I' for Inactive)
REMARK    1  A    between atoms: C_1  and  N_2
REMARK    2  A    between atoms: C_3  and  C_5
REMARK    3  A    between atoms: C_8  and  O_9
REMARK    4  A    between atoms: O_9  and  C_10
REMARK    5  A    between atoms: C_10  and  C_11
REMARK    6  A    between atoms: C_15  and  C_16
REMARK                            x       y       z     vdW  Elec       q    Type
REMARK                         _______ _______ _______ _____ _____    ______ ____
ROOT
ATOM      1  O   UNL     1      43.901   4.356  10.594  0.00  0.00    +0.000 OA
ENDROOT
BRANCH   1   5
ATOM      2  C   UNL     1      46.920   5.418  13.267  0.00  0.00    +0.000 A 
ATOM      3  C   UNL     1      46.171   4.248  13.440  0.00  0.00    +0.000 A 
ATOM      4  C   UNL     1      45.189   3.905  12.502  0.00  0.00    +0.000 A 
ATOM      5  C   UNL     1      44.943   4.731  11.401  0.00  0.00    +0.000 A 
ATOM      6  C   UNL     1      45.732   5.865  11.202  0.00  0.00    +0.000 A 
ATOM      7  C   UNL     1      46.702   6.217  12.140  0.00  0.00    +0.000 A 
BRANCH   2  10
ATOM      8  C   UNL     1      48.682   5.859  16.581  0.00  0.00    +0.000 C 
ATOM      9  N   UNL     1      47.736   5.473  15.567  0.00  0.00    +0.000 N 
ATOM     10  C   UNL     1      47.913   5.892  14.266  0.00  0.00    +0.000 C 
ATOM     11  O   UNL     1      48.845   6.605  13.910  0.00  0.00    +0.000 OA
ATOM     12  H   UNL     1      47.066   4.747  15.776  0.00  0.00    +0.000 HD
ENDBRANCH   2  10
ENDBRANCH   1   5
BRANCH   1  13
ATOM     13  C   UNL     1      44.150   4.506   9.194  0.00  0.00    +0.000 C 
BRANCH  13  14
ATOM     14  C   UNL     1      44.970   3.352   8.693  0.00  0.00    +0.000 A 
ATOM     15  C   UNL     1      44.757   2.068   9.181  0.00  0.00    +0.000 A 
ATOM     16  N   UNL     1      45.425   0.975   8.753  0.00  0.00    +0.000 NA
ATOM     17  C   UNL     1      46.356   1.165   7.794  0.00  0.00    +0.000 A 
ATOM     18  C   UNL     1      46.658   2.400   7.241  0.00  0.00    +0.000 A 
ATOM     19  C   UNL     1      45.947   3.512   7.705  0.00  0.00    +0.000 A 
BRANCH  18  20
ATOM     20  C   UNL     1      47.704   2.526   6.177  0.00  0.00    +0.000 C 
ATOM     21  F   UNL     1      47.295   3.237   5.090  0.00  0.00    +0.000 F 
ATOM     22  F   UNL     1      48.830   3.147   6.624  0.00  0.00    +0.000 F 
ATOM     23  F   UNL     1      48.111   1.318   5.699  0.00  0.00    +0.000 F 
ENDBRANCH  18  20
ENDBRANCH  13  14
ENDBRANCH   1  13
TORSDOF 5
ENDMDL
MODEL 4
REMARK VINA RESULT:    -7.581      4.012      7.125
REMARK INTER + INTRA:         -10.173
REMARK INTER:                  -9.328
REMARK INTRA:                  -0.845
REMARK UNBOUND:                -0.376
REMARK  Name = 
REMARK  6 active torsions:
REMARK  status: ('A' for Active; 'I' for Inactive)
REMARK    1  A    between atoms: C_1  and  N_2
REMARK    2  A    between atoms: C_3  and  C_5
REMARK    3  A    between atoms: C_8  and  O_9
REMARK    4  A    between atoms: O_9  and  C_10
REMARK    5  A    between atoms: C_10  and  C_11
REMARK    6  A    between atoms: C_15  and  C_16
REMARK                            x       y       z     vdW  Elec       q    Type
REMARK                         _______ _______ _______ _____ _____    ______ ____
ROOT
ATOM      1  O   UNL     1      43.408   4.431  11.275  0.00  0.00    +0.000 OA
ENDROOT
BRANCH   1   5
ATOM      2  C   UNL     1      45.748   2.765   8.253  0.00  0.00    +0.000 A 
ATOM      3  C   UNL     1      44.998   1.963   9.122  0.00  0.00    +0.000 A 
ATOM      4  C   UNL     1      44.196   2.559  10.102  0.00  0.00    +0.000 A 
ATOM      5  C   UNL     1      44.149   3.950  10.227  0.00  0.00    +0.000 A 
ATOM      6  C   UNL     1      44.852   4.747   9.321  0.00  0.00    +0.000 A 
ATOM      7  C   UNL     1      45.662   4.157   8.352  0.00  0.00    +0.000 A 
BRANCH   2  10
ATOM      8  C   UNL     1      47.927   2.533   5.173  0.00  0.00    +0.000 C 
ATOM      9  N   UNL     1      46.991   2.995   6.164  0.00  0.00    +0.000 N 
ATOM     10  C   UNL     1      46.690   2.202   7.250  0.00  0.00    +0.000 C 
ATOM     11  O   UNL     1      47.174   1.089   7.425  0.00  0.00    +0.000 OA
ATOM     12  H   UNL     1      46.712   3.967   6.156  0.00  0.00    +0.000 HD
ENDBRANCH   2  10
ENDBRANCH   1   5
BRANCH   1  13
ATOM     13  C   UNL     1      43.873   4.026  12.565  0.00  0.00    +0.000 C 
BRANCH  13  14
ATOM     14  C   UNL     1      45.128   4.771  12.916  0.00  0.00    +0.000 A 
ATOM     15  C   UNL     1      46.280   4.085  13.281  0.00  0.00    +0.000 A 
ATOM     16  N   UNL     1      47.456   4.680  13.573  0.00  0.00    +0.000 NA
ATOM     17  C   UNL     1      47.492   6.029  13.503  0.00  0.00    +0.000 A 
ATOM     18  C   UNL     1      46.404   6.816  13.159  0.00  0.00    +0.000 A 
ATOM     19  C   UNL     1      45.200   6.167  12.861  0.00  0.00    +0.000 A 
BRANCH  18  20
ATOM     20  C   UNL     1      46.527   8.307  13.100  0.00  0.00    +0.000 C 
ATOM     21  F   UNL     1      47.055   8.857  14.228  0.00  0.00    +0.000 F 
ATOM     22  F   UNL     1      47.324   8.723  12.076  0.00  0.00    +0.000 F 
ATOM     23  F   UNL     1      45.328   8.923  12.911  0.00  0.00    +0.000 F 
ENDBRANCH  18  20
ENDBRANCH  13  14
ENDBRANCH   1  13
TORSDOF 5
ENDMDL
MODEL 5
REMARK VINA RESULT:    -7.392      2.019      2.706
REMARK INTER + INTRA:          -9.929
REMARK INTER:                  -9.079
REMARK INTRA:                  -0.850
REMARK UNBOUND:                -0.376
REMARK  Name = 
REMARK  6 active torsions:
REMARK  status: ('A' for Active; 'I' for Inactive)
REMARK    1  A    between atoms: C_1  and  N_2
REMARK    2  A    between atoms: C_3  and  C_5
REMARK    3  A    between atoms: C_8  and  O_9
REMARK    4  A    between atoms: O_9  and  C_10
REMARK    5  A    between atoms: C_10  and  C_11
REMARK    6  A    between atoms: C_15  and  C_16
REMARK                            x       y       z     vdW  Elec       q    Type
REMARK                         _______ _______ _______ _____ _____    ______ ____
ROOT
ATOM      1  O   UNL     1      43.795   5.784  12.690  0.00  0.00    +0.000 OA
ENDROOT
BRANCH   1   5
ATOM      2  C   UNL     1      47.778   6.708  13.511  0.00  0.00    +0.000 A 
ATOM      3  C   UNL     1      47.242   5.452  13.818  0.00  0.00    +0.000 A 
ATOM      4  C   UNL     1      45.910   5.165  13.495  0.00  0.00    +0.000 A 
ATOM      5  C   UNL     1      45.108   6.130  12.880  0.00  0.00    +0.000 A 
ATOM      6  C   UNL     1      45.663   7.360  12.523  0.00  0.00    +0.000 A 
ATOM      7  C   UNL     1      46.985   7.654  12.854  0.00  0.00    +0.000 A 
BRANCH   2  10
ATOM      8  C   UNL     1      51.127   8.456  13.402  0.00  0.00    +0.000 C 
ATOM      9  N   UNL     1      49.809   7.987  13.064  0.00  0.00    +0.000 N 
ATOM     10  C   UNL     1      49.152   7.114  13.905  0.00  0.00    +0.000 C 
ATOM     11  O   UNL     1      49.639   6.690  14.947  0.00  0.00    +0.000 OA
ATOM     12  H   UNL     1      49.305   8.446  12.319  0.00  0.00    +0.000 HD
ENDBRANCH   2  10
ENDBRANCH   1   5
BRANCH   1  13
ATOM     13  C   UNL     1      43.372   5.786  11.325  0.00  0.00    +0.000 C 
BRANCH  13  14
ATOM     14  C   UNL     1      43.874   4.552  10.631  0.00  0.00    +0.000 A 
ATOM     15  C   UNL     1      43.436   3.293  11.023  0.00  0.00    +0.000 A 
ATOM     16  N   UNL     1      43.811   2.141  10.425  0.00  0.00    +0.000 NA
ATOM     17  C   UNL     1      44.668   2.243   9.386  0.00  0.00    +0.000 A 
ATOM     18  C   UNL     1      45.176   3.444   8.916  0.00  0.00    +0.000 A 
ATOM     19  C   UNL     1      44.766   4.619   9.556  0.00  0.00    +0.000 A 
BRANCH  18  20
ATOM     20  C   UNL     1      46.120   3.472   7.754  0.00  0.00    +0.000 C 
ATOM     21  F   UNL     1      46.852   4.617   7.672  0.00  0.00    +0.000 F 
ATOM     22  F   UNL     1      47.025   2.455   7.795  0.00  0.00    +0.000 F 
ATOM     23  F   UNL     1      45.480   3.352   6.558  0.00  0.00    +0.000 F 
ENDBRANCH  18  20
ENDBRANCH  13  14
ENDBRANCH   1  13
TORSDOF 5
ENDMDL
MODEL 6
REMARK VINA RESULT:    -7.244      2.470      3.093
REMARK INTER + INTRA:          -9.737
REMARK INTER:                  -8.856
REMARK INTRA:                  -0.881
REMARK UNBOUND:                -0.376
REMARK  Name = 
REMARK  6 active torsions:
REMARK  status: ('A' for Active; 'I' for Inactive)
REMARK    1  A    between atoms: C_1  and  N_2
REMARK    2  A    between atoms: C_3  and  C_5
REMARK    3  A    between atoms: C_8  and  O_9
REMARK    4  A    between atoms: O_9  and  C_10
REMARK    5  A    between atoms: C_10  and  C_11
REMARK    6  A    between atoms: C_15  and  C_16
REMARK                            x       y       z     vdW  Elec       q    Type
REMARK                         _______ _______ _______ _____ _____    ______ ____
ROOT
ATOM      1  O   UNL     1      44.616   5.920  12.656  0.00  0.00    +0.000 OA
ENDROOT
BRANCH   1   5
ATOM      2  C   UNL     1      48.408   7.643  12.466  0.00  0.00    +0.000 A 
ATOM      3  C   UNL     1      47.261   8.364  12.115  0.00  0.00    +0.000 A 
ATOM      4  C   UNL     1      46.000   7.764  12.226  0.00  0.00    +0.000 A 
ATOM      5  C   UNL     1      45.882   6.445  12.673  0.00  0.00    +0.000 A 
ATOM      6  C   UNL     1      47.024   5.750  13.077  0.00  0.00    +0.000 A 
ATOM      7  C   UNL     1      48.281   6.340  12.956  0.00  0.00    +0.000 A 
BRANCH   2  10
ATOM      8  C   UNL     1      51.940   7.992  11.165  0.00  0.00    +0.000 C 
ATOM      9  N   UNL     1      50.609   7.505  11.418  0.00  0.00    +0.000 N 
ATOM     10  C   UNL     1      49.782   8.182  12.289  0.00  0.00    +0.000 C 
ATOM     11  O   UNL     1      50.123   9.195  12.889  0.00  0.00    +0.000 OA
ATOM     12  H   UNL     1      50.229   6.789  10.815  0.00  0.00    +0.000 HD
ENDBRANCH   2  10
ENDBRANCH   1   5
BRANCH   1  13
ATOM     13  C   UNL     1      43.977   5.950  11.378  0.00  0.00    +0.000 C 
BRANCH  13  14
ATOM     14  C   UNL     1      44.277   4.686  10.624  0.00  0.00    +0.000 A 
ATOM     15  C   UNL     1      43.671   3.488  10.984  0.00  0.00    +0.000 A 
ATOM     16  N   UNL     1      43.859   2.320  10.334  0.00  0.00    +0.000 NA
ATOM     17  C   UNL     1      44.695   2.339   9.273  0.00  0.00    +0.000 A 
ATOM     18  C   UNL     1      45.360   3.472   8.831  0.00  0.00    +0.000 A 
ATOM     19  C   UNL     1      45.142   4.667   9.526  0.00  0.00    +0.000 A 
BRANCH  18  20
ATOM     20  C   UNL     1      46.268   3.410   7.642  0.00  0.00    +0.000 C 
ATOM     21  F   UNL     1      47.154   2.376   7.684  0.00  0.00    +0.000 F 
ATOM     22  F   UNL     1      45.585   3.266   6.472  0.00  0.00    +0.000 F 
ATOM     23  F   UNL     1      47.018   4.537   7.498  0.00  0.00    +0.000 F 
ENDBRANCH  18  20
ENDBRANCH  13  14
ENDBRANCH   1  13
TORSDOF 5
ENDMDL
MODEL 7
REMARK VINA RESULT:    -7.079      1.689      2.439
REMARK INTER + INTRA:          -9.524
REMARK INTER:                  -9.109
REMARK INTRA:                  -0.415
REMARK UNBOUND:                -0.376
REMARK  Name = 
REMARK  6 active torsions:
REMARK  status: ('A' for Active; 'I' for Inactive)
REMARK    1  A    between atoms: C_1  and  N_2
REMARK    2  A    between atoms: C_3  and  C_5
REMARK    3  A    between atoms: C_8  and  O_9
REMARK    4  A    between atoms: O_9  and  C_10
REMARK    5  A    between atoms: C_10  and  C_11
REMARK    6  A    between atoms: C_15  and  C_16
REMARK                            x       y       z     vdW  Elec       q    Type
REMARK                         _______ _______ _______ _____ _____    ______ ____
ROOT
ATOM      1  O   UNL     1      45.269   6.618  11.003  0.00  0.00    +0.000 OA
ENDROOT
BRANCH   1   5
ATOM      2  C   UNL     1      47.925   6.361  14.208  0.00  0.00    +0.000 A 
ATOM      3  C   UNL     1      46.927   5.400  14.008  0.00  0.00    +0.000 A 
ATOM      4  C   UNL     1      46.075   5.499  12.901  0.00  0.00    +0.000 A 
ATOM      5  C   UNL     1      46.208   6.560  12.000  0.00  0.00    +0.000 A 
ATOM      6  C   UNL     1      47.241   7.483  12.171  0.00  0.00    +0.000 A 
ATOM      7  C   UNL     1      48.082   7.395  13.280  0.00  0.00    +0.000 A 
BRANCH   2  10
ATOM      8  C   UNL     1      49.027   5.952  17.800  0.00  0.00    +0.000 C 
ATOM      9  N   UNL     1      48.228   6.005  16.604  0.00  0.00    +0.000 N 
ATOM     10  C   UNL     1      48.803   6.372  15.406  0.00  0.00    +0.000 C 
ATOM     11  O   UNL     1      49.985   6.677  15.294  0.00  0.00    +0.000 OA
ATOM     12  H   UNL     1      47.306   5.590  16.615  0.00  0.00    +0.000 HD
ENDBRANCH   2  10
ENDBRANCH   1   5
BRANCH   1  13
ATOM     13  C   UNL     1      44.192   5.689  11.148  0.00  0.00    +0.000 C 
BRANCH  13  14
ATOM     14  C   UNL     1      44.472   4.450  10.348  0.00  0.00    +0.000 A 
ATOM     15  C   UNL     1      43.834   3.253  10.651  0.00  0.00    +0.000 A 
ATOM     16  N   UNL     1      44.004   2.107   9.956  0.00  0.00    +0.000 NA
ATOM     17  C   UNL     1      44.855   2.149   8.908  0.00  0.00    +0.000 A 
ATOM     18  C   UNL     1      45.552   3.283   8.521  0.00  0.00    +0.000 A 
ATOM     19  C   UNL     1      45.352   4.454   9.261  0.00  0.00    +0.000 A 
BRANCH  18  20
ATOM     20  C   UNL     1      46.475   3.248   7.343  0.00  0.00    +0.000 C 
ATOM     21  F   UNL     1      47.188   4.396   7.172  0.00  0.00    +0.000 F 
ATOM     22  F   UNL     1      47.397   2.249   7.434  0.00  0.00    +0.000 F 
ATOM     23  F   UNL     1      45.817   3.040   6.170  0.00  0.00    +0.000 F 
ENDBRANCH  18  20
ENDBRANCH  13  14
ENDBRANCH   1  13
TORSDOF 5
ENDMDL
MODEL 8
REMARK VINA RESULT:    -6.891      1.864      2.425
REMARK INTER + INTRA:          -9.281
REMARK INTER:                  -8.649
REMARK INTRA:                  -0.632
REMARK UNBOUND:                -0.376
REMARK  Name = 
REMARK  6 active torsions:
REMARK  status: ('A' for Active; 'I' for Inactive)
REMARK    1  A    between atoms: C_1  and  N_2
REMARK    2  A    between atoms: C_3  and  C_5
REMARK    3  A    between atoms: C_8  and  O_9
REMARK    4  A    between atoms: O_9  and  C_10
REMARK    5  A    between atoms: C_10  and  C_11
REMARK    6  A    between atoms: C_15  and  C_16
REMARK                            x       y       z     vdW  Elec       q    Type
REMARK                         _______ _______ _______ _____ _____    ______ ____
ROOT
ATOM      1  O   UNL     1      45.422   6.510  10.929  0.00  0.00    +0.000 OA
ENDROOT
BRANCH   1   5
ATOM      2  C   UNL     1      48.237   6.786  13.992  0.00  0.00    +0.000 A 
ATOM      3  C   UNL     1      48.179   7.738  12.967  0.00  0.00    +0.000 A 
ATOM      4  C   UNL     1      47.196   7.633  11.975  0.00  0.00    +0.000 A 
ATOM      5  C   UNL     1      46.282   6.576  11.994  0.00  0.00    +0.000 A 
ATOM      6  C   UNL     1      46.308   5.662  13.050  0.00  0.00    +0.000 A 
ATOM      7  C   UNL     1      47.293   5.756  14.032  0.00  0.00    +0.000 A 
BRANCH   2  10
ATOM      8  C   UNL     1      51.591   7.389  15.627  0.00  0.00    +0.000 C 
ATOM      9  N   UNL     1      50.522   7.322  14.666  0.00  0.00    +0.000 N 
ATOM     10  C   UNL     1      49.306   6.781  15.025  0.00  0.00    +0.000 C 
ATOM     11  O   UNL     1      49.074   6.329  16.141  0.00  0.00    +0.000 OA
ATOM     12  H   UNL     1      50.609   7.841  13.804  0.00  0.00    +0.000 HD
ENDBRANCH   2  10
ENDBRANCH   1   5
BRANCH   1  13
ATOM     13  C   UNL     1      44.353   5.574  11.086  0.00  0.00    +0.000 C 
BRANCH  13  14
ATOM     14  C   UNL     1      44.610   4.357  10.244  0.00  0.00    +0.000 A 
ATOM     15  C   UNL     1      43.945   3.164  10.504  0.00  0.00    +0.000 A 
ATOM     16  N   UNL     1      44.093   2.040   9.770  0.00  0.00    +0.000 NA
ATOM     17  C   UNL     1      44.948   2.100   8.726  0.00  0.00    +0.000 A 
ATOM     18  C   UNL     1      45.670   3.232   8.380  0.00  0.00    +0.000 A 
ATOM     19  C   UNL     1      45.493   4.380   9.160  0.00  0.00    +0.000 A 
BRANCH  18  20
ATOM     20  C   UNL     1      46.595   3.218   7.203  0.00  0.00    +0.000 C 
ATOM     21  F   UNL     1      47.226   4.406   6.989  0.00  0.00    +0.000 F 
ATOM     22  F   UNL     1      47.585   2.290   7.331  0.00  0.00    +0.000 F 
ATOM     23  F   UNL     1      45.956   2.920   6.039  0.00  0.00    +0.000 F 
ENDBRANCH  18  20
ENDBRANCH  13  14
ENDBRANCH   1  13
TORSDOF 5
ENDMDL
MODEL 9
REMARK VINA RESULT:    -6.332      3.443      4.769
REMARK INTER + INTRA:          -8.559
REMARK INTER:                  -8.086
REMARK INTRA:                  -0.472
REMARK UNBOUND:                -0.376
REMARK  Name = 
REMARK  6 active torsions:
REMARK  status: ('A' for Active; 'I' for Inactive)
REMARK    1  A    between atoms: C_1  and  N_2
REMARK    2  A    between atoms: C_3  and  C_5
REMARK    3  A    between atoms: C_8  and  O_9
REMARK    4  A    between atoms: O_9  and  C_10
REMARK    5  A    between atoms: C_10  and  C_11
REMARK    6  A    between atoms: C_15  and  C_16
REMARK                            x       y       z     vdW  Elec       q    Type
REMARK                         _______ _______ _______ _____ _____    ______ ____
ROOT
ATOM      1  O   UNL     1      46.399   4.034  15.128  0.00  0.00    +0.000 OA
ENDROOT
BRANCH   1   5
ATOM      2  C   UNL     1      49.785   4.090  17.561  0.00  0.00    +0.000 A 
ATOM      3  C   UNL     1      49.240   5.270  17.041  0.00  0.00    +0.000 A 
ATOM      4  C   UNL     1      48.081   5.216  16.257  0.00  0.00    +0.000 A 
ATOM      5  C   UNL     1      47.472   3.989  15.979  0.00  0.00    +0.000 A 
ATOM      6  C   UNL     1      47.985   2.822  16.547  0.00  0.00    +0.000 A 
ATOM      7  C   UNL     1      49.146   2.870  17.317  0.00  0.00    +0.000 A 
BRANCH   2  10
ATOM      8  C   UNL     1      53.123   2.864  18.840  0.00  0.00    +0.000 C 
ATOM      9  N   UNL     1      51.854   2.944  18.165  0.00  0.00    +0.000 N 
ATOM     10  C   UNL     1      51.060   4.060  18.323  0.00  0.00    +0.000 C 
ATOM     11  O   UNL     1      51.370   5.011  19.032  0.00  0.00    +0.000 OA
ATOM     12  H   UNL     1      51.646   2.275  17.437  0.00  0.00    +0.000 HD
ENDBRANCH   2  10
ENDBRANCH   1   5
BRANCH   1  13
ATOM     13  C   UNL     1      46.683   4.597  13.844  0.00  0.00    +0.000 C 
BRANCH  13  14
ATOM     14  C   UNL     1      45.524   4.370  12.917  0.00  0.00    +0.000 A 
ATOM     15  C   UNL     1      44.262   4.863  13.228  0.00  0.00    +0.000 A 
ATOM     16  N   UNL     1      43.181   4.734  12.429  0.00  0.00    +0.000 NA
ATOM     17  C   UNL     1      43.359   4.077  11.262  0.00  0.00    +0.000 A 
ATOM     18  C   UNL     1      44.569   3.537  10.854  0.00  0.00    +0.000 A 
ATOM     19  C   UNL     1      45.669   3.689  11.704  0.00  0.00    +0.000 A 
BRANCH  18  20
ATOM     20  C   UNL     1      44.683   2.826   9.541  0.00  0.00    +0.000 C 
ATOM     21  F   UNL     1      44.136   3.511   8.499  0.00  0.00    +0.000 F 
ATOM     22  F   UNL     1      45.978   2.588   9.190  0.00  0.00    +0.000 F 
ATOM     23  F   UNL     1      44.071   1.610   9.550  0.00  0.00    +0.000 F 
ENDBRANCH  18  20
ENDBRANCH  13  14
ENDBRANCH   1  13
TORSDOF 5
ENDMDL
