MODEL 1
REMARK VINA RESULT:    -8.524      0.000      0.000
REMARK INTER + INTRA:         -11.263
REMARK INTER:                 -10.766
REMARK INTRA:                  -0.496
REMARK UNBOUND:                -0.496
REMARK  Name = 
REMARK  5 active torsions:
REMARK  status: ('A' for Active; 'I' for Inactive)
REMARK    1  A    between atoms: C_2  and  C_4
REMARK    2  A    between atoms: C_7  and  N_8
REMARK    3  A    between atoms: N_8  and  C_9
REMARK    4  A    between atoms: C_9  and  C_10
REMARK    5  A    between atoms: C_14  and  O_15
REMARK                            x       y       z     vdW  Elec       q    Type
REMARK                         _______ _______ _______ _____ _____    ______ ____
ROOT
ATOM      1  N   UNL     1      43.917   4.844   9.784  0.00  0.00    +0.000 N 
ATOM      2  H   UNL     1      43.332   5.502   9.287  0.00  0.00    +0.000 HD
ENDROOT
BRANCH   1   6
ATOM      3  C   UNL     1      46.481   2.400   7.687  0.00  0.00    +0.000 A 
ATOM      4  C   UNL     1      46.466   3.764   7.455  0.00  0.00    +0.000 A 
ATOM      5  N   UNL     1      45.613   4.608   8.104  0.00  0.00    +0.000 NA
ATOM      6  C   UNL     1      44.779   4.053   9.014  0.00  0.00    +0.000 A 
ATOM      7  C   UNL     1      44.814   2.668   9.229  0.00  0.00    +0.000 A 
ATOM      8  N   UNL     1      45.641   1.805   8.582  0.00  0.00    +0.000 NA
BRANCH   3  10
ATOM      9  N   UNL     1      48.537   2.151   6.445  0.00  0.00    +0.000 N 
ATOM     10  C   UNL     1      47.424   1.525   6.952  0.00  0.00    +0.000 C 
ATOM     11  O   UNL     1      47.236   0.327   6.801  0.00  0.00    +0.000 OA
ATOM     12  H   UNL     1      49.232   1.620   5.948  0.00  0.00    +0.000 HD
ATOM     13  H   UNL     1      48.661   3.147   6.594  0.00  0.00    +0.000 HD
ENDBRANCH   3  10
ENDBRANCH   1   6
BRANCH   1  14
ATOM     14  C   UNL     1      43.946   4.903  11.251  0.00  0.00    +0.000 C 
ATOM     15  C   UNL     1      43.057   4.008  12.089  0.00  0.00    +0.000 C 
ATOM     16  C   UNL     1      42.673   5.437  11.889  0.00  0.00    +0.000 C 
BRANCH  14  17
ATOM     17  C   UNL     1      45.311   5.310  11.805  0.00  0.00    +0.000 A 
ATOM     18  C   UNL     1      45.982   6.432  11.278  0.00  0.00    +0.000 A 
ATOM     19  C   UNL     1      47.141   6.945  11.869  0.00  0.00    +0.000 A 
ATOM     20  C   UNL     1      47.674   6.333  13.001  0.00  0.00    +0.000 A 
ATOM     21  C   UNL     1      47.058   5.197  13.507  0.00  0.00    +0.000 A 
ATOM     22  C   UNL     1      45.901   4.682  12.917  0.00  0.00    +0.000 A 
BRANCH  21  23
ATOM     23  O   UNL     1      47.541   4.570  14.619  0.00  0.00    +0.000 OA
ATOM     24  H   UNL     1      47.009   4.845  15.384  0.00  0.00    +0.000 HD
ENDBRANCH  21  23
ENDBRANCH  14  17
ENDBRANCH   1  14
TORSDOF 5
ENDMDL
MODEL 2
REMARK VINA RESULT:    -8.228      1.294      1.677
REMARK INTER + INTRA:         -10.889
REMARK INTER:                 -10.448
REMARK INTRA:                  -0.441
REMARK UNBOUND:                -0.496
REMARK  Name = 
REMARK  5 active torsions:
REMARK  status: ('A' for Active; 'I' for Inactive)
REMARK    1  A    between atoms: C_2  and  C_4
REMARK    2  A    between atoms: C_7  and  N_8
REMARK    3  A    between atoms: N_8  and  C_9
REMARK    4  A    between atoms: C_9  and  C_10
REMARK    5  A    between atoms: C_14  and  O_15
REMARK                            x       y       z     vdW  Elec       q    Type
REMARK                         _______ _______ _______ _____ _____    ______ ____
ROOT
ATOM      1  N   UNL     1      44.161   5.146   9.739  0.00  0.00    +0.000 N 
ATOM      2  H   UNL     1      43.863   5.947   9.200  0.00  0.00    +0.000 HD
ENDROOT
BRANCH   1   6
ATOM      3  C   UNL     1      46.306   2.139   7.922  0.00  0.00    +0.000 A 
ATOM      4  C   UNL     1      46.416   3.445   7.479  0.00  0.00    +0.000 A 
ATOM      5  N   UNL     1      45.703   4.469   8.031  0.00  0.00    +0.000 NA
ATOM      6  C   UNL     1      44.881   4.155   9.060  0.00  0.00    +0.000 A 
ATOM      7  C   UNL     1      44.787   2.824   9.488  0.00  0.00    +0.000 A 
ATOM      8  N   UNL     1      45.473   1.784   8.942  0.00  0.00    +0.000 NA
BRANCH   3  10
ATOM      9  N   UNL     1      46.774  -0.217   7.670  0.00  0.00    +0.000 N 
ATOM     10  C   UNL     1      47.100   1.061   7.286  0.00  0.00    +0.000 C 
ATOM     11  O   UNL     1      47.985   1.282   6.474  0.00  0.00    +0.000 OA
ATOM     12  H   UNL     1      47.256  -1.003   7.269  0.00  0.00    +0.000 HD
ATOM     13  H   UNL     1      46.029  -0.361   8.346  0.00  0.00    +0.000 HD
ENDBRANCH   3  10
ENDBRANCH   1   6
BRANCH   1  14
ATOM     14  C   UNL     1      43.977   5.175  11.195  0.00  0.00    +0.000 C 
ATOM     15  C   UNL     1      42.968   4.274  11.877  0.00  0.00    +0.000 C 
ATOM     16  C   UNL     1      42.629   5.710  11.653  0.00  0.00    +0.000 C 
BRANCH  14  17
ATOM     17  C   UNL     1      45.251   5.556  11.950  0.00  0.00    +0.000 A 
ATOM     18  C   UNL     1      45.676   4.789  13.053  0.00  0.00    +0.000 A 
ATOM     19  C   UNL     1      46.920   4.990  13.658  0.00  0.00    +0.000 A 
ATOM     20  C   UNL     1      47.772   5.985  13.183  0.00  0.00    +0.000 A 
ATOM     21  C   UNL     1      47.352   6.786  12.130  0.00  0.00    +0.000 A 
ATOM     22  C   UNL     1      46.109   6.587  11.525  0.00  0.00    +0.000 A 
BRANCH  21  23
ATOM     23  O   UNL     1      48.157   7.767  11.627  0.00  0.00    +0.000 OA
ATOM     24  H   UNL     1      48.274   7.613  10.675  0.00  0.00    +0.000 HD
ENDBRANCH  21  23
ENDBRANCH  14  17
ENDBRANCH   1  14
TORSDOF 5
ENDMDL
MODEL 3
REMARK VINA RESULT:    -6.852      2.757      6.236
REMARK INTER + INTRA:          -9.151
REMARK INTER:                  -8.876
REMARK INTRA:                  -0.275
REMARK UNBOUND:                -0.496
REMARK  Name = 
REMARK  5 active torsions:
REMARK  status: ('A' for Active; 'I' for Inactive)
REMARK    1  A    between atoms: C_2  and  C_4
REMARK    2  A    between atoms: C_7  and  N_8
REMARK    3  A    between atoms: N_8  and  C_9
REMARK    4  A    between atoms: C_9  and  C_10
REMARK    5  A    between atoms: C_14  and  O_15
REMARK                            x       y       z     vdW  Elec       q    Type
REMARK                         _______ _______ _______ _____ _____    ______ ____
ROOT
ATOM      1  N   UNL     1      45.340   3.535  12.225  0.00  0.00    +0.000 N 
ATOM      2  H   UNL     1      45.387   2.559  12.486  0.00  0.00    +0.000 HD
ENDROOT
BRANCH   1   6
ATOM      3  C   UNL     1      47.880   6.036  14.283  0.00  0.00    +0.000 A 
ATOM      4  C   UNL     1      47.329   6.434  13.077  0.00  0.00    +0.000 A 
ATOM      5  N   UNL     1      46.506   5.627  12.347  0.00  0.00    +0.000 NA
ATOM      6  C   UNL     1      46.230   4.407  12.865  0.00  0.00    +0.000 A 
ATOM      7  C   UNL     1      46.803   4.029  14.086  0.00  0.00    +0.000 A 
ATOM      8  N   UNL     1      47.640   4.807  14.823  0.00  0.00    +0.000 NA
BRANCH   3  10
ATOM      9  N   UNL     1      48.219   8.155  15.393  0.00  0.00    +0.000 N 
ATOM     10  C   UNL     1      48.773   6.948  15.036  0.00  0.00    +0.000 C 
ATOM     11  O   UNL     1      49.923   6.659  15.327  0.00  0.00    +0.000 OA
ATOM     12  H   UNL     1      48.757   8.820  15.921  0.00  0.00    +0.000 HD
ATOM     13  H   UNL     1      47.258   8.358  15.136  0.00  0.00    +0.000 HD
ENDBRANCH   3  10
ENDBRANCH   1   6
BRANCH   1  14
ATOM     14  C   UNL     1      44.488   3.916  11.092  0.00  0.00    +0.000 C 
ATOM     15  C   UNL     1      43.620   5.156  11.145  0.00  0.00    +0.000 C 
ATOM     16  C   UNL     1      42.995   3.818  11.360  0.00  0.00    +0.000 C 
BRANCH  14  17
ATOM     17  C   UNL     1      45.057   3.473   9.743  0.00  0.00    +0.000 A 
ATOM     18  C   UNL     1      45.440   4.434   8.787  0.00  0.00    +0.000 A 
ATOM     19  C   UNL     1      46.126   4.084   7.620  0.00  0.00    +0.000 A 
ATOM     20  C   UNL     1      46.433   2.748   7.368  0.00  0.00    +0.000 A 
ATOM     21  C   UNL     1      46.021   1.779   8.273  0.00  0.00    +0.000 A 
ATOM     22  C   UNL     1      45.334   2.128   9.438  0.00  0.00    +0.000 A 
BRANCH  21  23
ATOM     23  O   UNL     1      46.307   0.461   8.070  0.00  0.00    +0.000 OA
ATOM     24  H   UNL     1      45.490  -0.054   8.185  0.00  0.00    +0.000 HD
ENDBRANCH  21  23
ENDBRANCH  14  17
ENDBRANCH   1  14
TORSDOF 5
ENDMDL
MODEL 4
REMARK VINA RESULT:    -6.353      4.160      6.665
REMARK INTER + INTRA:          -8.520
REMARK INTER:                  -8.125
REMARK INTRA:                  -0.395
REMARK UNBOUND:                -0.496
REMARK  Name = 
REMARK  5 active torsions:
REMARK  status: ('A' for Active; 'I' for Inactive)
REMARK    1  A    between atoms: C_2  and  C_4
REMARK    2  A    between atoms: C_7  and  N_8
REMARK    3  A    between atoms: N_8  and  C_9
REMARK    4  A    between atoms: C_9  and  C_10
REMARK    5  A    between atoms: C_14  and  O_15
REMARK                            x       y       z     vdW  Elec       q    Type
REMARK                         _______ _______ _______ _____ _____    ______ ____
ROOT
ATOM      1  N   UNL     1      45.894   5.607  13.921  0.00  0.00    +0.000 N 
ATOM      2  H   UNL     1      44.967   5.730  14.305  0.00  0.00    +0.000 HD
ENDROOT
BRANCH   1   6
ATOM      3  C   UNL     1      48.491   3.374  16.204  0.00  0.00    +0.000 A 
ATOM      4  C   UNL     1      48.285   4.714  16.483  0.00  0.00    +0.000 A 
ATOM      5  N   UNL     1      47.457   5.499  15.737  0.00  0.00    +0.000 NA
ATOM      6  C   UNL     1      46.818   4.903  14.703  0.00  0.00    +0.000 A 
ATOM      7  C   UNL     1      47.047   3.546  14.440  0.00  0.00    +0.000 A 
ATOM      8  N   UNL     1      47.881   2.747  15.157  0.00  0.00    +0.000 NA
BRANCH   3  10
ATOM      9  N   UNL     1      49.371   2.840  18.388  0.00  0.00    +0.000 N 
ATOM     10  C   UNL     1      49.405   2.564  17.043  0.00  0.00    +0.000 C 
ATOM     11  O   UNL     1      50.143   1.707  16.581  0.00  0.00    +0.000 OA
ATOM     12  H   UNL     1      49.950   2.320  19.025  0.00  0.00    +0.000 HD
ATOM     13  H   UNL     1      48.742   3.558  18.735  0.00  0.00    +0.000 HD
ENDBRANCH   3  10
ENDBRANCH   1   6
BRANCH   1  14
ATOM     14  C   UNL     1      46.132   6.008  12.528  0.00  0.00    +0.000 C 
ATOM     15  C   UNL     1      47.460   6.595  12.097  0.00  0.00    +0.000 C 
ATOM     16  C   UNL     1      46.297   7.505  12.319  0.00  0.00    +0.000 C 
BRANCH  14  17
ATOM     17  C   UNL     1      45.334   5.176  11.524  0.00  0.00    +0.000 A 
ATOM     18  C   UNL     1      45.663   5.215  10.154  0.00  0.00    +0.000 A 
ATOM     19  C   UNL     1      45.083   4.342   9.229  0.00  0.00    +0.000 A 
ATOM     20  C   UNL     1      44.136   3.410   9.651  0.00  0.00    +0.000 A 
ATOM     21  C   UNL     1      43.760   3.388  10.987  0.00  0.00    +0.000 A 
ATOM     22  C   UNL     1      44.338   4.261  11.912  0.00  0.00    +0.000 A 
BRANCH  21  23
ATOM     23  O   UNL     1      42.843   2.488  11.445  0.00  0.00    +0.000 OA
ATOM     24  H   UNL     1      42.828   2.530  12.416  0.00  0.00    +0.000 HD
ENDBRANCH  21  23
ENDBRANCH  14  17
ENDBRANCH   1  14
TORSDOF 5
ENDMDL
MODEL 5
REMARK VINA RESULT:    -6.040      3.032      6.277
REMARK INTER + INTRA:          -8.125
REMARK INTER:                  -8.843
REMARK INTRA:                   0.718
REMARK UNBOUND:                -0.496
REMARK  Name = 
REMARK  5 active torsions:
REMARK  status: ('A' for Active; 'I' for Inactive)
REMARK    1  A    between atoms: C_2  and  C_4
REMARK    2  A    between atoms: C_7  and  N_8
REMARK    3  A    between atoms: N_8  and  C_9
REMARK    4  A    between atoms: C_9  and  C_10
REMARK    5  A    between atoms: C_14  and  O_15
REMARK                            x       y       z     vdW  Elec       q    Type
REMARK                         _______ _______ _______ _____ _____    ______ ____
ROOT
ATOM      1  N   UNL     1      45.527   6.056  11.856  0.00  0.00    +0.000 N 
ATOM      2  H   UNL     1      45.721   7.011  11.588  0.00  0.00    +0.000 HD
ENDROOT
BRANCH   1   6
ATOM      3  C   UNL     1      47.382   4.467  15.168  0.00  0.00    +0.000 A 
ATOM      4  C   UNL     1      47.568   5.796  14.831  0.00  0.00    +0.000 A 
ATOM      5  N   UNL     1      46.998   6.358  13.727  0.00  0.00    +0.000 NA
ATOM      6  C   UNL     1      46.214   5.555  12.969  0.00  0.00    +0.000 A 
ATOM      7  C   UNL     1      46.044   4.212  13.332  0.00  0.00    +0.000 A 
ATOM      8  N   UNL     1      46.617   3.625  14.416  0.00  0.00    +0.000 NA
BRANCH   3  10
ATOM      9  N   UNL     1      47.213   3.143  17.181  0.00  0.00    +0.000 N 
ATOM     10  C   UNL     1      48.028   3.902  16.377  0.00  0.00    +0.000 C 
ATOM     11  O   UNL     1      49.204   4.091  16.649  0.00  0.00    +0.000 OA
ATOM     12  H   UNL     1      47.584   2.712  18.011  0.00  0.00    +0.000 HD
ATOM     13  H   UNL     1      46.242   3.006  16.920  0.00  0.00    +0.000 HD
ENDBRANCH   3  10
ENDBRANCH   1   6
BRANCH   1  14
ATOM     14  C   UNL     1      44.430   5.351  11.181  0.00  0.00    +0.000 C 
ATOM     15  C   UNL     1      43.072   5.997  11.006  0.00  0.00    +0.000 C 
ATOM     16  C   UNL     1      43.264   4.982  12.084  0.00  0.00    +0.000 C 
BRANCH  14  17
ATOM     17  C   UNL     1      44.919   4.366  10.118  0.00  0.00    +0.000 A 
ATOM     18  C   UNL     1      44.518   3.016  10.167  0.00  0.00    +0.000 A 
ATOM     19  C   UNL     1      44.792   2.126   9.124  0.00  0.00    +0.000 A 
ATOM     20  C   UNL     1      45.497   2.562   8.004  0.00  0.00    +0.000 A 
ATOM     21  C   UNL     1      45.945   3.875   7.958  0.00  0.00    +0.000 A 
ATOM     22  C   UNL     1      45.674   4.765   8.999  0.00  0.00    +0.000 A 
BRANCH  21  23
ATOM     23  O   UNL     1      46.632   4.346   6.877  0.00  0.00    +0.000 OA
ATOM     24  H   UNL     1      46.091   4.206   6.082  0.00  0.00    +0.000 HD
ENDBRANCH  21  23
ENDBRANCH  14  17
ENDBRANCH   1  14
TORSDOF 5
ENDMDL
MODEL 6
REMARK VINA RESULT:    -5.983      4.856      7.341
REMARK INTER + INTRA:          -8.053
REMARK INTER:                  -7.837
REMARK INTRA:                  -0.216
REMARK UNBOUND:                -0.496
REMARK  Name = 
REMARK  5 active torsions:
REMARK  status: ('A' for Active; 'I' for Inactive)
REMARK    1  A    between atoms: C_2  and  C_4
REMARK    2  A    between atoms: C_7  and  N_8
REMARK    3  A    between atoms: N_8  and  C_9
REMARK    4  A    between atoms: C_9  and  C_10
REMARK    5  A    between atoms: C_14  and  O_15
REMARK                            x       y       z     vdW  Elec       q    Type
REMARK                         _______ _______ _______ _____ _____    ______ ____
ROOT
ATOM      1  N   UNL     1      46.487   5.108  15.011  0.00  0.00    +0.000 N 
ATOM      2  H   UNL     1      45.613   5.229  15.503  0.00  0.00    +0.000 HD
ENDROOT
BRANCH   1   6
ATOM      3  C   UNL     1      49.556   3.105  16.884  0.00  0.00    +0.000 A 
ATOM      4  C   UNL     1      48.618   2.412  16.139  0.00  0.00    +0.000 A 
ATOM      5  N   UNL     1      47.568   3.030  15.526  0.00  0.00    +0.000 NA
ATOM      6  C   UNL     1      47.487   4.374  15.662  0.00  0.00    +0.000 A 
ATOM      7  C   UNL     1      48.449   5.051  16.424  0.00  0.00    +0.000 A 
ATOM      8  N   UNL     1      49.493   4.456  17.059  0.00  0.00    +0.000 NA
BRANCH   3  10
ATOM      9  N   UNL     1      51.379   3.110  18.469  0.00  0.00    +0.000 N 
ATOM     10  C   UNL     1      50.677   2.386  17.535  0.00  0.00    +0.000 C 
ATOM     11  O   UNL     1      50.966   1.229  17.269  0.00  0.00    +0.000 OA
ATOM     12  H   UNL     1      52.143   2.685  18.966  0.00  0.00    +0.000 HD
ATOM     13  H   UNL     1      51.107   4.068  18.666  0.00  0.00    +0.000 HD
ENDBRANCH   3  10
ENDBRANCH   1   6
BRANCH   1  14
ATOM     14  C   UNL     1      46.568   5.545  13.612  0.00  0.00    +0.000 C 
ATOM     15  C   UNL     1      47.904   5.769  12.935  0.00  0.00    +0.000 C 
ATOM     16  C   UNL     1      47.124   6.947  13.417  0.00  0.00    +0.000 C 
BRANCH  14  17
ATOM     17  C   UNL     1      45.387   5.064  12.767  0.00  0.00    +0.000 A 
ATOM     18  C   UNL     1      45.364   3.744  12.273  0.00  0.00    +0.000 A 
ATOM     19  C   UNL     1      44.231   3.208  11.652  0.00  0.00    +0.000 A 
ATOM     20  C   UNL     1      43.089   3.990  11.493  0.00  0.00    +0.000 A 
ATOM     21  C   UNL     1      43.108   5.308  11.927  0.00  0.00    +0.000 A 
ATOM     22  C   UNL     1      44.239   5.846  12.546  0.00  0.00    +0.000 A 
BRANCH  21  23
ATOM     23  O   UNL     1      42.010   6.107  11.799  0.00  0.00    +0.000 OA
ATOM     24  H   UNL     1      42.224   6.986  12.156  0.00  0.00    +0.000 HD
ENDBRANCH  21  23
ENDBRANCH  14  17
ENDBRANCH   1  14
TORSDOF 5
ENDMDL
MODEL 7
REMARK VINA RESULT:    -5.883      3.893      6.665
REMARK INTER + INTRA:          -7.927
REMARK INTER:                  -8.163
REMARK INTRA:                   0.236
REMARK UNBOUND:                -0.496
REMARK  Name = 
REMARK  5 active torsions:
REMARK  status: ('A' for Active; 'I' for Inactive)
REMARK    1  A    between atoms: C_2  and  C_4
REMARK    2  A    between atoms: C_7  and  N_8
REMARK    3  A    between atoms: N_8  and  C_9
REMARK    4  A    between atoms: C_9  and  C_10
REMARK    5  A    between atoms: C_14  and  O_15
REMARK                            x       y       z     vdW  Elec       q    Type
REMARK                         _______ _______ _______ _____ _____    ______ ____
ROOT
ATOM      1  N   UNL     1      47.467   6.519  12.791  0.00  0.00    +0.000 N 
ATOM      2  H   UNL     1      48.319   6.797  12.324  0.00  0.00    +0.000 HD
ENDROOT
BRANCH   1   6
ATOM      3  C   UNL     1      47.667   3.941  15.994  0.00  0.00    +0.000 A 
ATOM      4  C   UNL     1      48.133   5.240  16.108  0.00  0.00    +0.000 A 
ATOM      5  N   UNL     1      48.114   6.119  15.066  0.00  0.00    +0.000 NA
ATOM      6  C   UNL     1      47.596   5.671  13.898  0.00  0.00    +0.000 A 
ATOM      7  C   UNL     1      47.133   4.351  13.809  0.00  0.00    +0.000 A 
ATOM      8  N   UNL     1      47.158   3.451  14.827  0.00  0.00    +0.000 NA
BRANCH   3  10
ATOM      9  N   UNL     1      48.973   2.721  17.619  0.00  0.00    +0.000 N 
ATOM     10  C   UNL     1      47.715   3.023  17.156  0.00  0.00    +0.000 C 
ATOM     11  O   UNL     1      46.711   2.559  17.675  0.00  0.00    +0.000 OA
ATOM     12  H   UNL     1      49.086   2.118  18.415  0.00  0.00    +0.000 HD
ATOM     13  H   UNL     1      49.783   3.129  17.163  0.00  0.00    +0.000 HD
ENDBRANCH   3  10
ENDBRANCH   1   6
BRANCH   1  14
ATOM     14  C   UNL     1      46.208   7.161  12.391  0.00  0.00    +0.000 C 
ATOM     15  C   UNL     1      46.199   8.516  11.713  0.00  0.00    +0.000 C 
ATOM     16  C   UNL     1      45.867   8.425  13.165  0.00  0.00    +0.000 C 
BRANCH  14  17
ATOM     17  C   UNL     1      45.111   6.156  12.040  0.00  0.00    +0.000 A 
ATOM     18  C   UNL     1      44.123   5.827  12.990  0.00  0.00    +0.000 A 
ATOM     19  C   UNL     1      43.006   5.055  12.658  0.00  0.00    +0.000 A 
ATOM     20  C   UNL     1      42.855   4.573  11.359  0.00  0.00    +0.000 A 
ATOM     21  C   UNL     1      43.841   4.843  10.420  0.00  0.00    +0.000 A 
ATOM     22  C   UNL     1      44.959   5.612  10.751  0.00  0.00    +0.000 A 
BRANCH  21  23
ATOM     23  O   UNL     1      43.731   4.397   9.135  0.00  0.00    +0.000 OA
ATOM     24  H   UNL     1      43.213   5.045   8.628  0.00  0.00    +0.000 HD
ENDBRANCH  21  23
ENDBRANCH  14  17
ENDBRANCH   1  14
TORSDOF 5
ENDMDL
MODEL 8
REMARK VINA RESULT:    -5.694      2.818      4.579
REMARK INTER + INTRA:          -7.688
REMARK INTER:                  -7.861
REMARK INTRA:                   0.172
REMARK UNBOUND:                -0.496
REMARK  Name = 
REMARK  5 active torsions:
REMARK  status: ('A' for Active; 'I' for Inactive)
REMARK    1  A    between atoms: C_2  and  C_4
REMARK    2  A    between atoms: C_7  and  N_8
REMARK    3  A    between atoms: N_8  and  C_9
REMARK    4  A    between atoms: C_9  and  C_10
REMARK    5  A    between atoms: C_14  and  O_15
REMARK                            x       y       z     vdW  Elec       q    Type
REMARK                         _______ _______ _______ _____ _____    ______ ____
ROOT
ATOM      1  N   UNL     1      46.223   6.196  13.639  0.00  0.00    +0.000 N 
ATOM      2  H   UNL     1      45.536   6.767  14.111  0.00  0.00    +0.000 HD
ENDROOT
BRANCH   1   6
ATOM      3  C   UNL     1      45.067   3.933  10.400  0.00  0.00    +0.000 A 
ATOM      4  C   UNL     1      45.264   5.297  10.269  0.00  0.00    +0.000 A 
ATOM      5  N   UNL     1      45.617   6.091  11.320  0.00  0.00    +0.000 NA
ATOM      6  C   UNL     1      45.790   5.479  12.516  0.00  0.00    +0.000 A 
ATOM      7  C   UNL     1      45.583   4.098  12.622  0.00  0.00    +0.000 A 
ATOM      8  N   UNL     1      45.213   3.289  11.594  0.00  0.00    +0.000 NA
BRANCH   3  10
ATOM      9  N   UNL     1      44.499   1.775   9.477  0.00  0.00    +0.000 N 
ATOM     10  C   UNL     1      44.678   3.115   9.228  0.00  0.00    +0.000 C 
ATOM     11  O   UNL     1      44.524   3.587   8.112  0.00  0.00    +0.000 OA
ATOM     12  H   UNL     1      44.218   1.158   8.735  0.00  0.00    +0.000 HD
ATOM     13  H   UNL     1      44.634   1.420  10.418  0.00  0.00    +0.000 HD
ENDBRANCH   3  10
ENDBRANCH   1   6
BRANCH   1  14
ATOM     14  C   UNL     1      47.628   6.307  14.051  0.00  0.00    +0.000 C 
ATOM     15  C   UNL     1      48.458   7.522  13.690  0.00  0.00    +0.000 C 
ATOM     16  C   UNL     1      48.630   6.262  12.908  0.00  0.00    +0.000 C 
BRANCH  14  17
ATOM     17  C   UNL     1      47.925   5.576  15.361  0.00  0.00    +0.000 A 
ATOM     18  C   UNL     1      48.914   6.066  16.236  0.00  0.00    +0.000 A 
ATOM     19  C   UNL     1      49.095   5.538  17.518  0.00  0.00    +0.000 A 
ATOM     20  C   UNL     1      48.295   4.485  17.955  0.00  0.00    +0.000 A 
ATOM     21  C   UNL     1      47.348   3.953  17.091  0.00  0.00    +0.000 A 
ATOM     22  C   UNL     1      47.167   4.478  15.809  0.00  0.00    +0.000 A 
BRANCH  21  23
ATOM     23  O   UNL     1      46.538   2.926  17.480  0.00  0.00    +0.000 OA
ATOM     24  H   UNL     1      46.253   3.088  18.395  0.00  0.00    +0.000 HD
ENDBRANCH  21  23
ENDBRANCH  14  17
ENDBRANCH   1  14
TORSDOF 5
ENDMDL
