MODEL 1
REMARK VINA RESULT:    -7.677      0.000      0.000
REMARK INTER + INTRA:         -12.361
REMARK INTER:                 -11.043
REMARK INTRA:                  -1.318
REMARK UNBOUND:                -1.318
REMARK  Name = 
REMARK  8 active torsions:
REMARK  status: ('A' for Active; 'I' for Inactive)
REMARK    1  A    between atoms: N_1  and  C_2
REMARK    2  A    between atoms: C_2  and  C_3
REMARK    3  A    between atoms: C_3  and  N_4
REMARK    4  A    between atoms: C_3  and  C_17
REMARK    5  A    between atoms: C_5  and  C_7
REMARK    6  A    between atoms: C_20  and  O_21
REMARK    7  A    between atoms: O_21  and  C_22
REMARK    8  A    between atoms: C_22  and  C_23
REMARK                            x       y       z     vdW  Elec       q    Type
REMARK                         _______ _______ _______ _____ _____    ______ ____
ROOT
ATOM      1  C   UNL     1      47.203   7.112  13.335  0.00  0.00    +0.000 C 
ENDROOT
BRANCH   1   2
ATOM      2  C   UNL     1      46.335   6.028  12.715  0.00  0.00    +0.000 A 
ATOM      3  C   UNL     1      45.774   6.227  11.441  0.00  0.00    +0.000 A 
ATOM      4  C   UNL     1      45.206   5.156  10.743  0.00  0.00    +0.000 A 
ATOM      5  C   UNL     1      45.167   3.889  11.323  0.00  0.00    +0.000 A 
ATOM      6  C   UNL     1      45.571   3.729  12.646  0.00  0.00    +0.000 A 
ATOM      7  C   UNL     1      46.154   4.788  13.336  0.00  0.00    +0.000 A 
BRANCH   5   8
ATOM      8  O   UNL     1      44.752   2.862  10.518  0.00  0.00    +0.000 OA
BRANCH   8   9
ATOM      9  C   UNL     1      44.525   3.248   9.153  0.00  0.00    +0.000 C 
BRANCH   9  10
ATOM     10  C   UNL     1      45.573   2.642   8.254  0.00  0.00    +0.000 A 
ATOM     11  C   UNL     1      46.196   3.430   7.288  0.00  0.00    +0.000 A 
ATOM     12  C   UNL     1      47.195   2.863   6.504  0.00  0.00    +0.000 A 
ATOM     13  C   UNL     1      47.547   1.535   6.708  0.00  0.00    +0.000 A 
ATOM     14  C   UNL     1      46.885   0.824   7.696  0.00  0.00    +0.000 A 
ATOM     15  N   UNL     1      45.915   1.347   8.475  0.00  0.00    +0.000 NA
ENDBRANCH   9  10
ENDBRANCH   8   9
ENDBRANCH   5   8
ENDBRANCH   1   2
BRANCH   1  16
ATOM     16  N   UNL     1      48.194   6.532  14.224  0.00  0.00    +0.000 N 
ATOM     17  C   UNL     1      48.673   7.269  15.281  0.00  0.00    +0.000 C 
ATOM     18  O   UNL     1      48.272   8.401  15.531  0.00  0.00    +0.000 OA
ATOM     19  H   UNL     1      48.684   5.701  13.926  0.00  0.00    +0.000 HD
BRANCH  17  20
ATOM     20  C   UNL     1      49.659   6.604  16.129  0.00  0.00    +0.000 A 
ATOM     21  C   UNL     1      50.929   7.097  16.385  0.00  0.00    +0.000 A 
ATOM     22  S   UNL     1      51.926   5.968  17.200  0.00  0.00    +0.000 S 
ATOM     23  C   UNL     1      50.687   4.800  17.227  0.00  0.00    +0.000 A 
ATOM     24  N   UNL     1      50.895   3.544  17.708  0.00  0.00    +0.000 NA
ATOM     25  C   UNL     1      49.865   2.767  17.620  0.00  0.00    +0.000 A 
ATOM     26  N   UNL     1      48.635   3.143  17.141  0.00  0.00    +0.000 N 
ATOM     27  C   UNL     1      48.339   4.442  16.782  0.00  0.00    +0.000 A 
ATOM     28  O   UNL     1      47.182   4.811  16.637  0.00  0.00    +0.000 OA
ATOM     29  C   UNL     1      49.507   5.300  16.712  0.00  0.00    +0.000 A 
ATOM     30  H   UNL     1      47.847   2.519  17.196  0.00  0.00    +0.000 HD
ENDBRANCH  17  20
ENDBRANCH   1  16
BRANCH   1  31
ATOM     31  C   UNL     1      47.877   8.061  12.293  0.00  0.00    +0.000 C 
BRANCH  31  32
ATOM     32  N   UNL     1      47.641   9.489  12.537  0.00  0.00    +0.000 NA
ATOM     33  H   UNL     1      48.272   9.822  13.262  0.00  0.00    +0.000 HD
ATOM     34  H   UNL     1      46.694   9.613  12.896  0.00  0.00    +0.000 HD
ENDBRANCH  31  32
ENDBRANCH   1  31
TORSDOF 8
ENDMDL
MODEL 2
REMARK VINA RESULT:    -7.623      2.622      3.350
REMARK INTER + INTRA:         -12.284
REMARK INTER:                 -10.834
REMARK INTRA:                  -1.450
REMARK UNBOUND:                -1.318
REMARK  Name = 
REMARK  8 active torsions:
REMARK  status: ('A' for Active; 'I' for Inactive)
REMARK    1  A    between atoms: N_1  and  C_2
REMARK    2  A    between atoms: C_2  and  C_3
REMARK    3  A    between atoms: C_3  and  N_4
REMARK    4  A    between atoms: C_3  and  C_17
REMARK    5  A    between atoms: C_5  and  C_7
REMARK    6  A    between atoms: C_20  and  O_21
REMARK    7  A    between atoms: O_21  and  C_22
REMARK    8  A    between atoms: C_22  and  C_23
REMARK                            x       y       z     vdW  Elec       q    Type
REMARK                         _______ _______ _______ _____ _____    ______ ____
ROOT
ATOM      1  C   UNL     1      47.757   4.611  14.948  0.00  0.00    +0.000 C 
ENDROOT
BRANCH   1   2
ATOM      2  C   UNL     1      46.766   4.673  13.798  0.00  0.00    +0.000 A 
ATOM      3  C   UNL     1      46.642   5.856  13.046  0.00  0.00    +0.000 A 
ATOM      4  C   UNL     1      45.948   5.853  11.832  0.00  0.00    +0.000 A 
ATOM      5  C   UNL     1      45.347   4.681  11.376  0.00  0.00    +0.000 A 
ATOM      6  C   UNL     1      45.329   3.557  12.196  0.00  0.00    +0.000 A 
ATOM      7  C   UNL     1      46.036   3.550  13.395  0.00  0.00    +0.000 A 
BRANCH   5   8
ATOM      8  O   UNL     1      44.834   4.713  10.106  0.00  0.00    +0.000 OA
BRANCH   8   9
ATOM      9  C   UNL     1      44.379   3.437   9.630  0.00  0.00    +0.000 C 
BRANCH   9  10
ATOM     10  C   UNL     1      45.347   2.878   8.619  0.00  0.00    +0.000 A 
ATOM     11  C   UNL     1      45.910   3.719   7.661  0.00  0.00    +0.000 A 
ATOM     12  C   UNL     1      46.839   3.193   6.770  0.00  0.00    +0.000 A 
ATOM     13  C   UNL     1      47.183   1.850   6.862  0.00  0.00    +0.000 A 
ATOM     14  C   UNL     1      46.584   1.084   7.849  0.00  0.00    +0.000 A 
ATOM     15  N   UNL     1      45.683   1.567   8.730  0.00  0.00    +0.000 NA
ENDBRANCH   9  10
ENDBRANCH   8   9
ENDBRANCH   5   8
ENDBRANCH   1   2
BRANCH   1  16
ATOM     16  N   UNL     1      47.681   5.812  15.761  0.00  0.00    +0.000 N 
ATOM     17  C   UNL     1      48.828   6.338  16.307  0.00  0.00    +0.000 C 
ATOM     18  O   UNL     1      49.936   5.849  16.109  0.00  0.00    +0.000 OA
ATOM     19  H   UNL     1      46.779   6.107  16.104  0.00  0.00    +0.000 HD
BRANCH  17  20
ATOM     20  C   UNL     1      48.660   7.552  17.100  0.00  0.00    +0.000 A 
ATOM     21  C   UNL     1      49.067   8.813  16.696  0.00  0.00    +0.000 A 
ATOM     22  S   UNL     1      48.964   9.977  17.948  0.00  0.00    +0.000 S 
ATOM     23  C   UNL     1      48.375   8.824  19.055  0.00  0.00    +0.000 A 
ATOM     24  N   UNL     1      48.156   9.132  20.362  0.00  0.00    +0.000 NA
ATOM     25  C   UNL     1      47.748   8.135  21.078  0.00  0.00    +0.000 A 
ATOM     26  N   UNL     1      47.495   6.875  20.599  0.00  0.00    +0.000 N 
ATOM     27  C   UNL     1      47.561   6.558  19.258  0.00  0.00    +0.000 A 
ATOM     28  O   UNL     1      47.060   5.531  18.822  0.00  0.00    +0.000 OA
ATOM     29  C   UNL     1      48.170   7.599  18.451  0.00  0.00    +0.000 A 
ATOM     30  H   UNL     1      47.080   6.171  21.188  0.00  0.00    +0.000 HD
ENDBRANCH  17  20
ENDBRANCH   1  16
BRANCH   1  31
ATOM     31  C   UNL     1      47.625   3.331  15.834  0.00  0.00    +0.000 C 
BRANCH  31  32
ATOM     32  N   UNL     1      46.682   3.466  16.952  0.00  0.00    +0.000 NA
ATOM     33  H   UNL     1      45.819   3.893  16.623  0.00  0.00    +0.000 HD
ATOM     34  H   UNL     1      47.076   4.103  17.645  0.00  0.00    +0.000 HD
ENDBRANCH  31  32
ENDBRANCH   1  31
TORSDOF 8
ENDMDL
MODEL 3
REMARK VINA RESULT:    -7.354      1.573      2.126
REMARK INTER + INTRA:         -11.897
REMARK INTER:                 -10.934
REMARK INTRA:                  -0.963
REMARK UNBOUND:                -1.318
REMARK  Name = 
REMARK  8 active torsions:
REMARK  status: ('A' for Active; 'I' for Inactive)
REMARK    1  A    between atoms: N_1  and  C_2
REMARK    2  A    between atoms: C_2  and  C_3
REMARK    3  A    between atoms: C_3  and  N_4
REMARK    4  A    between atoms: C_3  and  C_17
REMARK    5  A    between atoms: C_5  and  C_7
REMARK    6  A    between atoms: C_20  and  O_21
REMARK    7  A    between atoms: O_21  and  C_22
REMARK    8  A    between atoms: C_22  and  C_23
REMARK                            x       y       z     vdW  Elec       q    Type
REMARK                         _______ _______ _______ _____ _____    ______ ____
ROOT
ATOM      1  C   UNL     1      47.367   6.846  13.584  0.00  0.00    +0.000 C 
ENDROOT
BRANCH   1   2
ATOM      2  C   UNL     1      46.340   6.163  12.695  0.00  0.00    +0.000 A 
ATOM      3  C   UNL     1      46.076   6.676  11.413  0.00  0.00    +0.000 A 
ATOM      4  C   UNL     1      45.350   5.922  10.485  0.00  0.00    +0.000 A 
ATOM      5  C   UNL     1      44.857   4.667  10.840  0.00  0.00    +0.000 A 
ATOM      6  C   UNL     1      44.977   4.232  12.157  0.00  0.00    +0.000 A 
ATOM      7  C   UNL     1      45.716   4.971  13.077  0.00  0.00    +0.000 A 
BRANCH   5   8
ATOM      8  O   UNL     1      44.306   3.921   9.833  0.00  0.00    +0.000 OA
BRANCH   8   9
ATOM      9  C   UNL     1      44.806   2.576   9.765  0.00  0.00    +0.000 C 
BRANCH   9  10
ATOM     10  C   UNL     1      45.648   2.390   8.528  0.00  0.00    +0.000 A 
ATOM     11  C   UNL     1      45.828   3.455   7.647  0.00  0.00    +0.000 A 
ATOM     12  C   UNL     1      46.649   3.276   6.539  0.00  0.00    +0.000 A 
ATOM     13  C   UNL     1      47.269   2.048   6.344  0.00  0.00    +0.000 A 
ATOM     14  C   UNL     1      47.045   1.045   7.273  0.00  0.00    +0.000 A 
ATOM     15  N   UNL     1      46.257   1.189   8.359  0.00  0.00    +0.000 NA
ENDBRANCH   9  10
ENDBRANCH   8   9
ENDBRANCH   5   8
ENDBRANCH   1   2
BRANCH   1  16
ATOM     16  N   UNL     1      47.875   5.926  14.587  0.00  0.00    +0.000 N 
ATOM     17  C   UNL     1      48.345   6.415  15.782  0.00  0.00    +0.000 C 
ATOM     18  O   UNL     1      48.326   7.610  16.060  0.00  0.00    +0.000 OA
ATOM     19  H   UNL     1      48.092   4.980  14.309  0.00  0.00    +0.000 HD
BRANCH  17  20
ATOM     20  C   UNL     1      48.828   5.418  16.735  0.00  0.00    +0.000 A 
ATOM     21  C   UNL     1      48.030   4.452  17.326  0.00  0.00    +0.000 A 
ATOM     22  S   UNL     1      48.832   3.606  18.581  0.00  0.00    +0.000 S 
ATOM     23  C   UNL     1      50.257   4.512  18.363  0.00  0.00    +0.000 A 
ATOM     24  N   UNL     1      51.334   4.362  19.182  0.00  0.00    +0.000 NA
ATOM     25  C   UNL     1      52.320   5.152  18.907  0.00  0.00    +0.000 A 
ATOM     26  N   UNL     1      52.348   6.043  17.864  0.00  0.00    +0.000 N 
ATOM     27  C   UNL     1      51.341   6.122  16.923  0.00  0.00    +0.000 A 
ATOM     28  O   UNL     1      51.510   6.701  15.860  0.00  0.00    +0.000 OA
ATOM     29  C   UNL     1      50.153   5.373  17.289  0.00  0.00    +0.000 A 
ATOM     30  H   UNL     1      53.186   6.555  17.643  0.00  0.00    +0.000 HD
ENDBRANCH  17  20
ENDBRANCH   1  16
BRANCH   1  31
ATOM     31  C   UNL     1      48.539   7.520  12.802  0.00  0.00    +0.000 C 
BRANCH  31  32
ATOM     32  N   UNL     1      49.714   6.659  12.618  0.00  0.00    +0.000 NA
ATOM     33  H   UNL     1      49.539   5.746  13.031  0.00  0.00    +0.000 HD
ATOM     34  H   UNL     1      50.504   7.061  13.124  0.00  0.00    +0.000 HD
ENDBRANCH  31  32
ENDBRANCH   1  31
TORSDOF 8
ENDMDL
MODEL 4
REMARK VINA RESULT:    -7.267      2.598      4.111
REMARK INTER + INTRA:         -11.771
REMARK INTER:                 -10.588
REMARK INTRA:                  -1.184
REMARK UNBOUND:                -1.318
REMARK  Name = 
REMARK  8 active torsions:
REMARK  status: ('A' for Active; 'I' for Inactive)
REMARK    1  A    between atoms: N_1  and  C_2
REMARK    2  A    between atoms: C_2  and  C_3
REMARK    3  A    between atoms: C_3  and  N_4
REMARK    4  A    between atoms: C_3  and  C_17
REMARK    5  A    between atoms: C_5  and  C_7
REMARK    6  A    between atoms: C_20  and  O_21
REMARK    7  A    between atoms: O_21  and  C_22
REMARK    8  A    between atoms: C_22  and  C_23
REMARK                            x       y       z     vdW  Elec       q    Type
REMARK                         _______ _______ _______ _____ _____    ______ ____
ROOT
ATOM      1  C   UNL     1      47.848   4.671  15.313  0.00  0.00    +0.000 C 
ENDROOT
BRANCH   1   2
ATOM      2  C   UNL     1      46.963   5.077  14.145  0.00  0.00    +0.000 A 
ATOM      3  C   UNL     1      47.376   6.107  13.282  0.00  0.00    +0.000 A 
ATOM      4  C   UNL     1      46.723   6.312  12.062  0.00  0.00    +0.000 A 
ATOM      5  C   UNL     1      45.637   5.512  11.711  0.00  0.00    +0.000 A 
ATOM      6  C   UNL     1      45.127   4.604  12.635  0.00  0.00    +0.000 A 
ATOM      7  C   UNL     1      45.786   4.384  13.841  0.00  0.00    +0.000 A 
BRANCH   5   8
ATOM      8  O   UNL     1      45.159   5.659  10.435  0.00  0.00    +0.000 OA
BRANCH   8   9
ATOM      9  C   UNL     1      44.432   4.518   9.952  0.00  0.00    +0.000 C 
BRANCH   9  10
ATOM     10  C   UNL     1      45.290   3.708   9.013  0.00  0.00    +0.000 A 
ATOM     11  C   UNL     1      45.324   2.320   9.130  0.00  0.00    +0.000 A 
ATOM     12  C   UNL     1      46.082   1.589   8.222  0.00  0.00    +0.000 A 
ATOM     13  C   UNL     1      46.779   2.260   7.224  0.00  0.00    +0.000 A 
ATOM     14  C   UNL     1      46.685   3.641   7.172  0.00  0.00    +0.000 A 
ATOM     15  N   UNL     1      45.954   4.377   8.036  0.00  0.00    +0.000 NA
ENDBRANCH   9  10
ENDBRANCH   8   9
ENDBRANCH   5   8
ENDBRANCH   1   2
BRANCH   1  16
ATOM     16  N   UNL     1      47.808   5.674  16.363  0.00  0.00    +0.000 N 
ATOM     17  C   UNL     1      48.975   6.064  16.975  0.00  0.00    +0.000 C 
ATOM     18  O   UNL     1      50.072   5.620  16.649  0.00  0.00    +0.000 OA
ATOM     19  H   UNL     1      46.919   5.898  16.785  0.00  0.00    +0.000 HD
BRANCH  17  20
ATOM     20  C   UNL     1      48.844   7.085  18.012  0.00  0.00    +0.000 A 
ATOM     21  C   UNL     1      48.818   6.819  19.371  0.00  0.00    +0.000 A 
ATOM     22  S   UNL     1      48.398   8.191  20.307  0.00  0.00    +0.000 S 
ATOM     23  C   UNL     1      48.240   9.165  18.919  0.00  0.00    +0.000 A 
ATOM     24  N   UNL     1      47.807  10.453  18.993  0.00  0.00    +0.000 NA
ATOM     25  C   UNL     1      47.704  11.042  17.847  0.00  0.00    +0.000 A 
ATOM     26  N   UNL     1      48.037  10.480  16.640  0.00  0.00    +0.000 N 
ATOM     27  C   UNL     1      48.618   9.232  16.533  0.00  0.00    +0.000 A 
ATOM     28  O   UNL     1      49.165   8.874  15.500  0.00  0.00    +0.000 OA
ATOM     29  C   UNL     1      48.598   8.481  17.775  0.00  0.00    +0.000 A 
ATOM     30  H   UNL     1      48.031  11.027  15.795  0.00  0.00    +0.000 HD
ENDBRANCH  17  20
ENDBRANCH   1  16
BRANCH   1  31
ATOM     31  C   UNL     1      47.534   3.253  15.888  0.00  0.00    +0.000 C 
BRANCH  31  32
ATOM     32  N   UNL     1      46.765   3.265  17.139  0.00  0.00    +0.000 NA
ATOM     33  H   UNL     1      45.977   3.903  17.051  0.00  0.00    +0.000 HD
ATOM     34  H   UNL     1      47.354   3.632  17.887  0.00  0.00    +0.000 HD
ENDBRANCH  31  32
ENDBRANCH   1  31
TORSDOF 8
ENDMDL
MODEL 5
REMARK VINA RESULT:    -7.262      1.527      2.169
REMARK INTER + INTRA:         -11.763
REMARK INTER:                 -10.570
REMARK INTRA:                  -1.193
REMARK UNBOUND:                -1.318
REMARK  Name = 
REMARK  8 active torsions:
REMARK  status: ('A' for Active; 'I' for Inactive)
REMARK    1  A    between atoms: N_1  and  C_2
REMARK    2  A    between atoms: C_2  and  C_3
REMARK    3  A    between atoms: C_3  and  N_4
REMARK    4  A    between atoms: C_3  and  C_17
REMARK    5  A    between atoms: C_5  and  C_7
REMARK    6  A    between atoms: C_20  and  O_21
REMARK    7  A    between atoms: O_21  and  C_22
REMARK    8  A    between atoms: C_22  and  C_23
REMARK                            x       y       z     vdW  Elec       q    Type
REMARK                         _______ _______ _______ _____ _____    ______ ____
ROOT
ATOM      1  C   UNL     1      48.236   7.233  14.855  0.00  0.00    +0.000 C 
ENDROOT
BRANCH   1   2
ATOM      2  C   UNL     1      47.535   6.369  13.819  0.00  0.00    +0.000 A 
ATOM      3  C   UNL     1      47.141   5.061  14.152  0.00  0.00    +0.000 A 
ATOM      4  C   UNL     1      46.267   4.353  13.321  0.00  0.00    +0.000 A 
ATOM      5  C   UNL     1      45.805   4.932  12.141  0.00  0.00    +0.000 A 
ATOM      6  C   UNL     1      46.323   6.157  11.731  0.00  0.00    +0.000 A 
ATOM      7  C   UNL     1      47.177   6.873  12.564  0.00  0.00    +0.000 A 
BRANCH   5   8
ATOM      8  O   UNL     1      44.825   4.249  11.469  0.00  0.00    +0.000 OA
BRANCH   8   9
ATOM      9  C   UNL     1      44.600   4.721  10.131  0.00  0.00    +0.000 C 
BRANCH   9  10
ATOM     10  C   UNL     1      45.345   3.864   9.140  0.00  0.00    +0.000 A 
ATOM     11  C   UNL     1      45.330   2.476   9.276  0.00  0.00    +0.000 A 
ATOM     12  C   UNL     1      45.982   1.703   8.321  0.00  0.00    +0.000 A 
ATOM     13  C   UNL     1      46.623   2.331   7.261  0.00  0.00    +0.000 A 
ATOM     14  C   UNL     1      46.582   3.713   7.194  0.00  0.00    +0.000 A 
ATOM     15  N   UNL     1      45.955   4.491   8.102  0.00  0.00    +0.000 NA
ENDBRANCH   9  10
ENDBRANCH   8   9
ENDBRANCH   5   8
ENDBRANCH   1   2
BRANCH   1  16
ATOM     16  N   UNL     1      49.307   6.496  15.502  0.00  0.00    +0.000 N 
ATOM     17  C   UNL     1      49.221   6.209  16.843  0.00  0.00    +0.000 C 
ATOM     18  O   UNL     1      48.251   6.524  17.525  0.00  0.00    +0.000 OA
ATOM     19  H   UNL     1      50.192   6.409  15.024  0.00  0.00    +0.000 HD
BRANCH  17  20
ATOM     20  C   UNL     1      50.338   5.455  17.408  0.00  0.00    +0.000 A 
ATOM     21  C   UNL     1      51.506   6.028  17.885  0.00  0.00    +0.000 A 
ATOM     22  S   UNL     1      52.716   4.869  18.241  0.00  0.00    +0.000 S 
ATOM     23  C   UNL     1      51.708   3.581  17.766  0.00  0.00    +0.000 A 
ATOM     24  N   UNL     1      52.154   2.296  17.733  0.00  0.00    +0.000 NA
ATOM     25  C   UNL     1      51.277   1.443  17.312  0.00  0.00    +0.000 A 
ATOM     26  N   UNL     1      49.985   1.749  16.965  0.00  0.00    +0.000 N 
ATOM     27  C   UNL     1      49.449   3.010  17.123  0.00  0.00    +0.000 A 
ATOM     28  O   UNL     1      48.241   3.195  17.086  0.00  0.00    +0.000 OA
ATOM     29  C   UNL     1      50.441   4.022  17.436  0.00  0.00    +0.000 A 
ATOM     30  H   UNL     1      49.324   1.023  16.744  0.00  0.00    +0.000 HD
ENDBRANCH  17  20
ENDBRANCH   1  16
BRANCH   1  31
ATOM     31  C   UNL     1      48.756   8.598  14.300  0.00  0.00    +0.000 C 
BRANCH  31  32
ATOM     32  N   UNL     1      48.259   9.773  15.026  0.00  0.00    +0.000 NA
ATOM     33  H   UNL     1      48.225   9.572  16.023  0.00  0.00    +0.000 HD
ATOM     34  H   UNL     1      47.299   9.962  14.736  0.00  0.00    +0.000 HD
ENDBRANCH  31  32
ENDBRANCH   1  31
TORSDOF 8
ENDMDL
MODEL 6
REMARK VINA RESULT:    -7.119      2.202      2.576
REMARK INTER + INTRA:         -11.558
REMARK INTER:                 -10.813
REMARK INTRA:                  -0.745
REMARK UNBOUND:                -1.318
REMARK  Name = 
REMARK  8 active torsions:
REMARK  status: ('A' for Active; 'I' for Inactive)
REMARK    1  A    between atoms: N_1  and  C_2
REMARK    2  A    between atoms: C_2  and  C_3
REMARK    3  A    between atoms: C_3  and  N_4
REMARK    4  A    between atoms: C_3  and  C_17
REMARK    5  A    between atoms: C_5  and  C_7
REMARK    6  A    between atoms: C_20  and  O_21
REMARK    7  A    between atoms: O_21  and  C_22
REMARK    8  A    between atoms: C_22  and  C_23
REMARK                            x       y       z     vdW  Elec       q    Type
REMARK                         _______ _______ _______ _____ _____    ______ ____
ROOT
ATOM      1  C   UNL     1      47.621   6.592  13.665  0.00  0.00    +0.000 C 
ENDROOT
BRANCH   1   2
ATOM      2  C   UNL     1      46.495   5.822  12.993  0.00  0.00    +0.000 A 
ATOM      3  C   UNL     1      45.754   6.427  11.962  0.00  0.00    +0.000 A 
ATOM      4  C   UNL     1      44.908   5.659  11.155  0.00  0.00    +0.000 A 
ATOM      5  C   UNL     1      44.774   4.292  11.389  0.00  0.00    +0.000 A 
ATOM      6  C   UNL     1      45.378   3.726  12.509  0.00  0.00    +0.000 A 
ATOM      7  C   UNL     1      46.235   4.483  13.302  0.00  0.00    +0.000 A 
BRANCH   5   8
ATOM      8  O   UNL     1      44.064   3.580  10.458  0.00  0.00    +0.000 OA
BRANCH   8   9
ATOM      9  C   UNL     1      44.229   4.057   9.113  0.00  0.00    +0.000 C 
BRANCH   9  10
ATOM     10  C   UNL     1      45.329   3.297   8.418  0.00  0.00    +0.000 A 
ATOM     11  C   UNL     1      45.500   1.937   8.673  0.00  0.00    +0.000 A 
ATOM     12  C   UNL     1      46.489   1.245   7.982  0.00  0.00    +0.000 A 
ATOM     13  C   UNL     1      47.274   1.924   7.058  0.00  0.00    +0.000 A 
ATOM     14  C   UNL     1      47.033   3.273   6.857  0.00  0.00    +0.000 A 
ATOM     15  N   UNL     1      46.078   3.970   7.508  0.00  0.00    +0.000 NA
ENDBRANCH   9  10
ENDBRANCH   8   9
ENDBRANCH   5   8
ENDBRANCH   1   2
BRANCH   1  16
ATOM     16  N   UNL     1      47.911   6.042  14.977  0.00  0.00    +0.000 N 
ATOM     17  C   UNL     1      48.769   6.708  15.819  0.00  0.00    +0.000 C 
ATOM     18  O   UNL     1      49.286   7.780  15.522  0.00  0.00    +0.000 OA
ATOM     19  H   UNL     1      47.670   5.079  15.162  0.00  0.00    +0.000 HD
BRANCH  17  20
ATOM     20  C   UNL     1      48.995   6.088  17.122  0.00  0.00    +0.000 A 
ATOM     21  C   UNL     1      49.584   4.847  17.306  0.00  0.00    +0.000 A 
ATOM     22  S   UNL     1      49.472   4.293  18.923  0.00  0.00    +0.000 S 
ATOM     23  C   UNL     1      48.635   5.694  19.410  0.00  0.00    +0.000 A 
ATOM     24  N   UNL     1      48.150   5.837  20.673  0.00  0.00    +0.000 NA
ATOM     25  C   UNL     1      47.504   6.940  20.870  0.00  0.00    +0.000 A 
ATOM     26  N   UNL     1      47.340   7.932  19.936  0.00  0.00    +0.000 N 
ATOM     27  C   UNL     1      47.940   7.895  18.694  0.00  0.00    +0.000 A 
ATOM     28  O   UNL     1      48.022   8.898  17.999  0.00  0.00    +0.000 OA
ATOM     29  C   UNL     1      48.532   6.608  18.380  0.00  0.00    +0.000 A 
ATOM     30  H   UNL     1      46.916   8.811  20.184  0.00  0.00    +0.000 HD
ENDBRANCH  17  20
ENDBRANCH   1  16
BRANCH   1  31
ATOM     31  C   UNL     1      48.922   6.698  12.806  0.00  0.00    +0.000 C 
BRANCH  31  32
ATOM     32  N   UNL     1      49.313   8.072  12.472  0.00  0.00    +0.000 NA
ATOM     33  H   UNL     1      49.610   8.560  13.314  0.00  0.00    +0.000 HD
ATOM     34  H   UNL     1      48.498   8.574  12.118  0.00  0.00    +0.000 HD
ENDBRANCH  31  32
ENDBRANCH   1  31
TORSDOF 8
ENDMDL
MODEL 7
REMARK VINA RESULT:    -6.910      2.553      4.240
REMARK INTER + INTRA:         -11.257
REMARK INTER:                 -10.308
REMARK INTRA:                  -0.949
REMARK UNBOUND:                -1.318
REMARK  Name = 
REMARK  8 active torsions:
REMARK  status: ('A' for Active; 'I' for Inactive)
REMARK    1  A    between atoms: N_1  and  C_2
REMARK    2  A    between atoms: C_2  and  C_3
REMARK    3  A    between atoms: C_3  and  N_4
REMARK    4  A    between atoms: C_3  and  C_17
REMARK    5  A    between atoms: C_5  and  C_7
REMARK    6  A    between atoms: C_20  and  O_21
REMARK    7  A    between atoms: O_21  and  C_22
REMARK    8  A    between atoms: C_22  and  C_23
REMARK                            x       y       z     vdW  Elec       q    Type
REMARK                         _______ _______ _______ _____ _____    ______ ____
ROOT
ATOM      1  C   UNL     1      47.238   5.177  14.000  0.00  0.00    +0.000 C 
ENDROOT
BRANCH   1   2
ATOM      2  C   UNL     1      46.209   4.793  12.949  0.00  0.00    +0.000 A 
ATOM      3  C   UNL     1      45.905   5.689  11.909  0.00  0.00    +0.000 A 
ATOM      4  C   UNL     1      45.177   5.259  10.795  0.00  0.00    +0.000 A 
ATOM      5  C   UNL     1      44.721   3.944  10.726  0.00  0.00    +0.000 A 
ATOM      6  C   UNL     1      44.879   3.106  11.826  0.00  0.00    +0.000 A 
ATOM      7  C   UNL     1      45.620   3.524  12.928  0.00  0.00    +0.000 A 
BRANCH   5   8
ATOM      8  O   UNL     1      44.166   3.552   9.536  0.00  0.00    +0.000 OA
BRANCH   8   9
ATOM      9  C   UNL     1      44.474   2.199   9.168  0.00  0.00    +0.000 C 
BRANCH   9  10
ATOM     10  C   UNL     1      45.621   2.169   8.191  0.00  0.00    +0.000 A 
ATOM     11  C   UNL     1      45.944   3.315   7.467  0.00  0.00    +0.000 A 
ATOM     12  C   UNL     1      47.038   3.280   6.609  0.00  0.00    +0.000 A 
ATOM     13  C   UNL     1      47.779   2.109   6.500  0.00  0.00    +0.000 A 
ATOM     14  C   UNL     1      47.397   1.018   7.263  0.00  0.00    +0.000 A 
ATOM     15  N   UNL     1      46.343   1.023   8.107  0.00  0.00    +0.000 NA
ENDBRANCH   9  10
ENDBRANCH   8   9
ENDBRANCH   5   8
ENDBRANCH   1   2
BRANCH   1  16
ATOM     16  N   UNL     1      47.465   6.611  13.999  0.00  0.00    +0.000 N 
ATOM     17  C   UNL     1      48.553   7.127  13.337  0.00  0.00    +0.000 C 
ATOM     18  O   UNL     1      49.338   6.423  12.710  0.00  0.00    +0.000 OA
ATOM     19  H   UNL     1      46.965   7.181  14.667  0.00  0.00    +0.000 HD
BRANCH  17  20
ATOM     20  C   UNL     1      48.698   8.580  13.380  0.00  0.00    +0.000 A 
ATOM     21  C   UNL     1      47.792   9.472  12.828  0.00  0.00    +0.000 A 
ATOM     22  S   UNL     1      48.371  11.084  12.818  0.00  0.00    +0.000 S 
ATOM     23  C   UNL     1      49.841  10.625  13.548  0.00  0.00    +0.000 A 
ATOM     24  N   UNL     1      50.849  11.516  13.749  0.00  0.00    +0.000 NA
ATOM     25  C   UNL     1      51.912  11.000  14.276  0.00  0.00    +0.000 A 
ATOM     26  N   UNL     1      52.041   9.690  14.663  0.00  0.00    +0.000 N 
ATOM     27  C   UNL     1      50.996   8.790  14.613  0.00  0.00    +0.000 A 
ATOM     28  O   UNL     1      51.043   7.729  15.220  0.00  0.00    +0.000 OA
ATOM     29  C   UNL     1      49.846   9.285  13.880  0.00  0.00    +0.000 A 
ATOM     30  H   UNL     1      52.858   9.376  15.161  0.00  0.00    +0.000 HD
ENDBRANCH  17  20
ENDBRANCH   1  16
BRANCH   1  31
ATOM     31  C   UNL     1      46.901   4.668  15.438  0.00  0.00    +0.000 C 
BRANCH  31  32
ATOM     32  N   UNL     1      47.835   5.126  16.474  0.00  0.00    +0.000 NA
ATOM     33  H   UNL     1      48.311   4.326  16.884  0.00  0.00    +0.000 HD
ATOM     34  H   UNL     1      47.307   5.567  17.228  0.00  0.00    +0.000 HD
ENDBRANCH  31  32
ENDBRANCH   1  31
TORSDOF 8
ENDMDL
MODEL 8
REMARK VINA RESULT:    -6.888      1.893      2.032
REMARK INTER + INTRA:         -11.226
REMARK INTER:                 -10.323
REMARK INTRA:                  -0.903
REMARK UNBOUND:                -1.318
REMARK  Name = 
REMARK  8 active torsions:
REMARK  status: ('A' for Active; 'I' for Inactive)
REMARK    1  A    between atoms: N_1  and  C_2
REMARK    2  A    between atoms: C_2  and  C_3
REMARK    3  A    between atoms: C_3  and  N_4
REMARK    4  A    between atoms: C_3  and  C_17
REMARK    5  A    between atoms: C_5  and  C_7
REMARK    6  A    between atoms: C_20  and  O_21
REMARK    7  A    between atoms: O_21  and  C_22
REMARK    8  A    between atoms: C_22  and  C_23
REMARK                            x       y       z     vdW  Elec       q    Type
REMARK                         _______ _______ _______ _____ _____    ______ ____
ROOT
ATOM      1  C   UNL     1      47.824   7.448  13.456  0.00  0.00    +0.000 C 
ENDROOT
BRANCH   1   2
ATOM      2  C   UNL     1      46.635   6.722  12.847  0.00  0.00    +0.000 A 
ATOM      3  C   UNL     1      45.730   7.425  12.032  0.00  0.00    +0.000 A 
ATOM      4  C   UNL     1      44.798   6.734  11.251  0.00  0.00    +0.000 A 
ATOM      5  C   UNL     1      44.742   5.342  11.301  0.00  0.00    +0.000 A 
ATOM      6  C   UNL     1      45.524   4.658  12.227  0.00  0.00    +0.000 A 
ATOM      7  C   UNL     1      46.466   5.341  12.992  0.00  0.00    +0.000 A 
BRANCH   5   8
ATOM      8  O   UNL     1      43.925   4.732  10.387  0.00  0.00    +0.000 OA
BRANCH   8   9
ATOM      9  C   UNL     1      44.121   3.312  10.288  0.00  0.00    +0.000 C 
BRANCH   9  10
ATOM     10  C   UNL     1      45.027   2.987   9.128  0.00  0.00    +0.000 A 
ATOM     11  C   UNL     1      45.410   3.995   8.245  0.00  0.00    +0.000 A 
ATOM     12  C   UNL     1      46.287   3.682   7.212  0.00  0.00    +0.000 A 
ATOM     13  C   UNL     1      46.759   2.381   7.091  0.00  0.00    +0.000 A 
ATOM     14  C   UNL     1      46.337   1.441   8.017  0.00  0.00    +0.000 A 
ATOM     15  N   UNL     1      45.491   1.715   9.032  0.00  0.00    +0.000 NA
ENDBRANCH   9  10
ENDBRANCH   8   9
ENDBRANCH   5   8
ENDBRANCH   1   2
BRANCH   1  16
ATOM     16  N   UNL     1      47.811   7.335  14.904  0.00  0.00    +0.000 N 
ATOM     17  C   UNL     1      48.673   8.098  15.654  0.00  0.00    +0.000 C 
ATOM     18  O   UNL     1      49.445   8.909  15.150  0.00  0.00    +0.000 OA
ATOM     19  H   UNL     1      47.345   6.543  15.323  0.00  0.00    +0.000 HD
BRANCH  17  20
ATOM     20  C   UNL     1      48.585   7.928  17.102  0.00  0.00    +0.000 A 
ATOM     21  C   UNL     1      48.316   8.953  17.994  0.00  0.00    +0.000 A 
ATOM     22  S   UNL     1      48.533   8.484  19.627  0.00  0.00    +0.000 S 
ATOM     23  C   UNL     1      48.991   6.907  19.178  0.00  0.00    +0.000 A 
ATOM     24  N   UNL     1      49.404   5.991  20.095  0.00  0.00    +0.000 NA
ATOM     25  C   UNL     1      49.754   4.855  19.587  0.00  0.00    +0.000 A 
ATOM     26  N   UNL     1      49.685   4.534  18.254  0.00  0.00    +0.000 N 
ATOM     27  C   UNL     1      49.135   5.378  17.311  0.00  0.00    +0.000 A 
ATOM     28  O   UNL     1      48.820   4.971  16.202  0.00  0.00    +0.000 OA
ATOM     29  C   UNL     1      48.884   6.716  17.814  0.00  0.00    +0.000 A 
ATOM     30  H   UNL     1      49.875   3.598  17.937  0.00  0.00    +0.000 HD
ENDBRANCH  17  20
ENDBRANCH   1  16
BRANCH   1  31
ATOM     31  C   UNL     1      49.206   7.007  12.876  0.00  0.00    +0.000 C 
BRANCH  31  32
ATOM     32  N   UNL     1      49.879   8.036  12.074  0.00  0.00    +0.000 NA
ATOM     33  H   UNL     1      49.905   7.747  11.098  0.00  0.00    +0.000 HD
ATOM     34  H   UNL     1      50.849   8.115  12.380  0.00  0.00    +0.000 HD
ENDBRANCH  31  32
ENDBRANCH   1  31
TORSDOF 8
ENDMDL
MODEL 9
REMARK VINA RESULT:    -6.509      4.586      7.418
REMARK INTER + INTRA:         -10.681
REMARK INTER:                  -9.110
REMARK INTRA:                  -1.571
REMARK UNBOUND:                -1.318
REMARK  Name = 
REMARK  8 active torsions:
REMARK  status: ('A' for Active; 'I' for Inactive)
REMARK    1  A    between atoms: N_1  and  C_2
REMARK    2  A    between atoms: C_2  and  C_3
REMARK    3  A    between atoms: C_3  and  N_4
REMARK    4  A    between atoms: C_3  and  C_17
REMARK    5  A    between atoms: C_5  and  C_7
REMARK    6  A    between atoms: C_20  and  O_21
REMARK    7  A    between atoms: O_21  and  C_22
REMARK    8  A    between atoms: C_22  and  C_23
REMARK                            x       y       z     vdW  Elec       q    Type
REMARK                         _______ _______ _______ _____ _____    ______ ____
ROOT
ATOM      1  C   UNL     1      47.828   7.604  13.477  0.00  0.00    +0.000 C 
ENDROOT
BRANCH   1   2
ATOM      2  C   UNL     1      48.915   8.405  12.779  0.00  0.00    +0.000 A 
ATOM      3  C   UNL     1      50.182   7.832  12.575  0.00  0.00    +0.000 A 
ATOM      4  C   UNL     1      51.100   8.434  11.708  0.00  0.00    +0.000 A 
ATOM      5  C   UNL     1      50.771   9.625  11.064  0.00  0.00    +0.000 A 
ATOM      6  C   UNL     1      49.585  10.276  11.392  0.00  0.00    +0.000 A 
ATOM      7  C   UNL     1      48.661   9.670  12.238  0.00  0.00    +0.000 A 
BRANCH   5   8
ATOM      8  O   UNL     1      51.647  10.063  10.106  0.00  0.00    +0.000 OA
BRANCH   8   9
ATOM      9  C   UNL     1      52.862   9.300  10.037  0.00  0.00    +0.000 C 
BRANCH   9  10
ATOM     10  C   UNL     1      53.014   8.676   8.673  0.00  0.00    +0.000 A 
ATOM     11  C   UNL     1      52.756   7.317   8.500  0.00  0.00    +0.000 A 
ATOM     12  C   UNL     1      52.853   6.774   7.224  0.00  0.00    +0.000 A 
ATOM     13  C   UNL     1      53.198   7.598   6.160  0.00  0.00    +0.000 A 
ATOM     14  C   UNL     1      53.428   8.939   6.415  0.00  0.00    +0.000 A 
ATOM     15  N   UNL     1      53.338   9.496   7.641  0.00  0.00    +0.000 NA
ENDBRANCH   9  10
ENDBRANCH   8   9
ENDBRANCH   5   8
ENDBRANCH   1   2
BRANCH   1  16
ATOM     16  N   UNL     1      47.320   6.556  12.609  0.00  0.00    +0.000 N 
ATOM     17  C   UNL     1      46.186   6.780  11.865  0.00  0.00    +0.000 C 
ATOM     18  O   UNL     1      45.591   7.853  11.876  0.00  0.00    +0.000 OA
ATOM     19  H   UNL     1      47.661   5.615  12.735  0.00  0.00    +0.000 HD
BRANCH  17  20
ATOM     20  C   UNL     1      45.753   5.677  11.011  0.00  0.00    +0.000 A 
ATOM     21  C   UNL     1      45.875   5.662   9.631  0.00  0.00    +0.000 A 
ATOM     22  S   UNL     1      45.046   4.350   8.907  0.00  0.00    +0.000 S 
ATOM     23  C   UNL     1      44.508   3.776  10.417  0.00  0.00    +0.000 A 
ATOM     24  N   UNL     1      43.662   2.715  10.521  0.00  0.00    +0.000 NA
ATOM     25  C   UNL     1      43.317   2.431  11.735  0.00  0.00    +0.000 A 
ATOM     26  N   UNL     1      43.775   3.079  12.854  0.00  0.00    +0.000 N 
ATOM     27  C   UNL     1      44.744   4.061  12.805  0.00  0.00    +0.000 A 
ATOM     28  O   UNL     1      45.339   4.415  13.813  0.00  0.00    +0.000 OA
ATOM     29  C   UNL     1      45.033   4.516  11.458  0.00  0.00    +0.000 A 
ATOM     30  H   UNL     1      43.548   2.743  13.776  0.00  0.00    +0.000 HD
ENDBRANCH  17  20
ENDBRANCH   1  16
BRANCH   1  31
ATOM     31  C   UNL     1      48.257   7.019  14.861  0.00  0.00    +0.000 C 
BRANCH  31  32
ATOM     32  N   UNL     1      47.890   5.612  15.061  0.00  0.00    +0.000 NA
ATOM     33  H   UNL     1      48.478   5.018  14.481  0.00  0.00    +0.000 HD
ATOM     34  H   UNL     1      46.931   5.470  14.743  0.00  0.00    +0.000 HD
ENDBRANCH  31  32
ENDBRANCH   1  31
TORSDOF 8
ENDMDL
