MODEL 1
REMARK VINA RESULT:    -8.955      0.000      0.000
REMARK INTER + INTRA:         -13.899
REMARK INTER:                 -12.096
REMARK INTRA:                  -1.803
REMARK UNBOUND:                -1.803
REMARK  Name = 
REMARK  8 active torsions:
REMARK  status: ('A' for Active; 'I' for Inactive)
REMARK    1  A    between atoms: C_1  and  C_2
REMARK    2  A    between atoms: C_2  and  C_3
REMARK    3  A    between atoms: C_2  and  C_4
REMARK    4  A    between atoms: C_6  and  C_7
REMARK    5  A    between atoms: C_12  and  N_13
REMARK    6  A    between atoms: N_13  and  C_14
REMARK    7  A    between atoms: C_14  and  C_15
REMARK    8  A    between atoms: C_19  and  C_20
REMARK                            x       y       z     vdW  Elec       q    Type
REMARK                         _______ _______ _______ _____ _____    ______ ____
ROOT
ATOM      1  N   UNL     1      44.508   6.726  12.916  0.00  0.00    +0.000 N 
ATOM      2  H   UNL     1      44.143   7.474  13.500  0.00  0.00    +0.000 HD
ENDROOT
BRANCH   1   8
ATOM      3  C   UNL     1      46.817   6.014  13.242  0.00  0.00    +0.000 A 
ATOM      4  C   UNL     1      48.186   6.293  13.067  0.00  0.00    +0.000 A 
ATOM      5  C   UNL     1      48.606   7.460  12.430  0.00  0.00    +0.000 A 
ATOM      6  C   UNL     1      47.618   8.318  11.988  0.00  0.00    +0.000 A 
ATOM      7  N   UNL     1      46.288   8.080  12.120  0.00  0.00    +0.000 NA
ATOM      8  C   UNL     1      45.888   6.946  12.738  0.00  0.00    +0.000 A 
BRANCH   5   9
ATOM      9  C   UNL     1      50.063   7.704  12.263  0.00  0.00    +0.000 C 
ATOM     10  N   UNL     1      50.854   7.808  13.370  0.00  0.00    +0.000 N 
ATOM     11  O   UNL     1      50.561   7.804  11.147  0.00  0.00    +0.000 OA
ATOM     12  H   UNL     1      50.557   7.718  14.328  0.00  0.00    +0.000 HD
ATOM     13  H   UNL     1      51.841   7.966  13.202  0.00  0.00    +0.000 HD
ENDBRANCH   5   9
BRANCH   3  15
ATOM     14  C   UNL     1      46.474   3.465  13.118  0.00  0.00    +0.000 C 
ATOM     15  C   UNL     1      46.368   4.747  13.958  0.00  0.00    +0.000 C 
ATOM     16  C   UNL     1      47.157   4.570  15.259  0.00  0.00    +0.000 C 
ENDBRANCH   3  15
ENDBRANCH   1   8
BRANCH   1  17
ATOM     17  C   UNL     1      43.755   6.577  11.680  0.00  0.00    +0.000 C 
BRANCH  17  18
ATOM     18  C   UNL     1      43.789   5.141  11.204  0.00  0.00    +0.000 A 
ATOM     19  C   UNL     1      43.094   4.137  11.879  0.00  0.00    +0.000 A 
ATOM     20  C   UNL     1      43.215   2.832  11.430  0.00  0.00    +0.000 A 
ATOM     21  N   UNL     1      43.973   2.462  10.378  0.00  0.00    +0.000 NA
ATOM     22  C   UNL     1      44.661   3.431   9.722  0.00  0.00    +0.000 A 
ATOM     23  C   UNL     1      44.562   4.774  10.092  0.00  0.00    +0.000 A 
BRANCH  22  24
ATOM     24  C   UNL     1      45.552   2.954   8.642  0.00  0.00    +0.000 A 
ATOM     25  C   UNL     1      46.046   3.838   7.659  0.00  0.00    +0.000 A 
ATOM     26  C   UNL     1      46.858   3.392   6.607  0.00  0.00    +0.000 A 
ATOM     27  C   UNL     1      47.183   2.047   6.521  0.00  0.00    +0.000 A 
ATOM     28  F   UNL     1      47.951   1.614   5.512  0.00  0.00    +0.000 F 
ATOM     29  C   UNL     1      46.712   1.155   7.473  0.00  0.00    +0.000 A 
ATOM     30  F   UNL     1      47.017  -0.147   7.388  0.00  0.00    +0.000 F 
ATOM     31  C   UNL     1      45.906   1.595   8.522  0.00  0.00    +0.000 A 
ENDBRANCH  22  24
ENDBRANCH  17  18
ENDBRANCH   1  17
TORSDOF 6
ENDMDL
MODEL 2
REMARK VINA RESULT:    -7.686      2.677      3.655
REMARK INTER + INTRA:         -12.185
REMARK INTER:                 -11.265
REMARK INTRA:                  -0.920
REMARK UNBOUND:                -1.803
REMARK  Name = 
REMARK  8 active torsions:
REMARK  status: ('A' for Active; 'I' for Inactive)
REMARK    1  A    between atoms: C_1  and  C_2
REMARK    2  A    between atoms: C_2  and  C_3
REMARK    3  A    between atoms: C_2  and  C_4
REMARK    4  A    between atoms: C_6  and  C_7
REMARK    5  A    between atoms: C_12  and  N_13
REMARK    6  A    between atoms: N_13  and  C_14
REMARK    7  A    between atoms: C_14  and  C_15
REMARK    8  A    between atoms: C_19  and  C_20
REMARK                            x       y       z     vdW  Elec       q    Type
REMARK                         _______ _______ _______ _____ _____    ______ ____
ROOT
ATOM      1  N   UNL     1      46.609   5.693  13.205  0.00  0.00    +0.000 N 
ATOM      2  H   UNL     1      47.022   5.134  12.464  0.00  0.00    +0.000 HD
ENDROOT
BRANCH   1   8
ATOM      3  C   UNL     1      48.047   6.121  15.128  0.00  0.00    +0.000 A 
ATOM      4  C   UNL     1      48.598   5.644  16.332  0.00  0.00    +0.000 A 
ATOM      5  C   UNL     1      48.292   4.370  16.808  0.00  0.00    +0.000 A 
ATOM      6  C   UNL     1      47.431   3.610  16.042  0.00  0.00    +0.000 A 
ATOM      7  N   UNL     1      46.862   4.036  14.886  0.00  0.00    +0.000 NA
ATOM      8  C   UNL     1      47.163   5.273  14.430  0.00  0.00    +0.000 A 
BRANCH   5   9
ATOM      9  C   UNL     1      48.896   3.917  18.089  0.00  0.00    +0.000 C 
ATOM     10  N   UNL     1      49.807   2.902  18.076  0.00  0.00    +0.000 N 
ATOM     11  O   UNL     1      48.591   4.447  19.151  0.00  0.00    +0.000 OA
ATOM     12  H   UNL     1      50.148   2.413  17.263  0.00  0.00    +0.000 HD
ATOM     13  H   UNL     1      50.195   2.636  18.974  0.00  0.00    +0.000 HD
ENDBRANCH   5   9
BRANCH   3  15
ATOM     14  C   UNL     1      48.558   8.581  15.691  0.00  0.00    +0.000 C 
ATOM     15  C   UNL     1      48.403   7.506  14.605  0.00  0.00    +0.000 C 
ATOM     16  C   UNL     1      49.685   7.438  13.769  0.00  0.00    +0.000 C 
ENDBRANCH   3  15
ENDBRANCH   1   8
BRANCH   1  17
ATOM     17  C   UNL     1      45.154   5.674  13.161  0.00  0.00    +0.000 C 
BRANCH  17  18
ATOM     18  C   UNL     1      44.662   4.621  12.192  0.00  0.00    +0.000 A 
ATOM     19  C   UNL     1      43.585   3.793  12.506  0.00  0.00    +0.000 A 
ATOM     20  C   UNL     1      43.222   2.808  11.603  0.00  0.00    +0.000 A 
ATOM     21  N   UNL     1      43.852   2.588  10.431  0.00  0.00    +0.000 NA
ATOM     22  C   UNL     1      44.908   3.383  10.121  0.00  0.00    +0.000 A 
ATOM     23  C   UNL     1      45.312   4.421  10.965  0.00  0.00    +0.000 A 
BRANCH  22  24
ATOM     24  C   UNL     1      45.621   3.032   8.874  0.00  0.00    +0.000 A 
ATOM     25  C   UNL     1      45.961   4.019   7.924  0.00  0.00    +0.000 A 
ATOM     26  C   UNL     1      46.599   3.695   6.719  0.00  0.00    +0.000 A 
ATOM     27  C   UNL     1      46.903   2.371   6.445  0.00  0.00    +0.000 A 
ATOM     28  F   UNL     1      47.505   2.055   5.290  0.00  0.00    +0.000 F 
ATOM     29  C   UNL     1      46.581   1.379   7.359  0.00  0.00    +0.000 A 
ATOM     30  F   UNL     1      46.864   0.097   7.093  0.00  0.00    +0.000 F 
ATOM     31  C   UNL     1      45.948   1.697   8.560  0.00  0.00    +0.000 A 
ENDBRANCH  22  24
ENDBRANCH  17  18
ENDBRANCH   1  17
TORSDOF 6
ENDMDL
MODEL 3
REMARK VINA RESULT:    -6.921      1.658      2.145
REMARK INTER + INTRA:         -11.152
REMARK INTER:                 -10.326
REMARK INTRA:                  -0.827
REMARK UNBOUND:                -1.803
REMARK  Name = 
REMARK  8 active torsions:
REMARK  status: ('A' for Active; 'I' for Inactive)
REMARK    1  A    between atoms: C_1  and  C_2
REMARK    2  A    between atoms: C_2  and  C_3
REMARK    3  A    between atoms: C_2  and  C_4
REMARK    4  A    between atoms: C_6  and  C_7
REMARK    5  A    between atoms: C_12  and  N_13
REMARK    6  A    between atoms: N_13  and  C_14
REMARK    7  A    between atoms: C_14  and  C_15
REMARK    8  A    between atoms: C_19  and  C_20
REMARK                            x       y       z     vdW  Elec       q    Type
REMARK                         _______ _______ _______ _____ _____    ______ ____
ROOT
ATOM      1  N   UNL     1      46.513   6.653  13.602  0.00  0.00    +0.000 N 
ATOM      2  H   UNL     1      46.430   6.910  14.582  0.00  0.00    +0.000 HD
ENDROOT
BRANCH   1   8
ATOM      3  C   UNL     1      48.811   7.326  14.065  0.00  0.00    +0.000 A 
ATOM      4  C   UNL     1      50.042   7.784  13.560  0.00  0.00    +0.000 A 
ATOM      5  C   UNL     1      50.223   8.003  12.195  0.00  0.00    +0.000 A 
ATOM      6  C   UNL     1      49.140   7.753  11.376  0.00  0.00    +0.000 A 
ATOM      7  N   UNL     1      47.941   7.293  11.817  0.00  0.00    +0.000 NA
ATOM      8  C   UNL     1      47.773   7.083  13.143  0.00  0.00    +0.000 A 
BRANCH   5   9
ATOM      9  C   UNL     1      51.546   8.480  11.712  0.00  0.00    +0.000 C 
ATOM     10  N   UNL     1      52.427   7.582  11.185  0.00  0.00    +0.000 N 
ATOM     11  O   UNL     1      51.849   9.666  11.776  0.00  0.00    +0.000 OA
ATOM     12  H   UNL     1      52.274   6.594  11.061  0.00  0.00    +0.000 HD
ATOM     13  H   UNL     1      53.312   7.959  10.863  0.00  0.00    +0.000 HD
ENDBRANCH   5   9
BRANCH   3  15
ATOM     14  C   UNL     1      49.799   6.432  16.269  0.00  0.00    +0.000 C 
ATOM     15  C   UNL     1      48.616   7.110  15.560  0.00  0.00    +0.000 C 
ATOM     16  C   UNL     1      48.305   8.442  16.248  0.00  0.00    +0.000 C 
ENDBRANCH   3  15
ENDBRANCH   1   8
BRANCH   1  17
ATOM     17  C   UNL     1      45.387   7.128  12.812  0.00  0.00    +0.000 C 
BRANCH  17  18
ATOM     18  C   UNL     1      44.729   5.981  12.075  0.00  0.00    +0.000 A 
ATOM     19  C   UNL     1      43.529   5.426  12.522  0.00  0.00    +0.000 A 
ATOM     20  C   UNL     1      43.010   4.338  11.840  0.00  0.00    +0.000 A 
ATOM     21  N   UNL     1      43.595   3.769  10.767  0.00  0.00    +0.000 NA
ATOM     22  C   UNL     1      44.768   4.297  10.332  0.00  0.00    +0.000 A 
ATOM     23  C   UNL     1      45.337   5.416  10.945  0.00  0.00    +0.000 A 
BRANCH  22  24
ATOM     24  C   UNL     1      45.414   3.572   9.216  0.00  0.00    +0.000 A 
ATOM     25  C   UNL     1      45.971   4.264   8.119  0.00  0.00    +0.000 A 
ATOM     26  C   UNL     1      46.548   3.588   7.036  0.00  0.00    +0.000 A 
ATOM     27  C   UNL     1      46.572   2.202   7.033  0.00  0.00    +0.000 A 
ATOM     28  F   UNL     1      47.114   1.551   5.995  0.00  0.00    +0.000 F 
ATOM     29  C   UNL     1      46.032   1.494   8.097  0.00  0.00    +0.000 A 
ATOM     30  F   UNL     1      46.045   0.154   8.093  0.00  0.00    +0.000 F 
ATOM     31  C   UNL     1      45.458   2.163   9.177  0.00  0.00    +0.000 A 
ENDBRANCH  22  24
ENDBRANCH  17  18
ENDBRANCH   1  17
TORSDOF 6
ENDMDL
MODEL 4
REMARK VINA RESULT:    -6.831      2.160      2.570
REMARK INTER + INTRA:         -11.030
REMARK INTER:                 -10.170
REMARK INTRA:                  -0.860
REMARK UNBOUND:                -1.803
REMARK  Name = 
REMARK  8 active torsions:
REMARK  status: ('A' for Active; 'I' for Inactive)
REMARK    1  A    between atoms: C_1  and  C_2
REMARK    2  A    between atoms: C_2  and  C_3
REMARK    3  A    between atoms: C_2  and  C_4
REMARK    4  A    between atoms: C_6  and  C_7
REMARK    5  A    between atoms: C_12  and  N_13
REMARK    6  A    between atoms: N_13  and  C_14
REMARK    7  A    between atoms: C_14  and  C_15
REMARK    8  A    between atoms: C_19  and  C_20
REMARK                            x       y       z     vdW  Elec       q    Type
REMARK                         _______ _______ _______ _____ _____    ______ ____
ROOT
ATOM      1  N   UNL     1      46.856   4.533  13.919  0.00  0.00    +0.000 N 
ATOM      2  H   UNL     1      46.775   3.711  14.512  0.00  0.00    +0.000 HD
ENDROOT
BRANCH   1   8
ATOM      3  C   UNL     1      48.078   5.303  15.884  0.00  0.00    +0.000 A 
ATOM      4  C   UNL     1      48.997   6.217  16.432  0.00  0.00    +0.000 A 
ATOM      5  C   UNL     1      49.591   7.201  15.642  0.00  0.00    +0.000 A 
ATOM      6  C   UNL     1      49.231   7.230  14.309  0.00  0.00    +0.000 A 
ATOM      7  N   UNL     1      48.364   6.357  13.735  0.00  0.00    +0.000 NA
ATOM      8  C   UNL     1      47.792   5.406  14.508  0.00  0.00    +0.000 A 
BRANCH   5   9
ATOM      9  C   UNL     1      50.561   8.138  16.268  0.00  0.00    +0.000 C 
ATOM     10  N   UNL     1      50.101   9.281  16.854  0.00  0.00    +0.000 N 
ATOM     11  O   UNL     1      51.762   7.892  16.270  0.00  0.00    +0.000 OA
ATOM     12  H   UNL     1      49.140   9.570  16.932  0.00  0.00    +0.000 HD
ATOM     13  H   UNL     1      50.802   9.882  17.274  0.00  0.00    +0.000 HD
ENDBRANCH   5   9
BRANCH   3  15
ATOM     14  C   UNL     1      48.202   2.929  16.874  0.00  0.00    +0.000 C 
ATOM     15  C   UNL     1      47.418   4.245  16.759  0.00  0.00    +0.000 C 
ATOM     16  C   UNL     1      47.159   4.808  18.160  0.00  0.00    +0.000 C 
ENDBRANCH   3  15
ENDBRANCH   1   8
BRANCH   1  17
ATOM     17  C   UNL     1      45.562   5.136  13.634  0.00  0.00    +0.000 C 
BRANCH  17  18
ATOM     18  C   UNL     1      44.871   4.407  12.502  0.00  0.00    +0.000 A 
ATOM     19  C   UNL     1      43.590   3.875  12.657  0.00  0.00    +0.000 A 
ATOM     20  C   UNL     1      43.037   3.165  11.604  0.00  0.00    +0.000 A 
ATOM     21  N   UNL     1      43.661   2.945  10.430  0.00  0.00    +0.000 NA
ATOM     22  C   UNL     1      44.912   3.450  10.274  0.00  0.00    +0.000 A 
ATOM     23  C   UNL     1      45.523   4.208  11.276  0.00  0.00    +0.000 A 
BRANCH  22  24
ATOM     24  C   UNL     1      45.586   3.094   9.007  0.00  0.00    +0.000 A 
ATOM     25  C   UNL     1      45.881   4.073   8.035  0.00  0.00    +0.000 A 
ATOM     26  C   UNL     1      46.482   3.743   6.813  0.00  0.00    +0.000 A 
ATOM     27  C   UNL     1      46.792   2.419   6.543  0.00  0.00    +0.000 A 
ATOM     28  F   UNL     1      47.358   2.096   5.371  0.00  0.00    +0.000 F 
ATOM     29  C   UNL     1      46.513   1.434   7.479  0.00  0.00    +0.000 A 
ATOM     30  F   UNL     1      46.803   0.152   7.217  0.00  0.00    +0.000 F 
ATOM     31  C   UNL     1      45.917   1.759   8.696  0.00  0.00    +0.000 A 
ENDBRANCH  22  24
ENDBRANCH  17  18
ENDBRANCH   1  17
TORSDOF 6
ENDMDL
MODEL 5
REMARK VINA RESULT:    -6.742      3.416      5.206
REMARK INTER + INTRA:         -10.910
REMARK INTER:                  -9.818
REMARK INTRA:                  -1.092
REMARK UNBOUND:                -1.803
REMARK  Name = 
REMARK  8 active torsions:
REMARK  status: ('A' for Active; 'I' for Inactive)
REMARK    1  A    between atoms: C_1  and  C_2
REMARK    2  A    between atoms: C_2  and  C_3
REMARK    3  A    between atoms: C_2  and  C_4
REMARK    4  A    between atoms: C_6  and  C_7
REMARK    5  A    between atoms: C_12  and  N_13
REMARK    6  A    between atoms: N_13  and  C_14
REMARK    7  A    between atoms: C_14  and  C_15
REMARK    8  A    between atoms: C_19  and  C_20
REMARK                            x       y       z     vdW  Elec       q    Type
REMARK                         _______ _______ _______ _____ _____    ______ ____
ROOT
ATOM      1  N   UNL     1      48.275   6.878  15.612  0.00  0.00    +0.000 N 
ATOM      2  H   UNL     1      48.065   7.670  16.213  0.00  0.00    +0.000 HD
ENDROOT
BRANCH   1   8
ATOM      3  C   UNL     1      48.830   4.786  16.735  0.00  0.00    +0.000 A 
ATOM      4  C   UNL     1      49.792   4.021  17.420  0.00  0.00    +0.000 A 
ATOM      5  C   UNL     1      51.075   4.517  17.649  0.00  0.00    +0.000 A 
ATOM      6  C   UNL     1      51.345   5.786  17.176  0.00  0.00    +0.000 A 
ATOM      7  N   UNL     1      50.454   6.550  16.495  0.00  0.00    +0.000 NA
ATOM      8  C   UNL     1      49.212   6.062  16.276  0.00  0.00    +0.000 A 
BRANCH   5   9
ATOM      9  C   UNL     1      52.057   3.666  18.371  0.00  0.00    +0.000 C 
ATOM     10  N   UNL     1      52.071   2.321  18.142  0.00  0.00    +0.000 N 
ATOM     11  O   UNL     1      52.855   4.157  19.162  0.00  0.00    +0.000 OA
ATOM     12  H   UNL     1      51.482   1.817  17.499  0.00  0.00    +0.000 HD
ATOM     13  H   UNL     1      52.765   1.787  18.653  0.00  0.00    +0.000 HD
ENDBRANCH   5   9
BRANCH   3  15
ATOM     14  C   UNL     1      47.146   3.768  15.073  0.00  0.00    +0.000 C 
ATOM     15  C   UNL     1      47.424   4.243  16.507  0.00  0.00    +0.000 C 
ATOM     16  C   UNL     1      47.136   3.102  17.487  0.00  0.00    +0.000 C 
ENDBRANCH   3  15
ENDBRANCH   1   8
BRANCH   1  17
ATOM     17  C   UNL     1      48.674   7.292  14.275  0.00  0.00    +0.000 C 
BRANCH  17  18
ATOM     18  C   UNL     1      47.469   7.388  13.364  0.00  0.00    +0.000 A 
ATOM     19  C   UNL     1      46.654   8.521  13.356  0.00  0.00    +0.000 A 
ATOM     20  C   UNL     1      45.532   8.523  12.545  0.00  0.00    +0.000 A 
ATOM     21  N   UNL     1      45.165   7.490  11.759  0.00  0.00    +0.000 NA
ATOM     22  C   UNL     1      45.946   6.380  11.768  0.00  0.00    +0.000 A 
ATOM     23  C   UNL     1      47.114   6.316  12.533  0.00  0.00    +0.000 A 
BRANCH  22  24
ATOM     24  C   UNL     1      45.442   5.244  10.967  0.00  0.00    +0.000 A 
ATOM     25  C   UNL     1      44.780   4.156  11.575  0.00  0.00    +0.000 A 
ATOM     26  C   UNL     1      44.334   3.055  10.833  0.00  0.00    +0.000 A 
ATOM     27  C   UNL     1      44.551   3.024   9.464  0.00  0.00    +0.000 A 
ATOM     28  F   UNL     1      44.135   1.968   8.751  0.00  0.00    +0.000 F 
ATOM     29  C   UNL     1      45.199   4.078   8.838  0.00  0.00    +0.000 A 
ATOM     30  F   UNL     1      45.419   4.047   7.516  0.00  0.00    +0.000 F 
ATOM     31  C   UNL     1      45.643   5.177   9.573  0.00  0.00    +0.000 A 
ENDBRANCH  22  24
ENDBRANCH  17  18
ENDBRANCH   1  17
TORSDOF 6
ENDMDL
MODEL 6
REMARK VINA RESULT:    -6.628      1.279      2.449
REMARK INTER + INTRA:         -10.757
REMARK INTER:                 -10.211
REMARK INTRA:                  -0.545
REMARK UNBOUND:                -1.803
REMARK  Name = 
REMARK  8 active torsions:
REMARK  status: ('A' for Active; 'I' for Inactive)
REMARK    1  A    between atoms: C_1  and  C_2
REMARK    2  A    between atoms: C_2  and  C_3
REMARK    3  A    between atoms: C_2  and  C_4
REMARK    4  A    between atoms: C_6  and  C_7
REMARK    5  A    between atoms: C_12  and  N_13
REMARK    6  A    between atoms: N_13  and  C_14
REMARK    7  A    between atoms: C_14  and  C_15
REMARK    8  A    between atoms: C_19  and  C_20
REMARK                            x       y       z     vdW  Elec       q    Type
REMARK                         _______ _______ _______ _____ _____    ______ ____
ROOT
ATOM      1  N   UNL     1      44.221   6.907  12.674  0.00  0.00    +0.000 N 
ATOM      2  H   UNL     1      43.752   7.667  13.160  0.00  0.00    +0.000 HD
ENDROOT
BRANCH   1   8
ATOM      3  C   UNL     1      46.076   8.384  12.102  0.00  0.00    +0.000 A 
ATOM      4  C   UNL     1      47.467   8.599  12.089  0.00  0.00    +0.000 A 
ATOM      5  C   UNL     1      48.346   7.645  12.601  0.00  0.00    +0.000 A 
ATOM      6  C   UNL     1      47.785   6.492  13.112  0.00  0.00    +0.000 A 
ATOM      7  N   UNL     1      46.450   6.252  13.163  0.00  0.00    +0.000 NA
ATOM      8  C   UNL     1      45.603   7.182  12.665  0.00  0.00    +0.000 A 
BRANCH   5   9
ATOM      9  C   UNL     1      49.806   7.924  12.569  0.00  0.00    +0.000 C 
ATOM     10  N   UNL     1      50.617   7.153  11.788  0.00  0.00    +0.000 N 
ATOM     11  O   UNL     1      50.287   8.839  13.229  0.00  0.00    +0.000 OA
ATOM     12  H   UNL     1      50.328   6.396  11.189  0.00  0.00    +0.000 HD
ATOM     13  H   UNL     1      51.603   7.389  11.796  0.00  0.00    +0.000 HD
ENDBRANCH   5   9
BRANCH   3  15
ATOM     14  C   UNL     1      44.147  10.035  12.538  0.00  0.00    +0.000 C 
ATOM     15  C   UNL     1      45.124   9.422  11.522  0.00  0.00    +0.000 C 
ATOM     16  C   UNL     1      45.917  10.540  10.840  0.00  0.00    +0.000 C 
ENDBRANCH   3  15
ENDBRANCH   1   8
BRANCH   1  17
ATOM     17  C   UNL     1      43.645   6.656  11.361  0.00  0.00    +0.000 C 
BRANCH  17  18
ATOM     18  C   UNL     1      43.741   5.188  11.007  0.00  0.00    +0.000 A 
ATOM     19  C   UNL     1      43.095   4.215  11.771  0.00  0.00    +0.000 A 
ATOM     20  C   UNL     1      43.271   2.883  11.433  0.00  0.00    +0.000 A 
ATOM     21  N   UNL     1      44.040   2.459  10.409  0.00  0.00    +0.000 NA
ATOM     22  C   UNL     1      44.681   3.399   9.667  0.00  0.00    +0.000 A 
ATOM     23  C   UNL     1      44.524   4.763   9.924  0.00  0.00    +0.000 A 
BRANCH  22  24
ATOM     24  C   UNL     1      45.586   2.872   8.624  0.00  0.00    +0.000 A 
ATOM     25  C   UNL     1      46.125   3.716   7.628  0.00  0.00    +0.000 A 
ATOM     26  C   UNL     1      46.950   3.223   6.610  0.00  0.00    +0.000 A 
ATOM     27  C   UNL     1      47.247   1.869   6.570  0.00  0.00    +0.000 A 
ATOM     28  F   UNL     1      48.029   1.391   5.592  0.00  0.00    +0.000 F 
ATOM     29  C   UNL     1      46.733   1.015   7.534  0.00  0.00    +0.000 A 
ATOM     30  F   UNL     1      47.010  -0.296   7.493  0.00  0.00    +0.000 F 
ATOM     31  C   UNL     1      45.912   1.502   8.550  0.00  0.00    +0.000 A 
ENDBRANCH  22  24
ENDBRANCH  17  18
ENDBRANCH   1  17
TORSDOF 6
ENDMDL
MODEL 7
REMARK VINA RESULT:    -6.413      5.575      8.832
REMARK INTER + INTRA:         -10.466
REMARK INTER:                  -9.635
REMARK INTRA:                  -0.831
REMARK UNBOUND:                -1.803
REMARK  Name = 
REMARK  8 active torsions:
REMARK  status: ('A' for Active; 'I' for Inactive)
REMARK    1  A    between atoms: C_1  and  C_2
REMARK    2  A    between atoms: C_2  and  C_3
REMARK    3  A    between atoms: C_2  and  C_4
REMARK    4  A    between atoms: C_6  and  C_7
REMARK    5  A    between atoms: C_12  and  N_13
REMARK    6  A    between atoms: N_13  and  C_14
REMARK    7  A    between atoms: C_14  and  C_15
REMARK    8  A    between atoms: C_19  and  C_20
REMARK                            x       y       z     vdW  Elec       q    Type
REMARK                         _______ _______ _______ _____ _____    ______ ____
ROOT
ATOM      1  N   UNL     1      47.350   5.228  14.980  0.00  0.00    +0.000 N 
ATOM      2  H   UNL     1      47.139   6.184  15.253  0.00  0.00    +0.000 HD
ENDROOT
BRANCH   1   8
ATOM      3  C   UNL     1      46.378   5.968  12.869  0.00  0.00    +0.000 A 
ATOM      4  C   UNL     1      45.632   5.641  11.722  0.00  0.00    +0.000 A 
ATOM      5  C   UNL     1      45.149   4.348  11.524  0.00  0.00    +0.000 A 
ATOM      6  C   UNL     1      45.436   3.419  12.504  0.00  0.00    +0.000 A 
ATOM      7  N   UNL     1      46.167   3.686  13.616  0.00  0.00    +0.000 NA
ATOM      8  C   UNL     1      46.633   4.942  13.801  0.00  0.00    +0.000 A 
BRANCH   5   9
ATOM      9  C   UNL     1      44.372   4.052  10.291  0.00  0.00    +0.000 C 
ATOM     10  N   UNL     1      44.644   4.745   9.147  0.00  0.00    +0.000 N 
ATOM     11  O   UNL     1      43.499   3.191  10.288  0.00  0.00    +0.000 OA
ATOM     12  H   UNL     1      45.352   5.451   9.029  0.00  0.00    +0.000 HD
ATOM     13  H   UNL     1      44.092   4.500   8.333  0.00  0.00    +0.000 HD
ENDBRANCH   5   9
BRANCH   3  15
ATOM     14  C   UNL     1      48.037   7.807  12.162  0.00  0.00    +0.000 C 
ATOM     15  C   UNL     1      46.884   7.388  13.088  0.00  0.00    +0.000 C 
ATOM     16  C   UNL     1      45.730   8.385  12.948  0.00  0.00    +0.000 C 
ENDBRANCH   3  15
ENDBRANCH   1   8
BRANCH   1  17
ATOM     17  C   UNL     1      47.128   4.284  16.066  0.00  0.00    +0.000 C 
BRANCH  17  18
ATOM     18  C   UNL     1      48.245   4.369  17.084  0.00  0.00    +0.000 A 
ATOM     19  C   UNL     1      48.230   5.326  18.099  0.00  0.00    +0.000 A 
ATOM     20  C   UNL     1      49.312   5.392  18.961  0.00  0.00    +0.000 A 
ATOM     21  N   UNL     1      50.393   4.591  18.881  0.00  0.00    +0.000 NA
ATOM     22  C   UNL     1      50.420   3.663  17.890  0.00  0.00    +0.000 A 
ATOM     23  C   UNL     1      49.352   3.511  17.003  0.00  0.00    +0.000 A 
BRANCH  22  24
ATOM     24  C   UNL     1      51.671   2.881  17.789  0.00  0.00    +0.000 A 
ATOM     25  C   UNL     1      51.649   1.499  17.500  0.00  0.00    +0.000 A 
ATOM     26  C   UNL     1      52.824   0.738  17.443  0.00  0.00    +0.000 A 
ATOM     27  C   UNL     1      54.045   1.352  17.679  0.00  0.00    +0.000 A 
ATOM     28  F   UNL     1      55.170   0.626  17.634  0.00  0.00    +0.000 F 
ATOM     29  C   UNL     1      54.098   2.708  17.965  0.00  0.00    +0.000 A 
ATOM     30  F   UNL     1      55.275   3.302  18.204  0.00  0.00    +0.000 F 
ATOM     31  C   UNL     1      52.932   3.469  18.022  0.00  0.00    +0.000 A 
ENDBRANCH  22  24
ENDBRANCH  17  18
ENDBRANCH   1  17
TORSDOF 6
ENDMDL
MODEL 8
REMARK VINA RESULT:    -6.239      3.858      5.618
REMARK INTER + INTRA:         -10.231
REMARK INTER:                  -9.289
REMARK INTRA:                  -0.942
REMARK UNBOUND:                -1.803
REMARK  Name = 
REMARK  8 active torsions:
REMARK  status: ('A' for Active; 'I' for Inactive)
REMARK    1  A    between atoms: C_1  and  C_2
REMARK    2  A    between atoms: C_2  and  C_3
REMARK    3  A    between atoms: C_2  and  C_4
REMARK    4  A    between atoms: C_6  and  C_7
REMARK    5  A    between atoms: C_12  and  N_13
REMARK    6  A    between atoms: N_13  and  C_14
REMARK    7  A    between atoms: C_14  and  C_15
REMARK    8  A    between atoms: C_19  and  C_20
REMARK                            x       y       z     vdW  Elec       q    Type
REMARK                         _______ _______ _______ _____ _____    ______ ____
ROOT
ATOM      1  N   UNL     1      48.701   8.172  15.039  0.00  0.00    +0.000 N 
ATOM      2  H   UNL     1      49.433   8.852  15.225  0.00  0.00    +0.000 HD
ENDROOT
BRANCH   1   8
ATOM      3  C   UNL     1      48.535   7.734  17.432  0.00  0.00    +0.000 A 
ATOM      4  C   UNL     1      48.539   6.786  18.472  0.00  0.00    +0.000 A 
ATOM      5  C   UNL     1      48.688   5.425  18.205  0.00  0.00    +0.000 A 
ATOM      6  C   UNL     1      48.831   5.064  16.880  0.00  0.00    +0.000 A 
ATOM      7  N   UNL     1      48.813   5.942  15.845  0.00  0.00    +0.000 NA
ATOM      8  C   UNL     1      48.669   7.260  16.112  0.00  0.00    +0.000 A 
BRANCH   5   9
ATOM      9  C   UNL     1      48.678   4.464  19.339  0.00  0.00    +0.000 C 
ATOM     10  N   UNL     1      48.365   3.157  19.104  0.00  0.00    +0.000 N 
ATOM     11  O   UNL     1      48.955   4.829  20.476  0.00  0.00    +0.000 OA
ATOM     12  H   UNL     1      48.147   2.744  18.212  0.00  0.00    +0.000 HD
ATOM     13  H   UNL     1      48.380   2.541  19.909  0.00  0.00    +0.000 HD
ENDBRANCH   5   9
BRANCH   3  15
ATOM     14  C   UNL     1      47.405   9.552  18.864  0.00  0.00    +0.000 C 
ATOM     15  C   UNL     1      48.394   9.220  17.736  0.00  0.00    +0.000 C 
ATOM     16  C   UNL     1      49.763   9.821  18.066  0.00  0.00    +0.000 C 
ENDBRANCH   3  15
ENDBRANCH   1   8
BRANCH   1  17
ATOM     17  C   UNL     1      48.841   7.558  13.727  0.00  0.00    +0.000 C 
BRANCH  17  18
ATOM     18  C   UNL     1      47.516   7.553  12.995  0.00  0.00    +0.000 A 
ATOM     19  C   UNL     1      46.595   8.589  13.156  0.00  0.00    +0.000 A 
ATOM     20  C   UNL     1      45.375   8.496  12.508  0.00  0.00    +0.000 A 
ATOM     21  N   UNL     1      45.011   7.458  11.728  0.00  0.00    +0.000 NA
ATOM     22  C   UNL     1      45.897   6.440  11.574  0.00  0.00    +0.000 A 
ATOM     23  C   UNL     1      47.161   6.478  12.167  0.00  0.00    +0.000 A 
BRANCH  22  24
ATOM     24  C   UNL     1      45.406   5.286  10.792  0.00  0.00    +0.000 A 
ATOM     25  C   UNL     1      44.665   4.251  11.403  0.00  0.00    +0.000 A 
ATOM     26  C   UNL     1      44.229   3.131  10.682  0.00  0.00    +0.000 A 
ATOM     27  C   UNL     1      44.534   3.028   9.334  0.00  0.00    +0.000 A 
ATOM     28  F   UNL     1      44.128   1.954   8.643  0.00  0.00    +0.000 F 
ATOM     29  C   UNL     1      45.261   4.029   8.706  0.00  0.00    +0.000 A 
ATOM     30  F   UNL     1      45.566   3.928   7.405  0.00  0.00    +0.000 F 
ATOM     31  C   UNL     1      45.695   5.146   9.419  0.00  0.00    +0.000 A 
ENDBRANCH  22  24
ENDBRANCH  17  18
ENDBRANCH   1  17
TORSDOF 6
ENDMDL
MODEL 9
REMARK VINA RESULT:    -6.036      3.481      5.184
REMARK INTER + INTRA:          -9.956
REMARK INTER:                  -9.028
REMARK INTRA:                  -0.927
REMARK UNBOUND:                -1.803
REMARK  Name = 
REMARK  8 active torsions:
REMARK  status: ('A' for Active; 'I' for Inactive)
REMARK    1  A    between atoms: C_1  and  C_2
REMARK    2  A    between atoms: C_2  and  C_3
REMARK    3  A    between atoms: C_2  and  C_4
REMARK    4  A    between atoms: C_6  and  C_7
REMARK    5  A    between atoms: C_12  and  N_13
REMARK    6  A    between atoms: N_13  and  C_14
REMARK    7  A    between atoms: C_14  and  C_15
REMARK    8  A    between atoms: C_19  and  C_20
REMARK                            x       y       z     vdW  Elec       q    Type
REMARK                         _______ _______ _______ _____ _____    ______ ____
ROOT
ATOM      1  N   UNL     1      48.927   6.531  14.574  0.00  0.00    +0.000 N 
ATOM      2  H   UNL     1      48.343   5.759  14.263  0.00  0.00    +0.000 HD
ENDROOT
BRANCH   1   8
ATOM      3  C   UNL     1      48.212   5.666  16.739  0.00  0.00    +0.000 A 
ATOM      4  C   UNL     1      47.965   5.922  18.101  0.00  0.00    +0.000 A 
ATOM      5  C   UNL     1      48.173   7.189  18.644  0.00  0.00    +0.000 A 
ATOM      6  C   UNL     1      48.628   8.168  17.783  0.00  0.00    +0.000 A 
ATOM      7  N   UNL     1      48.898   7.961  16.469  0.00  0.00    +0.000 NA
ATOM      8  C   UNL     1      48.693   6.729  15.949  0.00  0.00    +0.000 A 
BRANCH   5   9
ATOM      9  C   UNL     1      47.904   7.405  20.090  0.00  0.00    +0.000 C 
ATOM     10  N   UNL     1      47.407   6.377  20.838  0.00  0.00    +0.000 N 
ATOM     11  O   UNL     1      48.129   8.488  20.618  0.00  0.00    +0.000 OA
ATOM     12  H   UNL     1      47.209   5.443  20.516  0.00  0.00    +0.000 HD
ATOM     13  H   UNL     1      47.248   6.574  21.819  0.00  0.00    +0.000 HD
ENDBRANCH   5   9
BRANCH   3  15
ATOM     14  C   UNL     1      47.559   3.214  17.177  0.00  0.00    +0.000 C 
ATOM     15  C   UNL     1      47.961   4.284  16.150  0.00  0.00    +0.000 C 
ATOM     16  C   UNL     1      46.894   4.365  15.054  0.00  0.00    +0.000 C 
ENDBRANCH   3  15
ENDBRANCH   1   8
BRANCH   1  17
ATOM     17  C   UNL     1      48.751   7.720  13.753  0.00  0.00    +0.000 C 
BRANCH  17  18
ATOM     18  C   UNL     1      47.431   7.668  13.014  0.00  0.00    +0.000 A 
ATOM     19  C   UNL     1      46.477   8.675  13.162  0.00  0.00    +0.000 A 
ATOM     20  C   UNL     1      45.264   8.538  12.507  0.00  0.00    +0.000 A 
ATOM     21  N   UNL     1      44.937   7.483  11.734  0.00  0.00    +0.000 NA
ATOM     22  C   UNL     1      45.856   6.493  11.593  0.00  0.00    +0.000 A 
ATOM     23  C   UNL     1      47.115   6.576  12.192  0.00  0.00    +0.000 A 
BRANCH  22  24
ATOM     24  C   UNL     1      45.406   5.318  10.817  0.00  0.00    +0.000 A 
ATOM     25  C   UNL     1      44.710   4.256  11.435  0.00  0.00    +0.000 A 
ATOM     26  C   UNL     1      44.314   3.118  10.720  0.00  0.00    +0.000 A 
ATOM     27  C   UNL     1      44.615   3.023   9.371  0.00  0.00    +0.000 A 
ATOM     28  F   UNL     1      44.247   1.932   8.685  0.00  0.00    +0.000 F 
ATOM     29  C   UNL     1      45.298   4.050   8.736  0.00  0.00    +0.000 A 
ATOM     30  F   UNL     1      45.599   3.957   7.433  0.00  0.00    +0.000 F 
ATOM     31  C   UNL     1      45.692   5.185   9.443  0.00  0.00    +0.000 A 
ENDBRANCH  22  24
ENDBRANCH  17  18
ENDBRANCH   1  17
TORSDOF 6
ENDMDL
