MODEL 1
REMARK VINA RESULT:    -8.630      0.000      0.000
REMARK INTER + INTRA:         -13.076
REMARK INTER:                 -12.161
REMARK INTRA:                  -0.915
REMARK UNBOUND:                -0.915
REMARK  Name = 
REMARK  10 active torsions:
REMARK  status: ('A' for Active; 'I' for Inactive)
REMARK    1  A    between atoms: C_1  and  C_2
REMARK    2  A    between atoms: C_2  and  C_3
REMARK    3  A    between atoms: C_5  and  O_6
REMARK    4  A    between atoms: O_6  and  C_7
REMARK    5  A    between atoms: C_12  and  C_13
REMARK    6  A    between atoms: C_13  and  C_16
REMARK    7  A    between atoms: C_16  and  N_17
REMARK    8  A    between atoms: N_17  and  C_18
REMARK    9  A    between atoms: C_21  and  S_22
REMARK   10  A    between atoms: S_22  and  C_23
REMARK                            x       y       z     vdW  Elec       q    Type
REMARK                         _______ _______ _______ _____ _____    ______ ____
ROOT
ATOM      1  C   UNL     1      43.323   5.076  12.632  0.00  0.00    +0.000 C 
ATOM      2  F   UNL     1      42.656   4.511  13.684  0.00  0.00    +0.000 F 
ATOM      3  F   UNL     1      42.652   6.243  12.372  0.00  0.00    +0.000 F 
ENDROOT
BRANCH   1   9
ATOM      4  C   UNL     1      46.915   4.766  14.019  0.00  0.00    +0.000 A 
ATOM      5  C   UNL     1      47.444   5.998  13.656  0.00  0.00    +0.000 A 
ATOM      6  C   UNL     1      46.647   6.895  12.958  0.00  0.00    +0.000 A 
ATOM      7  F   UNL     1      47.158   8.075  12.588  0.00  0.00    +0.000 F 
ATOM      8  C   UNL     1      45.331   6.586  12.628  0.00  0.00    +0.000 A 
ATOM      9  C   UNL     1      44.772   5.355  13.007  0.00  0.00    +0.000 A 
ATOM     10  C   UNL     1      45.586   4.454  13.716  0.00  0.00    +0.000 A 
BRANCH   4  11
ATOM     11  O   UNL     1      47.622   3.794  14.682  0.00  0.00    +0.000 OA
BRANCH  11  16
ATOM     12  C   UNL     1      48.435   4.038  19.096  0.00  0.00    +0.000 C 
ATOM     13  C   UNL     1      49.137   3.923  17.743  0.00  0.00    +0.000 C 
ATOM     14  C   UNL     1      50.655   3.877  17.895  0.00  0.00    +0.000 C 
ATOM     15  C   UNL     1      48.652   4.964  16.704  0.00  0.00    +0.000 C 
ATOM     16  C   UNL     1      47.690   3.895  16.123  0.00  0.00    +0.000 C 
ATOM     17  C   UNL     1      48.562   2.820  16.814  0.00  0.00    +0.000 C 
ENDBRANCH  11  16
ENDBRANCH   4  11
ENDBRANCH   1   9
BRANCH   1  18
ATOM     18  C   UNL     1      43.149   4.156  11.397  0.00  0.00    +0.000 C 
BRANCH  18  19
ATOM     19  N   UNL     1      43.620   4.742  10.124  0.00  0.00    +0.000 N 
ATOM     20  H   UNL     1      43.879   5.725  10.227  0.00  0.00    +0.000 HD
BRANCH  19  21
ATOM     21  C   UNL     1      44.543   3.999   9.377  0.00  0.00    +0.000 A 
ATOM     22  C   UNL     1      44.581   2.599   9.386  0.00  0.00    +0.000 A 
ATOM     23  C   UNL     1      45.464   1.901   8.565  0.00  0.00    +0.000 A 
ATOM     24  C   UNL     1      46.278   2.644   7.732  0.00  0.00    +0.000 A 
ATOM     25  N   UNL     1      46.276   3.998   7.644  0.00  0.00    +0.000 NA
ATOM     26  C   UNL     1      45.392   4.628   8.455  0.00  0.00    +0.000 A 
BRANCH  24  27
ATOM     27  S   UNL     1      47.410   1.803   6.656  0.00  0.00    +0.000 S 
ATOM     28  C   UNL     1      47.039   2.394   5.029  0.00  0.00    +0.000 C 
ATOM     29  O   UNL     1      48.746   2.258   7.002  0.00  0.00    +0.000 OA
ATOM     30  O   UNL     1      47.075   0.390   6.705  0.00  0.00    +0.000 OA
ENDBRANCH  24  27
ENDBRANCH  19  21
ENDBRANCH  18  19
ENDBRANCH   1  18
TORSDOF 7
ENDMDL
MODEL 2
REMARK VINA RESULT:    -7.970      1.368      1.770
REMARK INTER + INTRA:         -12.147
REMARK INTER:                 -11.072
REMARK INTRA:                  -1.075
REMARK UNBOUND:                -0.915
REMARK  Name = 
REMARK  10 active torsions:
REMARK  status: ('A' for Active; 'I' for Inactive)
REMARK    1  A    between atoms: C_1  and  C_2
REMARK    2  A    between atoms: C_2  and  C_3
REMARK    3  A    between atoms: C_5  and  O_6
REMARK    4  A    between atoms: O_6  and  C_7
REMARK    5  A    between atoms: C_12  and  C_13
REMARK    6  A    between atoms: C_13  and  C_16
REMARK    7  A    between atoms: C_16  and  N_17
REMARK    8  A    between atoms: N_17  and  C_18
REMARK    9  A    between atoms: C_21  and  S_22
REMARK   10  A    between atoms: S_22  and  C_23
REMARK                            x       y       z     vdW  Elec       q    Type
REMARK                         _______ _______ _______ _____ _____    ______ ____
ROOT
ATOM      1  C   UNL     1      44.687   4.562  12.740  0.00  0.00    +0.000 C 
ATOM      2  F   UNL     1      44.867   3.216  12.579  0.00  0.00    +0.000 F 
ATOM      3  F   UNL     1      43.776   4.679  13.757  0.00  0.00    +0.000 F 
ENDROOT
BRANCH   1   9
ATOM      4  C   UNL     1      47.947   5.586  14.542  0.00  0.00    +0.000 A 
ATOM      5  C   UNL     1      48.423   6.569  13.684  0.00  0.00    +0.000 A 
ATOM      6  C   UNL     1      47.702   6.870  12.537  0.00  0.00    +0.000 A 
ATOM      7  F   UNL     1      48.167   7.803  11.697  0.00  0.00    +0.000 F 
ATOM      8  C   UNL     1      46.510   6.216  12.241  0.00  0.00    +0.000 A 
ATOM      9  C   UNL     1      46.002   5.236  13.108  0.00  0.00    +0.000 A 
ATOM     10  C   UNL     1      46.738   4.939  14.268  0.00  0.00    +0.000 A 
BRANCH   4  11
ATOM     11  O   UNL     1      48.593   5.186  15.685  0.00  0.00    +0.000 OA
BRANCH  11  16
ATOM     12  C   UNL     1      47.482   6.521  19.830  0.00  0.00    +0.000 C 
ATOM     13  C   UNL     1      48.268   5.448  19.078  0.00  0.00    +0.000 C 
ATOM     14  C   UNL     1      48.933   4.459  20.031  0.00  0.00    +0.000 C 
ATOM     15  C   UNL     1      49.233   6.022  18.011  0.00  0.00    +0.000 C 
ATOM     16  C   UNL     1      48.148   5.768  16.932  0.00  0.00    +0.000 C 
ATOM     17  C   UNL     1      47.485   4.776  17.917  0.00  0.00    +0.000 C 
ENDBRANCH  11  16
ENDBRANCH   4  11
ENDBRANCH   1   9
BRANCH   1  18
ATOM     18  C   UNL     1      44.022   5.119  11.455  0.00  0.00    +0.000 C 
BRANCH  18  19
ATOM     19  N   UNL     1      43.507   4.083  10.534  0.00  0.00    +0.000 N 
ATOM     20  H   UNL     1      42.580   4.317  10.174  0.00  0.00    +0.000 HD
BRANCH  19  21
ATOM     21  C   UNL     1      44.382   3.605   9.551  0.00  0.00    +0.000 A 
ATOM     22  C   UNL     1      45.161   4.447   8.748  0.00  0.00    +0.000 A 
ATOM     23  C   UNL     1      46.077   3.925   7.837  0.00  0.00    +0.000 A 
ATOM     24  C   UNL     1      46.197   2.550   7.778  0.00  0.00    +0.000 A 
ATOM     25  N   UNL     1      45.503   1.672   8.544  0.00  0.00    +0.000 NA
ATOM     26  C   UNL     1      44.633   2.232   9.420  0.00  0.00    +0.000 A 
BRANCH  24  27
ATOM     27  S   UNL     1      47.360   1.833   6.645  0.00  0.00    +0.000 S 
ATOM     28  C   UNL     1      47.010   2.578   5.078  0.00  0.00    +0.000 C 
ATOM     29  O   UNL     1      48.683   2.267   7.062  0.00  0.00    +0.000 OA
ATOM     30  O   UNL     1      47.043   0.418   6.548  0.00  0.00    +0.000 OA
ENDBRANCH  24  27
ENDBRANCH  19  21
ENDBRANCH  18  19
ENDBRANCH   1  18
TORSDOF 7
ENDMDL
MODEL 3
REMARK VINA RESULT:    -7.720      3.193      7.970
REMARK INTER + INTRA:         -11.794
REMARK INTER:                 -10.976
REMARK INTRA:                  -0.818
REMARK UNBOUND:                -0.915
REMARK  Name = 
REMARK  10 active torsions:
REMARK  status: ('A' for Active; 'I' for Inactive)
REMARK    1  A    between atoms: C_1  and  C_2
REMARK    2  A    between atoms: C_2  and  C_3
REMARK    3  A    between atoms: C_5  and  O_6
REMARK    4  A    between atoms: O_6  and  C_7
REMARK    5  A    between atoms: C_12  and  C_13
REMARK    6  A    between atoms: C_13  and  C_16
REMARK    7  A    between atoms: C_16  and  N_17
REMARK    8  A    between atoms: N_17  and  C_18
REMARK    9  A    between atoms: C_21  and  S_22
REMARK   10  A    between atoms: S_22  and  C_23
REMARK                            x       y       z     vdW  Elec       q    Type
REMARK                         _______ _______ _______ _____ _____    ______ ____
ROOT
ATOM      1  C   UNL     1      45.692   7.694  12.060  0.00  0.00    +0.000 C 
ATOM      2  F   UNL     1      45.361   8.684  11.176  0.00  0.00    +0.000 F 
ATOM      3  F   UNL     1      45.330   8.181  13.289  0.00  0.00    +0.000 F 
ENDROOT
BRANCH   1   9
ATOM      4  C   UNL     1      44.171   4.653  10.228  0.00  0.00    +0.000 A 
ATOM      5  C   UNL     1      43.476   4.042  11.264  0.00  0.00    +0.000 A 
ATOM      6  C   UNL     1      43.525   4.605  12.532  0.00  0.00    +0.000 A 
ATOM      7  F   UNL     1      42.874   4.010  13.538  0.00  0.00    +0.000 F 
ATOM      8  C   UNL     1      44.244   5.771  12.777  0.00  0.00    +0.000 A 
ATOM      9  C   UNL     1      44.933   6.414  11.737  0.00  0.00    +0.000 A 
ATOM     10  C   UNL     1      44.877   5.838  10.456  0.00  0.00    +0.000 A 
BRANCH   4  11
ATOM     11  O   UNL     1      44.218   4.166   8.945  0.00  0.00    +0.000 OA
BRANCH  11  16
ATOM     12  C   UNL     1      47.617   1.724   7.307  0.00  0.00    +0.000 C 
ATOM     13  C   UNL     1      46.569   2.759   6.900  0.00  0.00    +0.000 C 
ATOM     14  C   UNL     1      46.680   3.129   5.425  0.00  0.00    +0.000 C 
ATOM     15  C   UNL     1      46.514   3.987   7.843  0.00  0.00    +0.000 C 
ATOM     16  C   UNL     1      45.338   3.318   8.602  0.00  0.00    +0.000 C 
ATOM     17  C   UNL     1      45.123   2.422   7.359  0.00  0.00    +0.000 C 
ENDBRANCH  11  16
ENDBRANCH   4  11
ENDBRANCH   1   9
BRANCH   1  18
ATOM     18  C   UNL     1      47.234   7.540  12.058  0.00  0.00    +0.000 C 
BRANCH  18  19
ATOM     19  N   UNL     1      47.878   7.801  13.363  0.00  0.00    +0.000 N 
ATOM     20  H   UNL     1      47.509   8.641  13.811  0.00  0.00    +0.000 HD
BRANCH  19  21
ATOM     21  C   UNL     1      48.015   6.717  14.240  0.00  0.00    +0.000 A 
ATOM     22  C   UNL     1      48.589   6.831  15.512  0.00  0.00    +0.000 A 
ATOM     23  C   UNL     1      48.631   5.742  16.380  0.00  0.00    +0.000 A 
ATOM     24  C   UNL     1      48.066   4.561  15.942  0.00  0.00    +0.000 A 
ATOM     25  N   UNL     1      47.464   4.381  14.740  0.00  0.00    +0.000 NA
ATOM     26  C   UNL     1      47.441   5.474  13.938  0.00  0.00    +0.000 A 
BRANCH  24  27
ATOM     27  S   UNL     1      48.080   3.147  17.015  0.00  0.00    +0.000 S 
ATOM     28  C   UNL     1      48.935   3.672  18.473  0.00  0.00    +0.000 C 
ATOM     29  O   UNL     1      46.699   2.875  17.380  0.00  0.00    +0.000 OA
ATOM     30  O   UNL     1      48.887   2.127  16.367  0.00  0.00    +0.000 OA
ENDBRANCH  24  27
ENDBRANCH  19  21
ENDBRANCH  18  19
ENDBRANCH   1  18
TORSDOF 7
ENDMDL
MODEL 4
REMARK VINA RESULT:    -7.599      2.488      4.303
REMARK INTER + INTRA:         -11.624
REMARK INTER:                 -11.032
REMARK INTRA:                  -0.592
REMARK UNBOUND:                -0.915
REMARK  Name = 
REMARK  10 active torsions:
REMARK  status: ('A' for Active; 'I' for Inactive)
REMARK    1  A    between atoms: C_1  and  C_2
REMARK    2  A    between atoms: C_2  and  C_3
REMARK    3  A    between atoms: C_5  and  O_6
REMARK    4  A    between atoms: O_6  and  C_7
REMARK    5  A    between atoms: C_12  and  C_13
REMARK    6  A    between atoms: C_13  and  C_16
REMARK    7  A    between atoms: C_16  and  N_17
REMARK    8  A    between atoms: N_17  and  C_18
REMARK    9  A    between atoms: C_21  and  S_22
REMARK   10  A    between atoms: S_22  and  C_23
REMARK                            x       y       z     vdW  Elec       q    Type
REMARK                         _______ _______ _______ _____ _____    ______ ____
ROOT
ATOM      1  C   UNL     1      43.391   4.673  12.631  0.00  0.00    +0.000 C 
ATOM      2  F   UNL     1      43.400   3.485  13.309  0.00  0.00    +0.000 F 
ATOM      3  F   UNL     1      42.312   5.356  13.128  0.00  0.00    +0.000 F 
ENDROOT
BRANCH   1   9
ATOM      4  C   UNL     1      46.099   7.424  12.757  0.00  0.00    +0.000 A 
ATOM      5  C   UNL     1      47.133   6.746  13.389  0.00  0.00    +0.000 A 
ATOM      6  C   UNL     1      46.936   5.429  13.780  0.00  0.00    +0.000 A 
ATOM      7  F   UNL     1      47.922   4.777  14.408  0.00  0.00    +0.000 F 
ATOM      8  C   UNL     1      45.730   4.777  13.539  0.00  0.00    +0.000 A 
ATOM      9  C   UNL     1      44.683   5.439  12.880  0.00  0.00    +0.000 A 
ATOM     10  C   UNL     1      44.892   6.773  12.486  0.00  0.00    +0.000 A 
BRANCH   4  11
ATOM     11  O   UNL     1      46.174   8.735  12.357  0.00  0.00    +0.000 OA
BRANCH  11  16
ATOM     12  C   UNL     1      49.993  11.088  12.632  0.00  0.00    +0.000 C 
ATOM     13  C   UNL     1      48.868  10.723  11.666  0.00  0.00    +0.000 C 
ATOM     14  C   UNL     1      49.065  11.367  10.297  0.00  0.00    +0.000 C 
ATOM     15  C   UNL     1      47.452  10.943  12.254  0.00  0.00    +0.000 C 
ATOM     16  C   UNL     1      47.406   9.440  12.635  0.00  0.00    +0.000 C 
ATOM     17  C   UNL     1      48.539   9.206  11.607  0.00  0.00    +0.000 C 
ENDBRANCH  11  16
ENDBRANCH   4  11
ENDBRANCH   1   9
BRANCH   1  18
ATOM     18  C   UNL     1      43.104   4.375  11.137  0.00  0.00    +0.000 C 
BRANCH  18  19
ATOM     19  N   UNL     1      44.025   5.041  10.192  0.00  0.00    +0.000 N 
ATOM     20  H   UNL     1      44.518   5.824  10.623  0.00  0.00    +0.000 HD
BRANCH  19  21
ATOM     21  C   UNL     1      44.855   4.219   9.419  0.00  0.00    +0.000 A 
ATOM     22  C   UNL     1      44.801   2.820   9.462  0.00  0.00    +0.000 A 
ATOM     23  C   UNL     1      45.590   2.044   8.617  0.00  0.00    +0.000 A 
ATOM     24  C   UNL     1      46.407   2.711   7.725  0.00  0.00    +0.000 A 
ATOM     25  N   UNL     1      46.491   4.059   7.600  0.00  0.00    +0.000 NA
ATOM     26  C   UNL     1      45.695   4.766   8.438  0.00  0.00    +0.000 A 
BRANCH  24  27
ATOM     27  S   UNL     1      47.422   1.770   6.614  0.00  0.00    +0.000 S 
ATOM     28  C   UNL     1      47.059   2.396   4.999  0.00  0.00    +0.000 C 
ATOM     29  O   UNL     1      48.805   2.098   6.920  0.00  0.00    +0.000 OA
ATOM     30  O   UNL     1      46.958   0.394   6.675  0.00  0.00    +0.000 OA
ENDBRANCH  24  27
ENDBRANCH  19  21
ENDBRANCH  18  19
ENDBRANCH   1  18
TORSDOF 7
ENDMDL
MODEL 5
REMARK VINA RESULT:    -7.424      2.934      4.140
REMARK INTER + INTRA:         -11.377
REMARK INTER:                 -10.418
REMARK INTRA:                  -0.959
REMARK UNBOUND:                -0.915
REMARK  Name = 
REMARK  10 active torsions:
REMARK  status: ('A' for Active; 'I' for Inactive)
REMARK    1  A    between atoms: C_1  and  C_2
REMARK    2  A    between atoms: C_2  and  C_3
REMARK    3  A    between atoms: C_5  and  O_6
REMARK    4  A    between atoms: O_6  and  C_7
REMARK    5  A    between atoms: C_12  and  C_13
REMARK    6  A    between atoms: C_13  and  C_16
REMARK    7  A    between atoms: C_16  and  N_17
REMARK    8  A    between atoms: N_17  and  C_18
REMARK    9  A    between atoms: C_21  and  S_22
REMARK   10  A    between atoms: S_22  and  C_23
REMARK                            x       y       z     vdW  Elec       q    Type
REMARK                         _______ _______ _______ _____ _____    ______ ____
ROOT
ATOM      1  C   UNL     1      44.933   5.154  12.485  0.00  0.00    +0.000 C 
ATOM      2  F   UNL     1      45.848   4.182  12.186  0.00  0.00    +0.000 F 
ATOM      3  F   UNL     1      44.317   4.720  13.630  0.00  0.00    +0.000 F 
ENDROOT
BRANCH   1   9
ATOM      4  C   UNL     1      47.554   7.875  13.287  0.00  0.00    +0.000 A 
ATOM      5  C   UNL     1      46.797   9.027  13.120  0.00  0.00    +0.000 A 
ATOM      6  C   UNL     1      45.468   8.910  12.735  0.00  0.00    +0.000 A 
ATOM      7  F   UNL     1      44.739  10.018  12.553  0.00  0.00    +0.000 F 
ATOM      8  C   UNL     1      44.883   7.664  12.527  0.00  0.00    +0.000 A 
ATOM      9  C   UNL     1      45.628   6.489  12.713  0.00  0.00    +0.000 A 
ATOM     10  C   UNL     1      46.972   6.617  13.105  0.00  0.00    +0.000 A 
BRANCH   4  11
ATOM     11  O   UNL     1      48.882   7.875  13.633  0.00  0.00    +0.000 OA
BRANCH  11  16
ATOM     12  C   UNL     1      51.849   9.906  10.935  0.00  0.00    +0.000 C 
ATOM     13  C   UNL     1      51.283   8.531  11.289  0.00  0.00    +0.000 C 
ATOM     14  C   UNL     1      51.916   7.425  10.451  0.00  0.00    +0.000 C 
ATOM     15  C   UNL     1      49.734   8.485  11.305  0.00  0.00    +0.000 C 
ATOM     16  C   UNL     1      49.771   8.696  12.841  0.00  0.00    +0.000 C 
ATOM     17  C   UNL     1      51.245   8.226  12.811  0.00  0.00    +0.000 C 
ENDBRANCH  11  16
ENDBRANCH   4  11
ENDBRANCH   1   9
BRANCH   1  18
ATOM     18  C   UNL     1      43.864   5.174  11.363  0.00  0.00    +0.000 C 
BRANCH  18  19
ATOM     19  N   UNL     1      43.594   3.855  10.750  0.00  0.00    +0.000 N 
ATOM     20  H   UNL     1      42.602   3.720  10.552  0.00  0.00    +0.000 HD
BRANCH  19  21
ATOM     21  C   UNL     1      44.431   3.451   9.702  0.00  0.00    +0.000 A 
ATOM     22  C   UNL     1      45.120   4.354   8.883  0.00  0.00    +0.000 A 
ATOM     23  C   UNL     1      46.004   3.905   7.904  0.00  0.00    +0.000 A 
ATOM     24  C   UNL     1      46.185   2.540   7.793  0.00  0.00    +0.000 A 
ATOM     25  N   UNL     1      45.581   1.606   8.569  0.00  0.00    +0.000 NA
ATOM     26  C   UNL     1      44.740   2.097   9.512  0.00  0.00    +0.000 A 
BRANCH  24  27
ATOM     27  S   UNL     1      47.312   1.916   6.572  0.00  0.00    +0.000 S 
ATOM     28  C   UNL     1      46.837   2.693   5.054  0.00  0.00    +0.000 C 
ATOM     29  O   UNL     1      48.636   2.399   6.927  0.00  0.00    +0.000 OA
ATOM     30  O   UNL     1      47.054   0.491   6.443  0.00  0.00    +0.000 OA
ENDBRANCH  24  27
ENDBRANCH  19  21
ENDBRANCH  18  19
ENDBRANCH   1  18
TORSDOF 7
ENDMDL
MODEL 6
REMARK VINA RESULT:    -7.415      2.906      5.514
REMARK INTER + INTRA:         -11.364
REMARK INTER:                 -10.680
REMARK INTRA:                  -0.684
REMARK UNBOUND:                -0.915
REMARK  Name = 
REMARK  10 active torsions:
REMARK  status: ('A' for Active; 'I' for Inactive)
REMARK    1  A    between atoms: C_1  and  C_2
REMARK    2  A    between atoms: C_2  and  C_3
REMARK    3  A    between atoms: C_5  and  O_6
REMARK    4  A    between atoms: O_6  and  C_7
REMARK    5  A    between atoms: C_12  and  C_13
REMARK    6  A    between atoms: C_13  and  C_16
REMARK    7  A    between atoms: C_16  and  N_17
REMARK    8  A    between atoms: N_17  and  C_18
REMARK    9  A    between atoms: C_21  and  S_22
REMARK   10  A    between atoms: S_22  and  C_23
REMARK                            x       y       z     vdW  Elec       q    Type
REMARK                         _______ _______ _______ _____ _____    ______ ____
ROOT
ATOM      1  C   UNL     1      45.029   5.019  12.580  0.00  0.00    +0.000 C 
ATOM      2  F   UNL     1      45.718   3.855  12.376  0.00  0.00    +0.000 F 
ATOM      3  F   UNL     1      44.352   4.828  13.757  0.00  0.00    +0.000 F 
ENDROOT
BRANCH   1   9
ATOM      4  C   UNL     1      46.653   8.513  12.303  0.00  0.00    +0.000 A 
ATOM      5  C   UNL     1      47.862   8.293  12.951  0.00  0.00    +0.000 A 
ATOM      6  C   UNL     1      48.124   7.036  13.480  0.00  0.00    +0.000 A 
ATOM      7  F   UNL     1      49.279   6.824  14.123  0.00  0.00    +0.000 F 
ATOM      8  C   UNL     1      47.206   5.997  13.362  0.00  0.00    +0.000 A 
ATOM      9  C   UNL     1      45.989   6.195  12.691  0.00  0.00    +0.000 A 
ATOM     10  C   UNL     1      45.733   7.470  12.156  0.00  0.00    +0.000 A 
BRANCH   4  11
ATOM     11  O   UNL     1      46.278   9.721  11.771  0.00  0.00    +0.000 OA
BRANCH  11  16
ATOM     12  C   UNL     1      41.992  11.046  11.491  0.00  0.00    +0.000 C 
ATOM     13  C   UNL     1      43.285  10.961  10.680  0.00  0.00    +0.000 C 
ATOM     14  C   UNL     1      43.103  11.503   9.265  0.00  0.00    +0.000 C 
ATOM     15  C   UNL     1      43.954   9.565  10.726  0.00  0.00    +0.000 C 
ATOM     16  C   UNL     1      44.879  10.075  11.862  0.00  0.00    +0.000 C 
ATOM     17  C   UNL     1      44.538  11.516  11.412  0.00  0.00    +0.000 C 
ENDBRANCH  11  16
ENDBRANCH   4  11
ENDBRANCH   1   9
BRANCH   1  18
ATOM     18  C   UNL     1      43.973   5.161  11.455  0.00  0.00    +0.000 C 
BRANCH  18  19
ATOM     19  N   UNL     1      43.615   3.891  10.787  0.00  0.00    +0.000 N 
ATOM     20  H   UNL     1      42.620   3.841  10.566  0.00  0.00    +0.000 HD
BRANCH  19  21
ATOM     21  C   UNL     1      44.441   3.462   9.740  0.00  0.00    +0.000 A 
ATOM     22  C   UNL     1      45.139   4.345   8.907  0.00  0.00    +0.000 A 
ATOM     23  C   UNL     1      46.011   3.872   7.930  0.00  0.00    +0.000 A 
ATOM     24  C   UNL     1      46.172   2.503   7.833  0.00  0.00    +0.000 A 
ATOM     25  N   UNL     1      45.557   1.587   8.623  0.00  0.00    +0.000 NA
ATOM     26  C   UNL     1      44.728   2.101   9.564  0.00  0.00    +0.000 A 
BRANCH  24  27
ATOM     27  S   UNL     1      47.283   1.848   6.614  0.00  0.00    +0.000 S 
ATOM     28  C   UNL     1      46.766   2.559   5.078  0.00  0.00    +0.000 C 
ATOM     29  O   UNL     1      48.606   2.363   6.923  0.00  0.00    +0.000 OA
ATOM     30  O   UNL     1      47.044   0.416   6.546  0.00  0.00    +0.000 OA
ENDBRANCH  24  27
ENDBRANCH  19  21
ENDBRANCH  18  19
ENDBRANCH   1  18
TORSDOF 7
ENDMDL
MODEL 7
REMARK VINA RESULT:    -7.074      3.918      8.949
REMARK INTER + INTRA:         -10.883
REMARK INTER:                 -10.162
REMARK INTRA:                  -0.721
REMARK UNBOUND:                -0.915
REMARK  Name = 
REMARK  10 active torsions:
REMARK  status: ('A' for Active; 'I' for Inactive)
REMARK    1  A    between atoms: C_1  and  C_2
REMARK    2  A    between atoms: C_2  and  C_3
REMARK    3  A    between atoms: C_5  and  O_6
REMARK    4  A    between atoms: O_6  and  C_7
REMARK    5  A    between atoms: C_12  and  C_13
REMARK    6  A    between atoms: C_13  and  C_16
REMARK    7  A    between atoms: C_16  and  N_17
REMARK    8  A    between atoms: N_17  and  C_18
REMARK    9  A    between atoms: C_21  and  S_22
REMARK   10  A    between atoms: S_22  and  C_23
REMARK                            x       y       z     vdW  Elec       q    Type
REMARK                         _______ _______ _______ _____ _____    ______ ____
ROOT
ATOM      1  C   UNL     1      46.858   6.671  12.655  0.00  0.00    +0.000 C 
ATOM      2  F   UNL     1      47.657   7.293  11.734  0.00  0.00    +0.000 F 
ATOM      3  F   UNL     1      46.455   7.668  13.505  0.00  0.00    +0.000 F 
ENDROOT
BRANCH   1   9
ATOM      4  C   UNL     1      44.522   5.018  10.060  0.00  0.00    +0.000 A 
ATOM      5  C   UNL     1      43.372   4.841  10.817  0.00  0.00    +0.000 A 
ATOM      6  C   UNL     1      43.373   5.237  12.148  0.00  0.00    +0.000 A 
ATOM      7  F   UNL     1      42.274   5.050  12.888  0.00  0.00    +0.000 F 
ATOM      8  C   UNL     1      44.498   5.815  12.728  0.00  0.00    +0.000 A 
ATOM      9  C   UNL     1      45.662   6.022  11.971  0.00  0.00    +0.000 A 
ATOM     10  C   UNL     1      45.651   5.621  10.624  0.00  0.00    +0.000 A 
BRANCH   4  11
ATOM     11  O   UNL     1      44.642   4.636   8.747  0.00  0.00    +0.000 OA
BRANCH  11  16
ATOM     12  C   UNL     1      47.537   1.548   7.235  0.00  0.00    +0.000 C 
ATOM     13  C   UNL     1      46.649   2.701   6.769  0.00  0.00    +0.000 C 
ATOM     14  C   UNL     1      46.753   2.922   5.263  0.00  0.00    +0.000 C 
ATOM     15  C   UNL     1      46.830   3.996   7.598  0.00  0.00    +0.000 C 
ATOM     16  C   UNL     1      45.598   3.593   8.449  0.00  0.00    +0.000 C 
ATOM     17  C   UNL     1      45.190   2.641   7.298  0.00  0.00    +0.000 C 
ENDBRANCH  11  16
ENDBRANCH   4  11
ENDBRANCH   1   9
BRANCH   1  18
ATOM     18  C   UNL     1      47.736   5.691  13.473  0.00  0.00    +0.000 C 
BRANCH  18  19
ATOM     19  N   UNL     1      47.077   5.134  14.674  0.00  0.00    +0.000 N 
ATOM     20  H   UNL     1      46.571   4.271  14.468  0.00  0.00    +0.000 HD
BRANCH  19  21
ATOM     21  C   UNL     1      47.834   5.070  15.850  0.00  0.00    +0.000 A 
ATOM     22  C   UNL     1      47.917   3.919  16.643  0.00  0.00    +0.000 A 
ATOM     23  C   UNL     1      48.746   3.876  17.761  0.00  0.00    +0.000 A 
ATOM     24  C   UNL     1      49.494   5.003  18.038  0.00  0.00    +0.000 A 
ATOM     25  N   UNL     1      49.493   6.142  17.301  0.00  0.00    +0.000 NA
ATOM     26  C   UNL     1      48.678   6.127  16.219  0.00  0.00    +0.000 A 
BRANCH  24  27
ATOM     27  S   UNL     1      50.579   4.996  19.444  0.00  0.00    +0.000 S 
ATOM     28  C   UNL     1      51.233   6.638  19.541  0.00  0.00    +0.000 C 
ATOM     29  O   UNL     1      49.752   4.774  20.618  0.00  0.00    +0.000 OA
ATOM     30  O   UNL     1      51.676   4.096  19.131  0.00  0.00    +0.000 OA
ENDBRANCH  24  27
ENDBRANCH  19  21
ENDBRANCH  18  19
ENDBRANCH   1  18
TORSDOF 7
ENDMDL
MODEL 8
REMARK VINA RESULT:    -6.975      2.784      4.149
REMARK INTER + INTRA:         -10.744
REMARK INTER:                  -9.844
REMARK INTRA:                  -0.901
REMARK UNBOUND:                -0.915
REMARK  Name = 
REMARK  10 active torsions:
REMARK  status: ('A' for Active; 'I' for Inactive)
REMARK    1  A    between atoms: C_1  and  C_2
REMARK    2  A    between atoms: C_2  and  C_3
REMARK    3  A    between atoms: C_5  and  O_6
REMARK    4  A    between atoms: O_6  and  C_7
REMARK    5  A    between atoms: C_12  and  C_13
REMARK    6  A    between atoms: C_13  and  C_16
REMARK    7  A    between atoms: C_16  and  N_17
REMARK    8  A    between atoms: N_17  and  C_18
REMARK    9  A    between atoms: C_21  and  S_22
REMARK   10  A    between atoms: S_22  and  C_23
REMARK                            x       y       z     vdW  Elec       q    Type
REMARK                         _______ _______ _______ _____ _____    ______ ____
ROOT
ATOM      1  C   UNL     1      44.464   5.733  12.229  0.00  0.00    +0.000 C 
ATOM      2  F   UNL     1      43.387   6.286  12.865  0.00  0.00    +0.000 F 
ATOM      3  F   UNL     1      44.524   6.369  11.016  0.00  0.00    +0.000 F 
ENDROOT
BRANCH   1   9
ATOM      4  C   UNL     1      47.663   7.302  13.723  0.00  0.00    +0.000 A 
ATOM      5  C   UNL     1      48.089   6.281  14.562  0.00  0.00    +0.000 A 
ATOM      6  C   UNL     1      47.333   5.119  14.648  0.00  0.00    +0.000 A 
ATOM      7  F   UNL     1      47.729   4.140  15.471  0.00  0.00    +0.000 F 
ATOM      8  C   UNL     1      46.170   4.958  13.902  0.00  0.00    +0.000 A 
ATOM      9  C   UNL     1      45.737   5.970  13.031  0.00  0.00    +0.000 A 
ATOM     10  C   UNL     1      46.509   7.142  12.949  0.00  0.00    +0.000 A 
BRANCH   4  11
ATOM     11  O   UNL     1      48.313   8.503  13.585  0.00  0.00    +0.000 OA
BRANCH  11  16
ATOM     12  C   UNL     1      51.672   9.159  10.671  0.00  0.00    +0.000 C 
ATOM     13  C   UNL     1      51.254   9.438  12.114  0.00  0.00    +0.000 C 
ATOM     14  C   UNL     1      52.329  10.206  12.877  0.00  0.00    +0.000 C 
ATOM     15  C   UNL     1      50.741   8.184  12.864  0.00  0.00    +0.000 C 
ATOM     16  C   UNL     1      49.289   8.606  12.522  0.00  0.00    +0.000 C 
ATOM     17  C   UNL     1      49.827  10.034  12.264  0.00  0.00    +0.000 C 
ENDBRANCH  11  16
ENDBRANCH   4  11
ENDBRANCH   1   9
BRANCH   1  18
ATOM     18  C   UNL     1      44.151   4.241  11.955  0.00  0.00    +0.000 C 
BRANCH  18  19
ATOM     19  N   UNL     1      43.548   3.974  10.631  0.00  0.00    +0.000 N 
ATOM     20  H   UNL     1      42.934   4.732  10.330  0.00  0.00    +0.000 HD
BRANCH  19  21
ATOM     21  C   UNL     1      44.399   3.511   9.620  0.00  0.00    +0.000 A 
ATOM     22  C   UNL     1      45.113   4.366   8.772  0.00  0.00    +0.000 A 
ATOM     23  C   UNL     1      46.009   3.861   7.833  0.00  0.00    +0.000 A 
ATOM     24  C   UNL     1      46.177   2.491   7.791  0.00  0.00    +0.000 A 
ATOM     25  N   UNL     1      45.548   1.602   8.599  0.00  0.00    +0.000 NA
ATOM     26  C   UNL     1      44.696   2.146   9.501  0.00  0.00    +0.000 A 
BRANCH  24  27
ATOM     27  S   UNL     1      47.319   1.796   6.623  0.00  0.00    +0.000 S 
ATOM     28  C   UNL     1      46.920   2.549   5.071  0.00  0.00    +0.000 C 
ATOM     29  O   UNL     1      48.647   2.242   7.008  0.00  0.00    +0.000 OA
ATOM     30  O   UNL     1      47.016   0.378   6.522  0.00  0.00    +0.000 OA
ENDBRANCH  24  27
ENDBRANCH  19  21
ENDBRANCH  18  19
ENDBRANCH   1  18
TORSDOF 7
ENDMDL
MODEL 9
REMARK VINA RESULT:    -6.706      2.800      3.580
REMARK INTER + INTRA:         -10.365
REMARK INTER:                  -9.772
REMARK INTRA:                  -0.593
REMARK UNBOUND:                -0.915
REMARK  Name = 
REMARK  10 active torsions:
REMARK  status: ('A' for Active; 'I' for Inactive)
REMARK    1  A    between atoms: C_1  and  C_2
REMARK    2  A    between atoms: C_2  and  C_3
REMARK    3  A    between atoms: C_5  and  O_6
REMARK    4  A    between atoms: O_6  and  C_7
REMARK    5  A    between atoms: C_12  and  C_13
REMARK    6  A    between atoms: C_13  and  C_16
REMARK    7  A    between atoms: C_16  and  N_17
REMARK    8  A    between atoms: N_17  and  C_18
REMARK    9  A    between atoms: C_21  and  S_22
REMARK   10  A    between atoms: S_22  and  C_23
REMARK                            x       y       z     vdW  Elec       q    Type
REMARK                         _______ _______ _______ _____ _____    ______ ____
ROOT
ATOM      1  C   UNL     1      45.540   5.863  12.077  0.00  0.00    +0.000 C 
ATOM      2  F   UNL     1      44.746   6.975  12.144  0.00  0.00    +0.000 F 
ATOM      3  F   UNL     1      46.229   5.991  10.899  0.00  0.00    +0.000 F 
ENDROOT
BRANCH   1   9
ATOM      4  C   UNL     1      48.314   6.694  14.633  0.00  0.00    +0.000 A 
ATOM      5  C   UNL     1      48.214   5.607  15.492  0.00  0.00    +0.000 A 
ATOM      6  C   UNL     1      47.249   4.640  15.246  0.00  0.00    +0.000 A 
ATOM      7  F   UNL     1      47.135   3.601  16.081  0.00  0.00    +0.000 F 
ATOM      8  C   UNL     1      46.392   4.736  14.153  0.00  0.00    +0.000 A 
ATOM      9  C   UNL     1      46.494   5.817  13.263  0.00  0.00    +0.000 A 
ATOM     10  C   UNL     1      47.476   6.790  13.518  0.00  0.00    +0.000 A 
BRANCH   4  11
ATOM     11  O   UNL     1      49.209   7.722  14.799  0.00  0.00    +0.000 OA
BRANCH  11  16
ATOM     12  C   UNL     1      49.680   9.813  18.749  0.00  0.00    +0.000 C 
ATOM     13  C   UNL     1      49.286  10.058  17.293  0.00  0.00    +0.000 C 
ATOM     14  C   UNL     1      48.905  11.515  17.047  0.00  0.00    +0.000 C 
ATOM     15  C   UNL     1      48.243   9.047  16.756  0.00  0.00    +0.000 C 
ATOM     16  C   UNL     1      49.402   8.218  16.143  0.00  0.00    +0.000 C 
ATOM     17  C   UNL     1      50.286   9.483  16.253  0.00  0.00    +0.000 C 
ENDBRANCH  11  16
ENDBRANCH   4  11
ENDBRANCH   1   9
BRANCH   1  18
ATOM     18  C   UNL     1      44.623   4.621  11.946  0.00  0.00    +0.000 C 
BRANCH  18  19
ATOM     19  N   UNL     1      43.985   4.467  10.620  0.00  0.00    +0.000 N 
ATOM     20  H   UNL     1      43.529   5.327  10.312  0.00  0.00    +0.000 HD
BRANCH  19  21
ATOM     21  C   UNL     1      44.736   3.843   9.616  0.00  0.00    +0.000 A 
ATOM     22  C   UNL     1      45.383   4.550   8.595  0.00  0.00    +0.000 A 
ATOM     23  C   UNL     1      46.184   3.894   7.664  0.00  0.00    +0.000 A 
ATOM     24  C   UNL     1      46.328   2.527   7.804  0.00  0.00    +0.000 A 
ATOM     25  N   UNL     1      45.762   1.778   8.783  0.00  0.00    +0.000 NA
ATOM     26  C   UNL     1      45.001   2.467   9.668  0.00  0.00    +0.000 A 
BRANCH  24  27
ATOM     27  S   UNL     1      47.350   1.644   6.653  0.00  0.00    +0.000 S 
ATOM     28  C   UNL     1      47.033   2.386   5.078  0.00  0.00    +0.000 C 
ATOM     29  O   UNL     1      48.732   1.923   7.008  0.00  0.00    +0.000 OA
ATOM     30  O   UNL     1      46.860   0.276   6.609  0.00  0.00    +0.000 OA
ENDBRANCH  24  27
ENDBRANCH  19  21
ENDBRANCH  18  19
ENDBRANCH   1  18
TORSDOF 7
ENDMDL
