MODEL 1
REMARK VINA RESULT:    -9.069      0.000      0.000
REMARK INTER + INTRA:         -12.285
REMARK INTER:                 -11.190
REMARK INTRA:                  -1.095
REMARK UNBOUND:                -1.095
REMARK  Name = 
REMARK  4 active torsions:
REMARK  status: ('A' for Active; 'I' for Inactive)
REMARK    1  A    between atoms: C_2  and  C_4
REMARK    2  A    between atoms: N_8  and  C_9
REMARK    3  A    between atoms: C_9  and  C_10
REMARK    4  A    between atoms: C_14  and  C_15
REMARK                            x       y       z     vdW  Elec       q    Type
REMARK                         _______ _______ _______ _____ _____    ______ ____
ROOT
ATOM      1  C   UNL     1      43.865   4.911  11.401  0.00  0.00    +0.000 C 
ATOM      2  C   UNL     1      42.528   5.133  12.108  0.00  0.00    +0.000 C 
ATOM      3  C   UNL     1      42.996   6.118  11.094  0.00  0.00    +0.000 C 
ENDROOT
BRANCH   1   8
ATOM      4  C   UNL     1      46.552   2.762   7.487  0.00  0.00    +0.000 A 
ATOM      5  C   UNL     1      46.248   4.102   7.708  0.00  0.00    +0.000 A 
ATOM      6  C   UNL     1      45.389   4.445   8.754  0.00  0.00    +0.000 A 
ATOM      7  C   UNL     1      44.843   3.451   9.557  0.00  0.00    +0.000 A 
ATOM      8  N   UNL     1      43.913   3.700  10.565  0.00  0.00    +0.000 N 
ATOM      9  N   UNL     1      45.122   2.148   9.339  0.00  0.00    +0.000 NA
ATOM     10  C   UNL     1      45.959   1.826   8.317  0.00  0.00    +0.000 A 
ATOM     11  H   UNL     1      43.742   2.811  11.031  0.00  0.00    +0.000 HD
BRANCH   4  13
ATOM     12  N   UNL     1      47.384   3.003   5.217  0.00  0.00    +0.000 N 
ATOM     13  C   UNL     1      47.440   2.310   6.395  0.00  0.00    +0.000 C 
ATOM     14  O   UNL     1      48.213   1.374   6.544  0.00  0.00    +0.000 OA
ATOM     15  H   UNL     1      48.054   2.738   4.505  0.00  0.00    +0.000 HD
ATOM     16  H   UNL     1      46.944   3.908   5.130  0.00  0.00    +0.000 HD
ENDBRANCH   4  13
ENDBRANCH   1   8
BRANCH   1  17
ATOM     17  C   UNL     1      45.140   5.178  12.201  0.00  0.00    +0.000 A 
ATOM     18  C   UNL     1      45.612   4.267  13.156  0.00  0.00    +0.000 A 
ATOM     19  C   UNL     1      46.828   4.470  13.807  0.00  0.00    +0.000 A 
ATOM     20  C   UNL     1      47.604   5.591  13.507  0.00  0.00    +0.000 A 
ATOM     21  C   UNL     1      47.181   6.538  12.561  0.00  0.00    +0.000 A 
ATOM     22  C   UNL     1      45.929   6.320  11.952  0.00  0.00    +0.000 A 
BRANCH  21  23
ATOM     23  C   UNL     1      48.036   7.676  12.150  0.00  0.00    +0.000 A 
ATOM     24  C   UNL     1      47.554   8.992  12.171  0.00  0.00    +0.000 A 
ATOM     25  C   UNL     1      48.406  10.039  11.848  0.00  0.00    +0.000 A 
ATOM     26  N   UNL     1      49.700   9.876  11.511  0.00  0.00    +0.000 NA
ATOM     27  C   UNL     1      50.157   8.610  11.486  0.00  0.00    +0.000 A 
ATOM     28  C   UNL     1      49.378   7.500  11.784  0.00  0.00    +0.000 A 
ENDBRANCH  21  23
ENDBRANCH   1  17
TORSDOF 4
ENDMDL
MODEL 2
REMARK VINA RESULT:    -8.848      2.123      3.465
REMARK INTER + INTRA:         -12.013
REMARK INTER:                 -11.244
REMARK INTRA:                  -0.769
REMARK UNBOUND:                -1.095
REMARK  Name = 
REMARK  4 active torsions:
REMARK  status: ('A' for Active; 'I' for Inactive)
REMARK    1  A    between atoms: C_2  and  C_4
REMARK    2  A    between atoms: N_8  and  C_9
REMARK    3  A    between atoms: C_9  and  C_10
REMARK    4  A    between atoms: C_14  and  C_15
REMARK                            x       y       z     vdW  Elec       q    Type
REMARK                         _______ _______ _______ _____ _____    ______ ____
ROOT
ATOM      1  C   UNL     1      44.040   4.986  11.475  0.00  0.00    +0.000 C 
ATOM      2  C   UNL     1      42.837   5.120  12.408  0.00  0.00    +0.000 C 
ATOM      3  C   UNL     1      42.994   6.069  11.272  0.00  0.00    +0.000 C 
ENDROOT
BRANCH   1   8
ATOM      4  C   UNL     1      46.484   2.715   7.472  0.00  0.00    +0.000 A 
ATOM      5  C   UNL     1      46.133   4.050   7.639  0.00  0.00    +0.000 A 
ATOM      6  C   UNL     1      45.352   4.421   8.735  0.00  0.00    +0.000 A 
ATOM      7  C   UNL     1      44.927   3.457   9.641  0.00  0.00    +0.000 A 
ATOM      8  N   UNL     1      44.076   3.728  10.711  0.00  0.00    +0.000 N 
ATOM      9  N   UNL     1      45.251   2.156   9.477  0.00  0.00    +0.000 NA
ATOM     10  C   UNL     1      46.013   1.807   8.406  0.00  0.00    +0.000 A 
ATOM     11  H   UNL     1      43.991   2.864  11.243  0.00  0.00    +0.000 HD
BRANCH   4  13
ATOM     12  N   UNL     1      47.361   3.037   5.229  0.00  0.00    +0.000 N 
ATOM     13  C   UNL     1      47.296   2.234   6.334  0.00  0.00    +0.000 C 
ATOM     14  O   UNL     1      47.908   1.176   6.387  0.00  0.00    +0.000 OA
ATOM     15  H   UNL     1      47.984   2.738   4.489  0.00  0.00    +0.000 HD
ATOM     16  H   UNL     1      47.071   4.004   5.234  0.00  0.00    +0.000 HD
ENDBRANCH   4  13
ENDBRANCH   1   8
BRANCH   1  17
ATOM     17  C   UNL     1      45.399   5.445  12.004  0.00  0.00    +0.000 A 
ATOM     18  C   UNL     1      46.112   6.484  11.391  0.00  0.00    +0.000 A 
ATOM     19  C   UNL     1      47.301   6.964  11.939  0.00  0.00    +0.000 A 
ATOM     20  C   UNL     1      47.797   6.415  13.123  0.00  0.00    +0.000 A 
ATOM     21  C   UNL     1      47.127   5.372  13.780  0.00  0.00    +0.000 A 
ATOM     22  C   UNL     1      45.950   4.887  13.176  0.00  0.00    +0.000 A 
BRANCH  21  23
ATOM     23  C   UNL     1      47.577   4.849  15.091  0.00  0.00    +0.000 A 
ATOM     24  C   UNL     1      47.371   3.510  15.449  0.00  0.00    +0.000 A 
ATOM     25  C   UNL     1      47.870   3.039  16.656  0.00  0.00    +0.000 A 
ATOM     26  N   UNL     1      48.561   3.797  17.529  0.00  0.00    +0.000 NA
ATOM     27  C   UNL     1      48.752   5.084  17.183  0.00  0.00    +0.000 A 
ATOM     28  C   UNL     1      48.282   5.646  16.004  0.00  0.00    +0.000 A 
ENDBRANCH  21  23
ENDBRANCH   1  17
TORSDOF 4
ENDMDL
MODEL 3
REMARK VINA RESULT:    -6.587      4.406      8.308
REMARK INTER + INTRA:          -9.222
REMARK INTER:                  -8.243
REMARK INTRA:                  -0.980
REMARK UNBOUND:                -1.095
REMARK  Name = 
REMARK  4 active torsions:
REMARK  status: ('A' for Active; 'I' for Inactive)
REMARK    1  A    between atoms: C_2  and  C_4
REMARK    2  A    between atoms: N_8  and  C_9
REMARK    3  A    between atoms: C_9  and  C_10
REMARK    4  A    between atoms: C_14  and  C_15
REMARK                            x       y       z     vdW  Elec       q    Type
REMARK                         _______ _______ _______ _____ _____    ______ ____
ROOT
ATOM      1  C   UNL     1      48.968   7.887  12.713  0.00  0.00    +0.000 C 
ATOM      2  C   UNL     1      49.930   8.110  11.547  0.00  0.00    +0.000 C 
ATOM      3  C   UNL     1      49.581   9.250  12.439  0.00  0.00    +0.000 C 
ENDROOT
BRANCH   1   8
ATOM      4  C   UNL     1      48.526   6.795  17.789  0.00  0.00    +0.000 A 
ATOM      5  C   UNL     1      48.493   8.032  17.154  0.00  0.00    +0.000 A 
ATOM      6  C   UNL     1      48.774   8.108  15.789  0.00  0.00    +0.000 A 
ATOM      7  C   UNL     1      49.089   6.956  15.081  0.00  0.00    +0.000 A 
ATOM      8  N   UNL     1      49.465   6.955  13.738  0.00  0.00    +0.000 N 
ATOM      9  N   UNL     1      49.138   5.753  15.693  0.00  0.00    +0.000 NA
ATOM     10  C   UNL     1      48.862   5.691  17.024  0.00  0.00    +0.000 A 
ATOM     11  H   UNL     1      49.566   5.980  13.464  0.00  0.00    +0.000 HD
BRANCH   4  13
ATOM     12  N   UNL     1      47.381   5.637  19.593  0.00  0.00    +0.000 N 
ATOM     13  C   UNL     1      48.256   6.625  19.233  0.00  0.00    +0.000 C 
ATOM     14  O   UNL     1      48.811   7.318  20.074  0.00  0.00    +0.000 OA
ATOM     15  H   UNL     1      47.267   5.475  20.586  0.00  0.00    +0.000 HD
ATOM     16  H   UNL     1      47.089   4.904  18.963  0.00  0.00    +0.000 HD
ENDBRANCH   4  13
ENDBRANCH   1   8
BRANCH   1  17
ATOM     17  C   UNL     1      47.483   7.732  12.383  0.00  0.00    +0.000 A 
ATOM     18  C   UNL     1      46.568   8.768  12.615  0.00  0.00    +0.000 A 
ATOM     19  C   UNL     1      45.236   8.656  12.217  0.00  0.00    +0.000 A 
ATOM     20  C   UNL     1      44.794   7.501  11.569  0.00  0.00    +0.000 A 
ATOM     21  C   UNL     1      45.665   6.431  11.313  0.00  0.00    +0.000 A 
ATOM     22  C   UNL     1      46.993   6.564  11.764  0.00  0.00    +0.000 A 
BRANCH  21  23
ATOM     23  C   UNL     1      45.244   5.244  10.533  0.00  0.00    +0.000 A 
ATOM     24  C   UNL     1      45.619   5.085   9.191  0.00  0.00    +0.000 A 
ATOM     25  C   UNL     1      45.267   3.927   8.514  0.00  0.00    +0.000 A 
ATOM     26  N   UNL     1      44.575   2.913   9.070  0.00  0.00    +0.000 NA
ATOM     27  C   UNL     1      44.212   3.072  10.357  0.00  0.00    +0.000 A 
ATOM     28  C   UNL     1      44.510   4.198  11.111  0.00  0.00    +0.000 A 
ENDBRANCH  21  23
ENDBRANCH   1  17
TORSDOF 4
ENDMDL
MODEL 4
REMARK VINA RESULT:    -6.580      3.643      7.525
REMARK INTER + INTRA:          -9.214
REMARK INTER:                  -9.186
REMARK INTRA:                  -0.028
REMARK UNBOUND:                -1.095
REMARK  Name = 
REMARK  4 active torsions:
REMARK  status: ('A' for Active; 'I' for Inactive)
REMARK    1  A    between atoms: C_2  and  C_4
REMARK    2  A    between atoms: N_8  and  C_9
REMARK    3  A    between atoms: C_9  and  C_10
REMARK    4  A    between atoms: C_14  and  C_15
REMARK                            x       y       z     vdW  Elec       q    Type
REMARK                         _______ _______ _______ _____ _____    ______ ____
ROOT
ATOM      1  C   UNL     1      48.609   7.834  12.832  0.00  0.00    +0.000 C 
ATOM      2  C   UNL     1      49.736   7.271  11.967  0.00  0.00    +0.000 C 
ATOM      3  C   UNL     1      49.460   8.734  11.953  0.00  0.00    +0.000 C 
ENDROOT
BRANCH   1   8
ATOM      4  C   UNL     1      48.026   4.347  16.661  0.00  0.00    +0.000 A 
ATOM      5  C   UNL     1      47.226   4.561  15.543  0.00  0.00    +0.000 A 
ATOM      6  C   UNL     1      47.491   5.650  14.710  0.00  0.00    +0.000 A 
ATOM      7  C   UNL     1      48.539   6.511  15.008  0.00  0.00    +0.000 A 
ATOM      8  N   UNL     1      48.816   7.667  14.280  0.00  0.00    +0.000 N 
ATOM      9  N   UNL     1      49.310   6.319  16.100  0.00  0.00    +0.000 NA
ATOM     10  C   UNL     1      49.043   5.255  16.903  0.00  0.00    +0.000 A 
ATOM     11  H   UNL     1      49.670   8.061  14.672  0.00  0.00    +0.000 HD
BRANCH   4  13
ATOM     12  N   UNL     1      48.816   2.948  18.484  0.00  0.00    +0.000 N 
ATOM     13  C   UNL     1      47.808   3.228  17.602  0.00  0.00    +0.000 C 
ATOM     14  O   UNL     1      46.761   2.596  17.613  0.00  0.00    +0.000 OA
ATOM     15  H   UNL     1      48.624   2.236  19.177  0.00  0.00    +0.000 HD
ATOM     16  H   UNL     1      49.581   3.581  18.664  0.00  0.00    +0.000 HD
ENDBRANCH   4  13
ENDBRANCH   1   8
BRANCH   1  17
ATOM     17  C   UNL     1      47.173   7.592  12.367  0.00  0.00    +0.000 A 
ATOM     18  C   UNL     1      46.175   8.562  12.528  0.00  0.00    +0.000 A 
ATOM     19  C   UNL     1      44.895   8.374  12.010  0.00  0.00    +0.000 A 
ATOM     20  C   UNL     1      44.589   7.206  11.308  0.00  0.00    +0.000 A 
ATOM     21  C   UNL     1      45.547   6.199  11.117  0.00  0.00    +0.000 A 
ATOM     22  C   UNL     1      46.818   6.407  11.688  0.00  0.00    +0.000 A 
BRANCH  21  23
ATOM     23  C   UNL     1      45.276   5.003  10.285  0.00  0.00    +0.000 A 
ATOM     24  C   UNL     1      44.554   3.913  10.792  0.00  0.00    +0.000 A 
ATOM     25  C   UNL     1      44.258   2.842   9.961  0.00  0.00    +0.000 A 
ATOM     26  N   UNL     1      44.622   2.774   8.665  0.00  0.00    +0.000 NA
ATOM     27  C   UNL     1      45.321   3.820   8.185  0.00  0.00    +0.000 A 
ATOM     28  C   UNL     1      45.672   4.929   8.942  0.00  0.00    +0.000 A 
ENDBRANCH  21  23
ENDBRANCH   1  17
TORSDOF 4
ENDMDL
MODEL 5
REMARK VINA RESULT:    -6.494      2.661      6.902
REMARK INTER + INTRA:          -9.108
REMARK INTER:                  -8.128
REMARK INTRA:                  -0.981
REMARK UNBOUND:                -1.095
REMARK  Name = 
REMARK  4 active torsions:
REMARK  status: ('A' for Active; 'I' for Inactive)
REMARK    1  A    between atoms: C_2  and  C_4
REMARK    2  A    between atoms: N_8  and  C_9
REMARK    3  A    between atoms: C_9  and  C_10
REMARK    4  A    between atoms: C_14  and  C_15
REMARK                            x       y       z     vdW  Elec       q    Type
REMARK                         _______ _______ _______ _____ _____    ______ ____
ROOT
ATOM      1  C   UNL     1      46.144   5.260  13.339  0.00  0.00    +0.000 C 
ATOM      2  C   UNL     1      46.069   4.374  14.582  0.00  0.00    +0.000 C 
ATOM      3  C   UNL     1      47.243   4.266  13.674  0.00  0.00    +0.000 C 
ENDROOT
BRANCH   1   8
ATOM      4  C   UNL     1      48.361   9.646  11.605  0.00  0.00    +0.000 A 
ATOM      5  C   UNL     1      48.872   8.352  11.615  0.00  0.00    +0.000 A 
ATOM      6  C   UNL     1      48.159   7.339  12.260  0.00  0.00    +0.000 A 
ATOM      7  C   UNL     1      46.955   7.632  12.889  0.00  0.00    +0.000 A 
ATOM      8  N   UNL     1      46.226   6.701  13.626  0.00  0.00    +0.000 N 
ATOM      9  N   UNL     1      46.461   8.888  12.897  0.00  0.00    +0.000 NA
ATOM     10  C   UNL     1      47.164   9.866  12.265  0.00  0.00    +0.000 A 
ATOM     11  H   UNL     1      45.364   7.164  13.910  0.00  0.00    +0.000 HD
BRANCH   4  13
ATOM     12  N   UNL     1      50.380  10.950  11.254  0.00  0.00    +0.000 N 
ATOM     13  C   UNL     1      49.056  10.779  10.958  0.00  0.00    +0.000 C 
ATOM     14  O   UNL     1      48.482  11.516  10.169  0.00  0.00    +0.000 OA
ATOM     15  H   UNL     1      50.867  11.677  10.744  0.00  0.00    +0.000 HD
ATOM     16  H   UNL     1      50.941  10.240  11.704  0.00  0.00    +0.000 HD
ENDBRANCH   4  13
ENDBRANCH   1   8
BRANCH   1  17
ATOM     17  C   UNL     1      45.241   4.900  12.160  0.00  0.00    +0.000 A 
ATOM     18  C   UNL     1      43.933   5.392  12.060  0.00  0.00    +0.000 A 
ATOM     19  C   UNL     1      43.152   5.143  10.932  0.00  0.00    +0.000 A 
ATOM     20  C   UNL     1      43.671   4.397   9.872  0.00  0.00    +0.000 A 
ATOM     21  C   UNL     1      44.973   3.877   9.917  0.00  0.00    +0.000 A 
ATOM     22  C   UNL     1      45.719   4.117  11.089  0.00  0.00    +0.000 A 
BRANCH  21  23
ATOM     23  C   UNL     1      45.581   3.176   8.762  0.00  0.00    +0.000 A 
ATOM     24  C   UNL     1      46.034   3.883   7.639  0.00  0.00    +0.000 A 
ATOM     25  C   UNL     1      46.662   3.201   6.607  0.00  0.00    +0.000 A 
ATOM     26  N   UNL     1      46.879   1.871   6.609  0.00  0.00    +0.000 NA
ATOM     27  C   UNL     1      46.438   1.195   7.688  0.00  0.00    +0.000 A 
ATOM     28  C   UNL     1      45.790   1.789   8.762  0.00  0.00    +0.000 A 
ENDBRANCH  21  23
ENDBRANCH   1  17
TORSDOF 4
ENDMDL
MODEL 6
REMARK VINA RESULT:    -6.203      3.759      5.924
REMARK INTER + INTRA:          -8.749
REMARK INTER:                  -8.308
REMARK INTRA:                  -0.441
REMARK UNBOUND:                -1.095
REMARK  Name = 
REMARK  4 active torsions:
REMARK  status: ('A' for Active; 'I' for Inactive)
REMARK    1  A    between atoms: C_2  and  C_4
REMARK    2  A    between atoms: N_8  and  C_9
REMARK    3  A    between atoms: C_9  and  C_10
REMARK    4  A    between atoms: C_14  and  C_15
REMARK                            x       y       z     vdW  Elec       q    Type
REMARK                         _______ _______ _______ _____ _____    ______ ____
ROOT
ATOM      1  C   UNL     1      47.319   8.361  13.256  0.00  0.00    +0.000 C 
ATOM      2  C   UNL     1      47.489   9.702  12.543  0.00  0.00    +0.000 C 
ATOM      3  C   UNL     1      48.200   8.501  12.027  0.00  0.00    +0.000 C 
ENDROOT
BRANCH   1   8
ATOM      4  C   UNL     1      44.582   4.232  11.641  0.00  0.00    +0.000 A 
ATOM      5  C   UNL     1      45.688   4.834  11.050  0.00  0.00    +0.000 A 
ATOM      6  C   UNL     1      46.184   6.025  11.583  0.00  0.00    +0.000 A 
ATOM      7  C   UNL     1      45.569   6.601  12.687  0.00  0.00    +0.000 A 
ATOM      8  N   UNL     1      45.948   7.829  13.226  0.00  0.00    +0.000 N 
ATOM      9  N   UNL     1      44.485   6.030  13.256  0.00  0.00    +0.000 NA
ATOM     10  C   UNL     1      44.011   4.870  12.729  0.00  0.00    +0.000 A 
ATOM     11  H   UNL     1      45.380   7.968  14.061  0.00  0.00    +0.000 HD
BRANCH   4  13
ATOM     12  N   UNL     1      44.634   2.343  10.113  0.00  0.00    +0.000 N 
ATOM     13  C   UNL     1      43.983   2.979  11.134  0.00  0.00    +0.000 C 
ATOM     14  O   UNL     1      42.965   2.512  11.625  0.00  0.00    +0.000 OA
ATOM     15  H   UNL     1      44.262   1.445   9.830  0.00  0.00    +0.000 HD
ATOM     16  H   UNL     1      45.583   2.562   9.844  0.00  0.00    +0.000 HD
ENDBRANCH   4  13
ENDBRANCH   1   8
BRANCH   1  17
ATOM     17  C   UNL     1      48.041   8.175  14.591  0.00  0.00    +0.000 A 
ATOM     18  C   UNL     1      48.302   9.257  15.441  0.00  0.00    +0.000 A 
ATOM     19  C   UNL     1      48.869   9.065  16.701  0.00  0.00    +0.000 A 
ATOM     20  C   UNL     1      49.179   7.776  17.139  0.00  0.00    +0.000 A 
ATOM     21  C   UNL     1      48.941   6.655  16.330  0.00  0.00    +0.000 A 
ATOM     22  C   UNL     1      48.404   6.892  15.049  0.00  0.00    +0.000 A 
BRANCH  21  23
ATOM     23  C   UNL     1      49.162   5.273  16.816  0.00  0.00    +0.000 A 
ATOM     24  C   UNL     1      48.168   4.291  16.694  0.00  0.00    +0.000 A 
ATOM     25  C   UNL     1      48.436   2.991  17.096  0.00  0.00    +0.000 A 
ATOM     26  N   UNL     1      49.618   2.591  17.604  0.00  0.00    +0.000 NA
ATOM     27  C   UNL     1      50.568   3.537  17.724  0.00  0.00    +0.000 A 
ATOM     28  C   UNL     1      50.389   4.865  17.360  0.00  0.00    +0.000 A 
ENDBRANCH  21  23
ENDBRANCH   1  17
TORSDOF 4
ENDMDL
MODEL 7
REMARK VINA RESULT:    -6.118      3.645      6.510
REMARK INTER + INTRA:          -8.643
REMARK INTER:                  -7.590
REMARK INTRA:                  -1.053
REMARK UNBOUND:                -1.095
REMARK  Name = 
REMARK  4 active torsions:
REMARK  status: ('A' for Active; 'I' for Inactive)
REMARK    1  A    between atoms: C_2  and  C_4
REMARK    2  A    between atoms: N_8  and  C_9
REMARK    3  A    between atoms: C_9  and  C_10
REMARK    4  A    between atoms: C_14  and  C_15
REMARK                            x       y       z     vdW  Elec       q    Type
REMARK                         _______ _______ _______ _____ _____    ______ ____
ROOT
ATOM      1  C   UNL     1      48.975   8.425  12.624  0.00  0.00    +0.000 C 
ATOM      2  C   UNL     1      50.139   9.216  12.029  0.00  0.00    +0.000 C 
ATOM      3  C   UNL     1      50.132   7.731  11.926  0.00  0.00    +0.000 C 
ENDROOT
BRANCH   1   8
ATOM      4  C   UNL     1      44.406   6.147  11.573  0.00  0.00    +0.000 A 
ATOM      5  C   UNL     1      45.679   5.586  11.598  0.00  0.00    +0.000 A 
ATOM      6  C   UNL     1      46.790   6.415  11.768  0.00  0.00    +0.000 A 
ATOM      7  C   UNL     1      46.617   7.786  11.901  0.00  0.00    +0.000 A 
ATOM      8  N   UNL     1      47.675   8.691  11.987  0.00  0.00    +0.000 N 
ATOM      9  N   UNL     1      45.386   8.341  11.862  0.00  0.00    +0.000 NA
ATOM     10  C   UNL     1      44.312   7.523  11.697  0.00  0.00    +0.000 A 
ATOM     11  H   UNL     1      47.262   9.608  12.148  0.00  0.00    +0.000 HD
BRANCH   4  13
ATOM     12  N   UNL     1      41.988   5.948  11.687  0.00  0.00    +0.000 N 
ATOM     13  C   UNL     1      43.178   5.347  11.385  0.00  0.00    +0.000 C 
ATOM     14  O   UNL     1      43.220   4.204  10.949  0.00  0.00    +0.000 OA
ATOM     15  H   UNL     1      41.149   5.421  11.476  0.00  0.00    +0.000 HD
ATOM     16  H   UNL     1      41.892   6.945  11.820  0.00  0.00    +0.000 HD
ENDBRANCH   4  13
ENDBRANCH   1   8
BRANCH   1  17
ATOM     17  C   UNL     1      48.918   8.287  14.145  0.00  0.00    +0.000 A 
ATOM     18  C   UNL     1      48.623   9.379  14.971  0.00  0.00    +0.000 A 
ATOM     19  C   UNL     1      48.473   9.224  16.348  0.00  0.00    +0.000 A 
ATOM     20  C   UNL     1      48.609   7.961  16.928  0.00  0.00    +0.000 A 
ATOM     21  C   UNL     1      48.907   6.831  16.151  0.00  0.00    +0.000 A 
ATOM     22  C   UNL     1      49.089   7.034  14.769  0.00  0.00    +0.000 A 
BRANCH  21  23
ATOM     23  C   UNL     1      48.949   5.467  16.730  0.00  0.00    +0.000 A 
ATOM     24  C   UNL     1      47.866   4.586  16.595  0.00  0.00    +0.000 A 
ATOM     25  C   UNL     1      47.970   3.293  17.087  0.00  0.00    +0.000 A 
ATOM     26  N   UNL     1      49.068   2.809  17.699  0.00  0.00    +0.000 NA
ATOM     27  C   UNL     1      50.103   3.660  17.831  0.00  0.00    +0.000 A 
ATOM     28  C   UNL     1      50.088   4.972  17.380  0.00  0.00    +0.000 A 
ENDBRANCH  21  23
ENDBRANCH   1  17
TORSDOF 4
ENDMDL
MODEL 8
REMARK VINA RESULT:    -6.081      5.662      8.424
REMARK INTER + INTRA:          -8.599
REMARK INTER:                  -7.895
REMARK INTRA:                  -0.704
REMARK UNBOUND:                -1.095
REMARK  Name = 
REMARK  4 active torsions:
REMARK  status: ('A' for Active; 'I' for Inactive)
REMARK    1  A    between atoms: C_2  and  C_4
REMARK    2  A    between atoms: N_8  and  C_9
REMARK    3  A    between atoms: C_9  and  C_10
REMARK    4  A    between atoms: C_14  and  C_15
REMARK                            x       y       z     vdW  Elec       q    Type
REMARK                         _______ _______ _______ _____ _____    ______ ____
ROOT
ATOM      1  C   UNL     1      48.191   4.655  17.190  0.00  0.00    +0.000 C 
ATOM      2  C   UNL     1      47.025   4.831  18.163  0.00  0.00    +0.000 C 
ATOM      3  C   UNL     1      47.152   3.565  17.390  0.00  0.00    +0.000 C 
ENDROOT
BRANCH   1   8
ATOM      4  C   UNL     1      52.555   1.824  17.506  0.00  0.00    +0.000 A 
ATOM      5  C   UNL     1      51.238   1.392  17.388  0.00  0.00    +0.000 A 
ATOM      6  C   UNL     1      50.202   2.325  17.461  0.00  0.00    +0.000 A 
ATOM      7  C   UNL     1      50.492   3.669  17.658  0.00  0.00    +0.000 A 
ATOM      8  N   UNL     1      49.517   4.650  17.828  0.00  0.00    +0.000 N 
ATOM      9  N   UNL     1      51.767   4.095  17.789  0.00  0.00    +0.000 NA
ATOM     10  C   UNL     1      52.768   3.177  17.716  0.00  0.00    +0.000 A 
ATOM     11  H   UNL     1      50.006   5.542  17.880  0.00  0.00    +0.000 HD
BRANCH   4  13
ATOM     12  N   UNL     1      53.507  -0.379  17.881  0.00  0.00    +0.000 N 
ATOM     13  C   UNL     1      53.711   0.904  17.455  0.00  0.00    +0.000 C 
ATOM     14  O   UNL     1      54.796   1.264  17.022  0.00  0.00    +0.000 OA
ATOM     15  H   UNL     1      54.280  -1.022  17.764  0.00  0.00    +0.000 HD
ATOM     16  H   UNL     1      52.588  -0.774  18.019  0.00  0.00    +0.000 HD
ENDBRANCH   4  13
ENDBRANCH   1   8
BRANCH   1  17
ATOM     17  C   UNL     1      48.127   5.418  15.867  0.00  0.00    +0.000 A 
ATOM     18  C   UNL     1      49.035   6.442  15.566  0.00  0.00    +0.000 A 
ATOM     19  C   UNL     1      49.035   7.063  14.318  0.00  0.00    +0.000 A 
ATOM     20  C   UNL     1      48.125   6.663  13.337  0.00  0.00    +0.000 A 
ATOM     21  C   UNL     1      47.191   5.645  13.582  0.00  0.00    +0.000 A 
ATOM     22  C   UNL     1      47.196   5.067  14.868  0.00  0.00    +0.000 A 
BRANCH  21  23
ATOM     23  C   UNL     1      46.290   5.132  12.524  0.00  0.00    +0.000 A 
ATOM     24  C   UNL     1      46.074   5.853  11.341  0.00  0.00    +0.000 A 
ATOM     25  C   UNL     1      45.280   5.308  10.342  0.00  0.00    +0.000 A 
ATOM     26  N   UNL     1      44.691   4.099  10.427  0.00  0.00    +0.000 NA
ATOM     27  C   UNL     1      44.897   3.412  11.567  0.00  0.00    +0.000 A 
ATOM     28  C   UNL     1      45.665   3.880  12.624  0.00  0.00    +0.000 A 
ENDBRANCH  21  23
ENDBRANCH   1  17
TORSDOF 4
ENDMDL
