MODEL 1
REMARK VINA RESULT:    -8.182      0.000      0.000
REMARK INTER + INTRA:          -9.711
REMARK INTER:                 -10.095
REMARK INTRA:                   0.384
REMARK UNBOUND:                 0.384
REMARK  Name = 
REMARK  4 active torsions:
REMARK  status: ('A' for Active; 'I' for Inactive)
REMARK    1  A    between atoms: C_2  and  C_3
REMARK    2  A    between atoms: N_7  and  C_8
REMARK    3  A    between atoms: C_8  and  C_9
REMARK    4  A    between atoms: C_13  and  C_14
REMARK                            x       y       z     vdW  Elec       q    Type
REMARK                         _______ _______ _______ _____ _____    ______ ____
ROOT
ATOM      1  C   UNL     1      44.029   4.561  11.303  0.00  0.00    +0.000 C 
ATOM      2  C   UNL     1      42.660   4.951  11.835  0.00  0.00    +0.000 C 
ATOM      3  C   UNL     1      43.215   5.698  10.670  0.00  0.00    +0.000 C 
ENDROOT
BRANCH   1   8
ATOM      4  C   UNL     1      46.738   2.562   7.272  0.00  0.00    +0.000 A 
ATOM      5  C   UNL     1      46.551   3.896   7.627  0.00  0.00    +0.000 A 
ATOM      6  C   UNL     1      45.708   4.217   8.700  0.00  0.00    +0.000 A 
ATOM      7  C   UNL     1      45.085   3.191   9.403  0.00  0.00    +0.000 A 
ATOM      8  N   UNL     1      44.232   3.367  10.484  0.00  0.00    +0.000 N 
ATOM      9  N   UNL     1      45.261   1.894   9.062  0.00  0.00    +0.000 NA
ATOM     10  C   UNL     1      46.074   1.607   8.017  0.00  0.00    +0.000 A 
ATOM     11  H   UNL     1      43.933   2.457  10.814  0.00  0.00    +0.000 HD
BRANCH   4  13
ATOM     12  N   UNL     1      48.262   1.866   5.295  0.00  0.00    +0.000 NA
ATOM     13  C   UNL     1      47.579   2.172   6.188  0.00  0.00    +0.000 C 
ENDBRANCH   4  13
ENDBRANCH   1   8
BRANCH   1  14
ATOM     14  C   UNL     1      45.289   5.090  11.999  0.00  0.00    +0.000 A 
ATOM     15  C   UNL     1      45.700   6.398  11.764  0.00  0.00    +0.000 A 
ATOM     16  C   UNL     1      46.599   6.950  12.646  0.00  0.00    +0.000 A 
ATOM     17  N   UNL     1      47.123   6.274  13.678  0.00  0.00    +0.000 NA
ATOM     18  C   UNL     1      46.736   4.979  13.776  0.00  0.00    +0.000 A 
ATOM     19  N   UNL     1      45.849   4.354  12.981  0.00  0.00    +0.000 NA
BRANCH  18  20
ATOM     20  C   UNL     1      47.248   4.213  14.969  0.00  0.00    +0.000 C 
ATOM     21  N   UNL     1      47.232   4.895  16.165  0.00  0.00    +0.000 N 
ATOM     22  O   UNL     1      47.634   3.050  14.923  0.00  0.00    +0.000 OA
ATOM     23  H   UNL     1      46.858   5.836  16.205  0.00  0.00    +0.000 HD
ATOM     24  H   UNL     1      47.502   4.410  17.005  0.00  0.00    +0.000 HD
ENDBRANCH  18  20
ENDBRANCH   1  14
TORSDOF 4
ENDMDL
MODEL 2
REMARK VINA RESULT:    -8.011      2.272      6.417
REMARK INTER + INTRA:          -9.500
REMARK INTER:                  -9.049
REMARK INTRA:                  -0.452
REMARK UNBOUND:                 0.384
REMARK  Name = 
REMARK  4 active torsions:
REMARK  status: ('A' for Active; 'I' for Inactive)
REMARK    1  A    between atoms: C_2  and  C_3
REMARK    2  A    between atoms: N_7  and  C_8
REMARK    3  A    between atoms: C_8  and  C_9
REMARK    4  A    between atoms: C_13  and  C_14
REMARK                            x       y       z     vdW  Elec       q    Type
REMARK                         _______ _______ _______ _____ _____    ______ ____
ROOT
ATOM      1  C   UNL     1      44.379   3.213  11.300  0.00  0.00    +0.000 C 
ATOM      2  C   UNL     1      43.038   3.842  11.637  0.00  0.00    +0.000 C 
ATOM      3  C   UNL     1      43.103   2.369  11.415  0.00  0.00    +0.000 C 
ENDROOT
BRANCH   1   8
ATOM      4  C   UNL     1      47.682   5.579  14.630  0.00  0.00    +0.000 A 
ATOM      5  C   UNL     1      47.019   6.111  13.525  0.00  0.00    +0.000 A 
ATOM      6  C   UNL     1      46.245   5.273  12.710  0.00  0.00    +0.000 A 
ATOM      7  C   UNL     1      46.141   3.924  13.031  0.00  0.00    +0.000 A 
ATOM      8  N   UNL     1      45.407   2.987  12.315  0.00  0.00    +0.000 N 
ATOM      9  N   UNL     1      46.783   3.401  14.101  0.00  0.00    +0.000 NA
ATOM     10  C   UNL     1      47.531   4.227  14.871  0.00  0.00    +0.000 A 
ATOM     11  H   UNL     1      45.492   2.088  12.774  0.00  0.00    +0.000 HD
BRANCH   4  13
ATOM     12  N   UNL     1      49.132   7.039  16.204  0.00  0.00    +0.000 NA
ATOM     13  C   UNL     1      48.487   6.379  15.493  0.00  0.00    +0.000 C 
ENDBRANCH   4  13
ENDBRANCH   1   8
BRANCH   1  14
ATOM     14  C   UNL     1      44.896   3.262   9.857  0.00  0.00    +0.000 A 
ATOM     15  C   UNL     1      45.008   4.492   9.214  0.00  0.00    +0.000 A 
ATOM     16  C   UNL     1      45.785   4.548   8.083  0.00  0.00    +0.000 A 
ATOM     17  N   UNL     1      46.392   3.476   7.555  0.00  0.00    +0.000 NA
ATOM     18  C   UNL     1      46.153   2.305   8.194  0.00  0.00    +0.000 A 
ATOM     19  N   UNL     1      45.428   2.147   9.317  0.00  0.00    +0.000 NA
BRANCH  18  20
ATOM     20  C   UNL     1      46.881   1.093   7.672  0.00  0.00    +0.000 C 
ATOM     21  N   UNL     1      47.991   1.354   6.897  0.00  0.00    +0.000 N 
ATOM     22  O   UNL     1      46.557  -0.063   7.921  0.00  0.00    +0.000 OA
ATOM     23  H   UNL     1      48.285   2.310   6.744  0.00  0.00    +0.000 HD
ATOM     24  H   UNL     1      48.551   0.581   6.576  0.00  0.00    +0.000 HD
ENDBRANCH  18  20
ENDBRANCH   1  14
TORSDOF 4
ENDMDL
MODEL 3
REMARK VINA RESULT:    -7.516      1.661      2.219
REMARK INTER + INTRA:          -8.889
REMARK INTER:                  -9.109
REMARK INTRA:                   0.220
REMARK UNBOUND:                 0.384
REMARK  Name = 
REMARK  4 active torsions:
REMARK  status: ('A' for Active; 'I' for Inactive)
REMARK    1  A    between atoms: C_2  and  C_3
REMARK    2  A    between atoms: N_7  and  C_8
REMARK    3  A    between atoms: C_8  and  C_9
REMARK    4  A    between atoms: C_13  and  C_14
REMARK                            x       y       z     vdW  Elec       q    Type
REMARK                         _______ _______ _______ _____ _____    ______ ____
ROOT
ATOM      1  C   UNL     1      43.947   4.747  11.529  0.00  0.00    +0.000 C 
ATOM      2  C   UNL     1      42.570   5.301  11.856  0.00  0.00    +0.000 C 
ATOM      3  C   UNL     1      43.390   5.987  10.816  0.00  0.00    +0.000 C 
ENDROOT
BRANCH   1   8
ATOM      4  C   UNL     1      46.620   2.686   7.504  0.00  0.00    +0.000 A 
ATOM      5  C   UNL     1      46.459   4.025   7.858  0.00  0.00    +0.000 A 
ATOM      6  C   UNL     1      45.622   4.364   8.929  0.00  0.00    +0.000 A 
ATOM      7  C   UNL     1      44.977   3.352   9.632  0.00  0.00    +0.000 A 
ATOM      8  N   UNL     1      44.127   3.547  10.713  0.00  0.00    +0.000 N 
ATOM      9  N   UNL     1      45.127   2.051   9.294  0.00  0.00    +0.000 NA
ATOM     10  C   UNL     1      45.936   1.746   8.251  0.00  0.00    +0.000 A 
ATOM     11  H   UNL     1      43.808   2.644  11.043  0.00  0.00    +0.000 HD
BRANCH   4  13
ATOM     12  N   UNL     1      48.145   1.938   5.548  0.00  0.00    +0.000 NA
ATOM     13  C   UNL     1      47.454   2.278   6.422  0.00  0.00    +0.000 C 
ENDBRANCH   4  13
ENDBRANCH   1   8
BRANCH   1  14
ATOM     14  C   UNL     1      45.137   5.100  12.430  0.00  0.00    +0.000 A 
ATOM     15  C   UNL     1      45.454   4.266  13.498  0.00  0.00    +0.000 A 
ATOM     16  C   UNL     1      46.701   4.402  14.060  0.00  0.00    +0.000 A 
ATOM     17  N   UNL     1      47.591   5.321  13.658  0.00  0.00    +0.000 NA
ATOM     18  C   UNL     1      47.162   6.149  12.675  0.00  0.00    +0.000 A 
ATOM     19  N   UNL     1      45.974   6.085  12.047  0.00  0.00    +0.000 NA
BRANCH  18  20
ATOM     20  C   UNL     1      48.165   7.144  12.149  0.00  0.00    +0.000 C 
ATOM     21  N   UNL     1      49.487   6.842  12.395  0.00  0.00    +0.000 N 
ATOM     22  O   UNL     1      47.865   8.150  11.515  0.00  0.00    +0.000 OA
ATOM     23  H   UNL     1      49.728   5.980  12.869  0.00  0.00    +0.000 HD
ATOM     24  H   UNL     1      50.200   7.440  12.010  0.00  0.00    +0.000 HD
ENDBRANCH  18  20
ENDBRANCH   1  14
TORSDOF 4
ENDMDL
MODEL 4
REMARK VINA RESULT:    -6.320      3.520      5.404
REMARK INTER + INTRA:          -7.414
REMARK INTER:                  -7.808
REMARK INTRA:                   0.394
REMARK UNBOUND:                 0.384
REMARK  Name = 
REMARK  4 active torsions:
REMARK  status: ('A' for Active; 'I' for Inactive)
REMARK    1  A    between atoms: C_2  and  C_3
REMARK    2  A    between atoms: N_7  and  C_8
REMARK    3  A    between atoms: C_8  and  C_9
REMARK    4  A    between atoms: C_13  and  C_14
REMARK                            x       y       z     vdW  Elec       q    Type
REMARK                         _______ _______ _______ _____ _____    ______ ____
ROOT
ATOM      1  C   UNL     1      48.253   7.457  14.105  0.00  0.00    +0.000 C 
ATOM      2  C   UNL     1      49.186   8.579  13.681  0.00  0.00    +0.000 C 
ATOM      3  C   UNL     1      49.364   7.230  13.070  0.00  0.00    +0.000 C 
ENDROOT
BRANCH   1   8
ATOM      4  C   UNL     1      44.548   4.163  12.368  0.00  0.00    +0.000 A 
ATOM      5  C   UNL     1      45.924   3.963  12.467  0.00  0.00    +0.000 A 
ATOM      6  C   UNL     1      46.751   5.018  12.878  0.00  0.00    +0.000 A 
ATOM      7  C   UNL     1      46.178   6.244  13.195  0.00  0.00    +0.000 A 
ATOM      8  N   UNL     1      46.877   7.367  13.618  0.00  0.00    +0.000 N 
ATOM      9  N   UNL     1      44.843   6.446  13.100  0.00  0.00    +0.000 NA
ATOM     10  C   UNL     1      44.064   5.415  12.694  0.00  0.00    +0.000 A 
ATOM     11  H   UNL     1      46.216   8.115  13.793  0.00  0.00    +0.000 HD
BRANCH   4  13
ATOM     12  N   UNL     1      42.934   2.279  11.621  0.00  0.00    +0.000 NA
ATOM     13  C   UNL     1      43.656   3.131  11.952  0.00  0.00    +0.000 C 
ENDBRANCH   4  13
ENDBRANCH   1   8
BRANCH   1  14
ATOM     14  C   UNL     1      48.529   6.696  15.406  0.00  0.00    +0.000 A 
ATOM     15  C   UNL     1      48.700   7.408  16.590  0.00  0.00    +0.000 A 
ATOM     16  C   UNL     1      48.594   6.712  17.770  0.00  0.00    +0.000 A 
ATOM     17  N   UNL     1      48.383   5.390  17.826  0.00  0.00    +0.000 NA
ATOM     18  C   UNL     1      48.322   4.764  16.626  0.00  0.00    +0.000 A 
ATOM     19  N   UNL     1      48.391   5.354  15.419  0.00  0.00    +0.000 NA
BRANCH  18  20
ATOM     20  C   UNL     1      48.011   3.289  16.652  0.00  0.00    +0.000 C 
ATOM     21  N   UNL     1      47.058   2.898  17.567  0.00  0.00    +0.000 N 
ATOM     22  O   UNL     1      48.528   2.466  15.905  0.00  0.00    +0.000 OA
ATOM     23  H   UNL     1      46.594   3.593  18.140  0.00  0.00    +0.000 HD
ATOM     24  H   UNL     1      46.766   1.934  17.582  0.00  0.00    +0.000 HD
ENDBRANCH  18  20
ENDBRANCH   1  14
TORSDOF 4
ENDMDL
MODEL 5
REMARK VINA RESULT:    -6.275      3.802      5.778
REMARK INTER + INTRA:          -7.359
REMARK INTER:                  -7.027
REMARK INTRA:                  -0.332
REMARK UNBOUND:                 0.384
REMARK  Name = 
REMARK  4 active torsions:
REMARK  status: ('A' for Active; 'I' for Inactive)
REMARK    1  A    between atoms: C_2  and  C_3
REMARK    2  A    between atoms: N_7  and  C_8
REMARK    3  A    between atoms: C_8  and  C_9
REMARK    4  A    between atoms: C_13  and  C_14
REMARK                            x       y       z     vdW  Elec       q    Type
REMARK                         _______ _______ _______ _____ _____    ______ ____
ROOT
ATOM      1  C   UNL     1      46.987   8.196  13.125  0.00  0.00    +0.000 C 
ATOM      2  C   UNL     1      48.496   8.028  13.072  0.00  0.00    +0.000 C 
ATOM      3  C   UNL     1      47.875   8.528  14.332  0.00  0.00    +0.000 C 
ENDROOT
BRANCH   1   8
ATOM      4  C   UNL     1      44.947   4.028  10.664  0.00  0.00    +0.000 A 
ATOM      5  C   UNL     1      45.575   5.147  10.121  0.00  0.00    +0.000 A 
ATOM      6  C   UNL     1      45.970   6.198  10.961  0.00  0.00    +0.000 A 
ATOM      7  C   UNL     1      45.741   6.094  12.328  0.00  0.00    +0.000 A 
ATOM      8  N   UNL     1      46.084   7.055  13.270  0.00  0.00    +0.000 N 
ATOM      9  N   UNL     1      45.131   5.011  12.862  0.00  0.00    +0.000 NA
ATOM     10  C   UNL     1      44.751   4.011  12.032  0.00  0.00    +0.000 A 
ATOM     11  H   UNL     1      45.818   6.720  14.189  0.00  0.00    +0.000 HD
BRANCH   4  13
ATOM     12  N   UNL     1      44.163   2.043   9.195  0.00  0.00    +0.000 NA
ATOM     13  C   UNL     1      44.518   2.930   9.861  0.00  0.00    +0.000 C 
ENDBRANCH   4  13
ENDBRANCH   1   8
BRANCH   1  14
ATOM     14  C   UNL     1      46.345   9.456  12.533  0.00  0.00    +0.000 A 
ATOM     15  C   UNL     1      47.155  10.417  11.935  0.00  0.00    +0.000 A 
ATOM     16  C   UNL     1      46.548  11.340  11.118  0.00  0.00    +0.000 A 
ATOM     17  N   UNL     1      45.223  11.381  10.915  0.00  0.00    +0.000 NA
ATOM     18  C   UNL     1      44.504  10.467  11.610  0.00  0.00    +0.000 A 
ATOM     19  N   UNL     1      45.003   9.510  12.414  0.00  0.00    +0.000 NA
BRANCH  18  20
ATOM     20  C   UNL     1      43.020  10.437  11.347  0.00  0.00    +0.000 C 
ATOM     21  N   UNL     1      42.246  11.168  12.222  0.00  0.00    +0.000 N 
ATOM     22  O   UNL     1      42.502   9.840  10.410  0.00  0.00    +0.000 OA
ATOM     23  H   UNL     1      42.688  11.705  12.958  0.00  0.00    +0.000 HD
ATOM     24  H   UNL     1      41.255  11.235  12.054  0.00  0.00    +0.000 HD
ENDBRANCH  18  20
ENDBRANCH   1  14
TORSDOF 4
ENDMDL
MODEL 6
REMARK VINA RESULT:    -6.194      3.505      6.354
REMARK INTER + INTRA:          -7.259
REMARK INTER:                  -7.187
REMARK INTRA:                  -0.072
REMARK UNBOUND:                 0.384
REMARK  Name = 
REMARK  4 active torsions:
REMARK  status: ('A' for Active; 'I' for Inactive)
REMARK    1  A    between atoms: C_2  and  C_3
REMARK    2  A    between atoms: N_7  and  C_8
REMARK    3  A    between atoms: C_8  and  C_9
REMARK    4  A    between atoms: C_13  and  C_14
REMARK                            x       y       z     vdW  Elec       q    Type
REMARK                         _______ _______ _______ _____ _____    ______ ____
ROOT
ATOM      1  C   UNL     1      48.028   4.606  16.670  0.00  0.00    +0.000 C 
ATOM      2  C   UNL     1      47.129   3.577  17.335  0.00  0.00    +0.000 C 
ATOM      3  C   UNL     1      47.309   4.903  17.993  0.00  0.00    +0.000 C 
ENDROOT
BRANCH   1   8
ATOM      4  C   UNL     1      45.554   4.318  12.045  0.00  0.00    +0.000 A 
ATOM      5  C   UNL     1      46.095   3.291  12.818  0.00  0.00    +0.000 A 
ATOM      6  C   UNL     1      46.799   3.599  13.989  0.00  0.00    +0.000 A 
ATOM      7  C   UNL     1      46.932   4.931  14.369  0.00  0.00    +0.000 A 
ATOM      8  N   UNL     1      47.597   5.375  15.503  0.00  0.00    +0.000 N 
ATOM      9  N   UNL     1      46.411   5.933  13.624  0.00  0.00    +0.000 NA
ATOM     10  C   UNL     1      45.740   5.612  12.491  0.00  0.00    +0.000 A 
ATOM     11  H   UNL     1      47.530   6.385  15.546  0.00  0.00    +0.000 HD
BRANCH   4  13
ATOM     12  N   UNL     1      44.239   3.849   9.863  0.00  0.00    +0.000 NA
ATOM     13  C   UNL     1      44.832   4.068  10.842  0.00  0.00    +0.000 C 
ENDBRANCH   4  13
ENDBRANCH   1   8
BRANCH   1  14
ATOM     14  C   UNL     1      49.547   4.518  16.861  0.00  0.00    +0.000 A 
ATOM     15  C   UNL     1      50.282   5.687  17.032  0.00  0.00    +0.000 A 
ATOM     16  C   UNL     1      51.552   5.570  17.543  0.00  0.00    +0.000 A 
ATOM     17  N   UNL     1      52.120   4.391  17.834  0.00  0.00    +0.000 NA
ATOM     18  C   UNL     1      51.367   3.301  17.548  0.00  0.00    +0.000 A 
ATOM     19  N   UNL     1      50.109   3.310  17.070  0.00  0.00    +0.000 NA
BRANCH  18  20
ATOM     20  C   UNL     1      51.946   1.964  17.933  0.00  0.00    +0.000 C 
ATOM     21  N   UNL     1      51.238   0.863  17.503  0.00  0.00    +0.000 N 
ATOM     22  O   UNL     1      52.991   1.824  18.560  0.00  0.00    +0.000 OA
ATOM     23  H   UNL     1      50.408   0.987  16.936  0.00  0.00    +0.000 HD
ATOM     24  H   UNL     1      51.614  -0.054  17.677  0.00  0.00    +0.000 HD
ENDBRANCH  18  20
ENDBRANCH   1  14
TORSDOF 4
ENDMDL
MODEL 7
REMARK VINA RESULT:    -6.121      2.997      6.770
REMARK INTER + INTRA:          -7.169
REMARK INTER:                  -7.479
REMARK INTRA:                   0.310
REMARK UNBOUND:                 0.384
REMARK  Name = 
REMARK  4 active torsions:
REMARK  status: ('A' for Active; 'I' for Inactive)
REMARK    1  A    between atoms: C_2  and  C_3
REMARK    2  A    between atoms: N_7  and  C_8
REMARK    3  A    between atoms: C_8  and  C_9
REMARK    4  A    between atoms: C_13  and  C_14
REMARK                            x       y       z     vdW  Elec       q    Type
REMARK                         _______ _______ _______ _____ _____    ______ ____
ROOT
ATOM      1  C   UNL     1      45.735   5.921  12.487  0.00  0.00    +0.000 C 
ATOM      2  C   UNL     1      45.771   7.062  11.484  0.00  0.00    +0.000 C 
ATOM      3  C   UNL     1      44.698   7.052  12.519  0.00  0.00    +0.000 C 
ENDROOT
BRANCH   1   8
ATOM      4  C   UNL     1      50.384   7.559  14.301  0.00  0.00    +0.000 A 
ATOM      5  C   UNL     1      49.902   7.562  12.994  0.00  0.00    +0.000 A 
ATOM      6  C   UNL     1      48.654   6.989  12.713  0.00  0.00    +0.000 A 
ATOM      7  C   UNL     1      47.910   6.442  13.752  0.00  0.00    +0.000 A 
ATOM      8  N   UNL     1      46.662   5.849  13.616  0.00  0.00    +0.000 N 
ATOM      9  N   UNL     1      48.372   6.435  15.024  0.00  0.00    +0.000 NA
ATOM     10  C   UNL     1      49.584   6.987  15.272  0.00  0.00    +0.000 A 
ATOM     11  H   UNL     1      46.342   5.550  14.529  0.00  0.00    +0.000 HD
BRANCH   4  13
ATOM     12  N   UNL     1      52.672   8.594  14.937  0.00  0.00    +0.000 NA
ATOM     13  C   UNL     1      51.647   8.122  14.649  0.00  0.00    +0.000 C 
ENDBRANCH   4  13
ENDBRANCH   1   8
BRANCH   1  14
ATOM     14  C   UNL     1      45.099   4.583  12.087  0.00  0.00    +0.000 A 
ATOM     15  C   UNL     1      44.101   4.037  12.888  0.00  0.00    +0.000 A 
ATOM     16  C   UNL     1      43.318   3.049  12.341  0.00  0.00    +0.000 A 
ATOM     17  N   UNL     1      43.505   2.565  11.105  0.00  0.00    +0.000 NA
ATOM     18  C   UNL     1      44.557   3.091  10.432  0.00  0.00    +0.000 A 
ATOM     19  N   UNL     1      45.367   4.073  10.868  0.00  0.00    +0.000 NA
BRANCH  18  20
ATOM     20  C   UNL     1      44.748   2.623   9.011  0.00  0.00    +0.000 C 
ATOM     21  N   UNL     1      44.327   3.500   8.035  0.00  0.00    +0.000 N 
ATOM     22  O   UNL     1      45.267   1.556   8.705  0.00  0.00    +0.000 OA
ATOM     23  H   UNL     1      43.952   4.404   8.296  0.00  0.00    +0.000 HD
ATOM     24  H   UNL     1      44.489   3.265   7.069  0.00  0.00    +0.000 HD
ENDBRANCH  18  20
ENDBRANCH   1  14
TORSDOF 4
ENDMDL
MODEL 8
REMARK VINA RESULT:    -6.028      4.370      8.398
REMARK INTER + INTRA:          -7.053
REMARK INTER:                  -6.944
REMARK INTRA:                  -0.109
REMARK UNBOUND:                 0.384
REMARK  Name = 
REMARK  4 active torsions:
REMARK  status: ('A' for Active; 'I' for Inactive)
REMARK    1  A    between atoms: C_2  and  C_3
REMARK    2  A    between atoms: N_7  and  C_8
REMARK    3  A    between atoms: C_8  and  C_9
REMARK    4  A    between atoms: C_13  and  C_14
REMARK                            x       y       z     vdW  Elec       q    Type
REMARK                         _______ _______ _______ _____ _____    ______ ____
ROOT
ATOM      1  C   UNL     1      48.007   3.859  16.931  0.00  0.00    +0.000 C 
ATOM      2  C   UNL     1      47.809   4.426  18.327  0.00  0.00    +0.000 C 
ATOM      3  C   UNL     1      46.783   3.491  17.782  0.00  0.00    +0.000 C 
ENDROOT
BRANCH   1   8
ATOM      4  C   UNL     1      52.795   2.015  18.055  0.00  0.00    +0.000 A 
ATOM      5  C   UNL     1      52.276   3.291  18.261  0.00  0.00    +0.000 A 
ATOM      6  C   UNL     1      50.988   3.600  17.800  0.00  0.00    +0.000 A 
ATOM      7  C   UNL     1      50.245   2.616  17.157  0.00  0.00    +0.000 A 
ATOM      8  N   UNL     1      48.961   2.785  16.657  0.00  0.00    +0.000 N 
ATOM      9  N   UNL     1      50.743   1.375  16.952  0.00  0.00    +0.000 NA
ATOM     10  C   UNL     1      51.992   1.101  17.400  0.00  0.00    +0.000 A 
ATOM     11  H   UNL     1      48.651   1.909  16.254  0.00  0.00    +0.000 HD
BRANCH   4  13
ATOM     12  N   UNL     1      55.165   1.349  18.864  0.00  0.00    +0.000 NA
ATOM     13  C   UNL     1      54.099   1.642  18.496  0.00  0.00    +0.000 C 
ENDBRANCH   4  13
ENDBRANCH   1   8
BRANCH   1  14
ATOM     14  C   UNL     1      47.614   4.700  15.711  0.00  0.00    +0.000 A 
ATOM     15  C   UNL     1      48.315   5.871  15.435  0.00  0.00    +0.000 A 
ATOM     16  C   UNL     1      48.187   6.406  14.176  0.00  0.00    +0.000 A 
ATOM     17  N   UNL     1      47.390   5.882  13.234  0.00  0.00    +0.000 NA
ATOM     18  C   UNL     1      46.675   4.798  13.620  0.00  0.00    +0.000 A 
ATOM     19  N   UNL     1      46.746   4.186  14.816  0.00  0.00    +0.000 NA
BRANCH  18  20
ATOM     20  C   UNL     1      45.828   4.140  12.561  0.00  0.00    +0.000 C 
ATOM     21  N   UNL     1      45.562   2.802  12.758  0.00  0.00    +0.000 N 
ATOM     22  O   UNL     1      45.363   4.728  11.591  0.00  0.00    +0.000 OA
ATOM     23  H   UNL     1      45.902   2.338  13.592  0.00  0.00    +0.000 HD
ATOM     24  H   UNL     1      44.948   2.329  12.115  0.00  0.00    +0.000 HD
ENDBRANCH  18  20
ENDBRANCH   1  14
TORSDOF 4
ENDMDL
MODEL 9
REMARK VINA RESULT:    -5.931      3.730      6.547
REMARK INTER + INTRA:          -6.935
REMARK INTER:                  -6.649
REMARK INTRA:                  -0.286
REMARK UNBOUND:                 0.384
REMARK  Name = 
REMARK  4 active torsions:
REMARK  status: ('A' for Active; 'I' for Inactive)
REMARK    1  A    between atoms: C_2  and  C_3
REMARK    2  A    between atoms: N_7  and  C_8
REMARK    3  A    between atoms: C_8  and  C_9
REMARK    4  A    between atoms: C_13  and  C_14
REMARK                            x       y       z     vdW  Elec       q    Type
REMARK                         _______ _______ _______ _____ _____    ______ ____
ROOT
ATOM      1  C   UNL     1      46.860   7.627  12.655  0.00  0.00    +0.000 C 
ATOM      2  C   UNL     1      46.169   8.625  11.742  0.00  0.00    +0.000 C 
ATOM      3  C   UNL     1      45.649   8.443  13.127  0.00  0.00    +0.000 C 
ENDROOT
BRANCH   1   8
ATOM      4  C   UNL     1      51.984   8.412  11.809  0.00  0.00    +0.000 A 
ATOM      5  C   UNL     1      51.037   7.821  10.975  0.00  0.00    +0.000 A 
ATOM      6  C   UNL     1      49.728   7.628  11.437  0.00  0.00    +0.000 A 
ATOM      7  C   UNL     1      49.394   8.047  12.720  0.00  0.00    +0.000 A 
ATOM      8  N   UNL     1      48.139   7.921  13.300  0.00  0.00    +0.000 N 
ATOM      9  N   UNL     1      50.309   8.619  13.536  0.00  0.00    +0.000 NA
ATOM     10  C   UNL     1      51.570   8.790  13.072  0.00  0.00    +0.000 A 
ATOM     11  H   UNL     1      48.169   8.319  14.231  0.00  0.00    +0.000 HD
BRANCH   4  13
ATOM     12  N   UNL     1      54.429   8.824  11.058  0.00  0.00    +0.000 NA
ATOM     13  C   UNL     1      53.332   8.631  11.398  0.00  0.00    +0.000 C 
ENDBRANCH   4  13
ENDBRANCH   1   8
BRANCH   1  14
ATOM     14  C   UNL     1      46.524   6.135  12.537  0.00  0.00    +0.000 A 
ATOM     15  C   UNL     1      47.037   5.244  13.474  0.00  0.00    +0.000 A 
ATOM     16  C   UNL     1      46.453   4.003  13.557  0.00  0.00    +0.000 A 
ATOM     17  N   UNL     1      45.456   3.607  12.753  0.00  0.00    +0.000 NA
ATOM     18  C   UNL     1      45.083   4.505  11.810  0.00  0.00    +0.000 A 
ATOM     19  N   UNL     1      45.575   5.749  11.661  0.00  0.00    +0.000 NA
BRANCH  18  20
ATOM     20  C   UNL     1      43.915   4.119  10.939  0.00  0.00    +0.000 C 
ATOM     21  N   UNL     1      43.820   4.791   9.740  0.00  0.00    +0.000 N 
ATOM     22  O   UNL     1      43.099   3.251  11.230  0.00  0.00    +0.000 OA
ATOM     23  H   UNL     1      44.530   5.465   9.481  0.00  0.00    +0.000 HD
ATOM     24  H   UNL     1      43.095   4.527   9.092  0.00  0.00    +0.000 HD
ENDBRANCH  18  20
ENDBRANCH   1  14
TORSDOF 4
ENDMDL
