MODEL 1
REMARK VINA RESULT:    -8.492      0.000      0.000
REMARK INTER + INTRA:         -12.404
REMARK INTER:                 -11.470
REMARK INTRA:                  -0.934
REMARK UNBOUND:                -0.934
REMARK  Name = 
REMARK  6 active torsions:
REMARK  status: ('A' for Active; 'I' for Inactive)
REMARK    1  A    between atoms: C_2  and  C_25
REMARK    2  A    between atoms: N_3  and  C_4
REMARK    3  A    between atoms: C_4  and  C_5
REMARK    4  A    between atoms: C_8  and  C_9
REMARK    5  A    between atoms: C_9  and  N_10
REMARK    6  A    between atoms: C_11  and  C_13
REMARK                            x       y       z     vdW  Elec       q    Type
REMARK                         _______ _______ _______ _____ _____    ______ ____
ROOT
ATOM      1  C   UNL     1      44.960   6.259  11.283  0.00  0.00    +0.000 A 
ATOM      2  C   UNL     1      44.634   7.579  11.585  0.00  0.00    +0.000 A 
ATOM      3  C   UNL     1      45.463   8.315  12.436  0.00  0.00    +0.000 A 
ATOM      4  C   UNL     1      46.595   7.720  12.995  0.00  0.00    +0.000 A 
ATOM      5  C   UNL     1      46.837   6.394  12.647  0.00  0.00    +0.000 A 
ATOM      6  N   UNL     1      46.055   5.655  11.815  0.00  0.00    +0.000 NA
ENDROOT
BRANCH   1   7
ATOM      7  C   UNL     1      44.109   5.476  10.301  0.00  0.00    +0.000 C 
BRANCH   7  10
ATOM      8  O   UNL     1      44.334   2.661  10.183  0.00  0.00    +0.000 OA
ATOM      9  C   UNL     1      44.917   3.346   9.345  0.00  0.00    +0.000 C 
ATOM     10  N   UNL     1      44.870   4.721   9.327  0.00  0.00    +0.000 N 
ATOM     11  H   UNL     1      45.384   5.203   8.594  0.00  0.00    +0.000 HD
BRANCH   9  12
ATOM     12  C   UNL     1      45.717   2.705   8.252  0.00  0.00    +0.000 A 
ATOM     13  C   UNL     1      46.010   3.440   7.106  0.00  0.00    +0.000 A 
ATOM     14  C   UNL     1      46.770   2.838   6.110  0.00  0.00    +0.000 A 
ATOM     15  C   UNL     1      47.201   1.527   6.286  0.00  0.00    +0.000 A 
ATOM     16  C   UNL     1      46.857   0.868   7.458  0.00  0.00    +0.000 A 
ATOM     17  N   UNL     1      46.131   1.423   8.455  0.00  0.00    +0.000 NA
ENDBRANCH   9  12
ENDBRANCH   7  10
ENDBRANCH   1   7
BRANCH   4  18
ATOM     18  C   UNL     1      47.514   8.470  13.923  0.00  0.00    +0.000 C 
BRANCH  18  19
ATOM     19  N   UNL     1      47.870   7.694  15.090  0.00  0.00    +0.000 N 
ATOM     20  C   UNL     1      49.060   7.008  15.177  0.00  0.00    +0.000 C 
ATOM     21  O   UNL     1      49.908   7.049  14.294  0.00  0.00    +0.000 OA
ATOM     22  H   UNL     1      47.112   7.424  15.705  0.00  0.00    +0.000 HD
BRANCH  20  23
ATOM     23  C   UNL     1      49.282   6.261  16.428  0.00  0.00    +0.000 A 
ATOM     24  C   UNL     1      50.262   6.670  17.325  0.00  0.00    +0.000 A 
ATOM     25  S   UNL     1      50.354   5.697  18.727  0.00  0.00    +0.000 S 
ATOM     26  C   UNL     1      49.114   4.672  18.166  0.00  0.00    +0.000 A 
ATOM     27  N   UNL     1      48.707   3.595  18.892  0.00  0.00    +0.000 NA
ATOM     28  C   UNL     1      47.763   2.908  18.341  0.00  0.00    +0.000 A 
ATOM     29  N   UNL     1      47.185   3.200  17.135  0.00  0.00    +0.000 N 
ATOM     30  C   UNL     1      47.551   4.287  16.376  0.00  0.00    +0.000 A 
ATOM     31  O   UNL     1      46.982   4.546  15.323  0.00  0.00    +0.000 OA
ATOM     32  C   UNL     1      48.620   5.086  16.942  0.00  0.00    +0.000 A 
ATOM     33  H   UNL     1      46.434   2.637  16.764  0.00  0.00    +0.000 HD
ENDBRANCH  20  23
ENDBRANCH  18  19
ENDBRANCH   4  18
TORSDOF 6
ENDMDL
MODEL 2
REMARK VINA RESULT:    -7.942      0.982      1.405
REMARK INTER + INTRA:         -11.661
REMARK INTER:                 -10.641
REMARK INTRA:                  -1.020
REMARK UNBOUND:                -0.934
REMARK  Name = 
REMARK  6 active torsions:
REMARK  status: ('A' for Active; 'I' for Inactive)
REMARK    1  A    between atoms: C_2  and  C_25
REMARK    2  A    between atoms: N_3  and  C_4
REMARK    3  A    between atoms: C_4  and  C_5
REMARK    4  A    between atoms: C_8  and  C_9
REMARK    5  A    between atoms: C_9  and  N_10
REMARK    6  A    between atoms: C_11  and  C_13
REMARK                            x       y       z     vdW  Elec       q    Type
REMARK                         _______ _______ _______ _____ _____    ______ ____
ROOT
ATOM      1  C   UNL     1      45.391   6.634  11.452  0.00  0.00    +0.000 A 
ATOM      2  C   UNL     1      46.653   6.161  11.803  0.00  0.00    +0.000 A 
ATOM      3  C   UNL     1      47.429   6.880  12.717  0.00  0.00    +0.000 A 
ATOM      4  C   UNL     1      46.948   8.076  13.252  0.00  0.00    +0.000 A 
ATOM      5  C   UNL     1      45.682   8.478  12.836  0.00  0.00    +0.000 A 
ATOM      6  N   UNL     1      44.900   7.796  11.957  0.00  0.00    +0.000 NA
ENDROOT
BRANCH   1   7
ATOM      7  C   UNL     1      44.512   5.822  10.521  0.00  0.00    +0.000 C 
BRANCH   7  10
ATOM      8  O   UNL     1      43.927   3.168   9.742  0.00  0.00    +0.000 OA
ATOM      9  C   UNL     1      44.880   3.749   9.227  0.00  0.00    +0.000 C 
ATOM     10  N   UNL     1      45.243   5.037   9.548  0.00  0.00    +0.000 N 
ATOM     11  H   UNL     1      46.047   5.436   9.069  0.00  0.00    +0.000 HD
BRANCH   9  12
ATOM     12  C   UNL     1      45.712   3.078   8.177  0.00  0.00    +0.000 A 
ATOM     13  C   UNL     1      46.074   1.745   8.349  0.00  0.00    +0.000 A 
ATOM     14  C   UNL     1      46.830   1.131   7.356  0.00  0.00    +0.000 A 
ATOM     15  C   UNL     1      47.205   1.868   6.238  0.00  0.00    +0.000 A 
ATOM     16  C   UNL     1      46.805   3.194   6.153  0.00  0.00    +0.000 A 
ATOM     17  N   UNL     1      46.059   3.823   7.090  0.00  0.00    +0.000 NA
ENDBRANCH   9  12
ENDBRANCH   7  10
ENDBRANCH   1   7
BRANCH   4  18
ATOM     18  C   UNL     1      47.750   8.889  14.234  0.00  0.00    +0.000 C 
BRANCH  18  19
ATOM     19  N   UNL     1      48.061   8.150  15.436  0.00  0.00    +0.000 N 
ATOM     20  C   UNL     1      49.315   7.636  15.675  0.00  0.00    +0.000 C 
ATOM     21  O   UNL     1      50.254   7.812  14.908  0.00  0.00    +0.000 OA
ATOM     22  H   UNL     1      47.277   7.765  15.948  0.00  0.00    +0.000 HD
BRANCH  20  23
ATOM     23  C   UNL     1      49.480   6.904  16.944  0.00  0.00    +0.000 A 
ATOM     24  C   UNL     1      50.219   7.459  17.982  0.00  0.00    +0.000 A 
ATOM     25  S   UNL     1      50.277   6.477  19.379  0.00  0.00    +0.000 S 
ATOM     26  C   UNL     1      49.351   5.259  18.631  0.00  0.00    +0.000 A 
ATOM     27  N   UNL     1      49.046   4.103  19.283  0.00  0.00    +0.000 NA
ATOM     28  C   UNL     1      48.342   3.271  18.591  0.00  0.00    +0.000 A 
ATOM     29  N   UNL     1      47.910   3.489  17.311  0.00  0.00    +0.000 N 
ATOM     30  C   UNL     1      48.177   4.648  16.620  0.00  0.00    +0.000 A 
ATOM     31  O   UNL     1      47.736   4.830  15.492  0.00  0.00    +0.000 OA
ATOM     32  C   UNL     1      48.979   5.613  17.347  0.00  0.00    +0.000 A 
ATOM     33  H   UNL     1      47.342   2.809  16.827  0.00  0.00    +0.000 HD
ENDBRANCH  20  23
ENDBRANCH  18  19
ENDBRANCH   4  18
TORSDOF 6
ENDMDL
MODEL 3
REMARK VINA RESULT:    -7.360      2.425      4.045
REMARK INTER + INTRA:         -10.876
REMARK INTER:                  -9.880
REMARK INTRA:                  -0.995
REMARK UNBOUND:                -0.934
REMARK  Name = 
REMARK  6 active torsions:
REMARK  status: ('A' for Active; 'I' for Inactive)
REMARK    1  A    between atoms: C_2  and  C_25
REMARK    2  A    between atoms: N_3  and  C_4
REMARK    3  A    between atoms: C_4  and  C_5
REMARK    4  A    between atoms: C_8  and  C_9
REMARK    5  A    between atoms: C_9  and  N_10
REMARK    6  A    between atoms: C_11  and  C_13
REMARK                            x       y       z     vdW  Elec       q    Type
REMARK                         _______ _______ _______ _____ _____    ______ ____
ROOT
ATOM      1  C   UNL     1      44.649   4.163  11.723  0.00  0.00    +0.000 A 
ATOM      2  C   UNL     1      44.604   5.444  12.267  0.00  0.00    +0.000 A 
ATOM      3  C   UNL     1      45.415   5.756  13.361  0.00  0.00    +0.000 A 
ATOM      4  C   UNL     1      46.245   4.781  13.916  0.00  0.00    +0.000 A 
ATOM      5  C   UNL     1      46.217   3.526  13.315  0.00  0.00    +0.000 A 
ATOM      6  N   UNL     1      45.447   3.194  12.244  0.00  0.00    +0.000 NA
ENDROOT
BRANCH   1   7
ATOM      7  C   UNL     1      43.830   3.837  10.488  0.00  0.00    +0.000 C 
BRANCH   7  10
ATOM      8  O   UNL     1      45.659   5.078   8.726  0.00  0.00    +0.000 OA
ATOM      9  C   UNL     1      45.456   3.870   8.627  0.00  0.00    +0.000 C 
ATOM     10  N   UNL     1      44.579   3.182   9.435  0.00  0.00    +0.000 N 
ATOM     11  H   UNL     1      44.477   2.182   9.280  0.00  0.00    +0.000 HD
BRANCH   9  12
ATOM     12  C   UNL     1      46.184   3.049   7.606  0.00  0.00    +0.000 A 
ATOM     13  C   UNL     1      46.515   3.626   6.383  0.00  0.00    +0.000 A 
ATOM     14  C   UNL     1      47.207   2.857   5.455  0.00  0.00    +0.000 A 
ATOM     15  C   UNL     1      47.536   1.544   5.774  0.00  0.00    +0.000 A 
ATOM     16  C   UNL     1      47.160   1.049   7.015  0.00  0.00    +0.000 A 
ATOM     17  N   UNL     1      46.498   1.768   7.949  0.00  0.00    +0.000 NA
ENDBRANCH   9  12
ENDBRANCH   7  10
ENDBRANCH   1   7
BRANCH   4  18
ATOM     18  C   UNL     1      47.131   5.067  15.100  0.00  0.00    +0.000 C 
BRANCH  18  19
ATOM     19  N   UNL     1      47.917   6.267  14.921  0.00  0.00    +0.000 N 
ATOM     20  C   UNL     1      49.112   6.463  15.575  0.00  0.00    +0.000 C 
ATOM     21  O   UNL     1      49.604   5.618  16.312  0.00  0.00    +0.000 OA
ATOM     22  H   UNL     1      47.434   7.074  14.545  0.00  0.00    +0.000 HD
BRANCH  20  23
ATOM     23  C   UNL     1      49.799   7.736  15.292  0.00  0.00    +0.000 A 
ATOM     24  C   UNL     1      50.242   8.541  16.335  0.00  0.00    +0.000 A 
ATOM     25  S   UNL     1      51.036   9.961  15.812  0.00  0.00    +0.000 S 
ATOM     26  C   UNL     1      50.780   9.569  14.174  0.00  0.00    +0.000 A 
ATOM     27  N   UNL     1      51.202  10.394  13.177  0.00  0.00    +0.000 NA
ATOM     28  C   UNL     1      50.936   9.970  11.987  0.00  0.00    +0.000 A 
ATOM     29  N   UNL     1      50.293   8.797  11.701  0.00  0.00    +0.000 N 
ATOM     30  C   UNL     1      49.866   7.923  12.674  0.00  0.00    +0.000 A 
ATOM     31  O   UNL     1      49.333   6.859  12.382  0.00  0.00    +0.000 OA
ATOM     32  C   UNL     1      50.126   8.358  14.031  0.00  0.00    +0.000 A 
ATOM     33  H   UNL     1      50.132   8.506  10.747  0.00  0.00    +0.000 HD
ENDBRANCH  20  23
ENDBRANCH  18  19
ENDBRANCH   4  18
TORSDOF 6
ENDMDL
MODEL 4
REMARK VINA RESULT:    -7.209      3.239      8.662
REMARK INTER + INTRA:         -10.672
REMARK INTER:                  -9.816
REMARK INTRA:                  -0.856
REMARK UNBOUND:                -0.934
REMARK  Name = 
REMARK  6 active torsions:
REMARK  status: ('A' for Active; 'I' for Inactive)
REMARK    1  A    between atoms: C_2  and  C_25
REMARK    2  A    between atoms: N_3  and  C_4
REMARK    3  A    between atoms: C_4  and  C_5
REMARK    4  A    between atoms: C_8  and  C_9
REMARK    5  A    between atoms: C_9  and  N_10
REMARK    6  A    between atoms: C_11  and  C_13
REMARK                            x       y       z     vdW  Elec       q    Type
REMARK                         _______ _______ _______ _____ _____    ______ ____
ROOT
ATOM      1  C   UNL     1      50.004   7.342  15.326  0.00  0.00    +0.000 A 
ATOM      2  C   UNL     1      50.096   8.465  14.507  0.00  0.00    +0.000 A 
ATOM      3  C   UNL     1      49.197   8.620  13.448  0.00  0.00    +0.000 A 
ATOM      4  C   UNL     1      48.231   7.643  13.204  0.00  0.00    +0.000 A 
ATOM      5  C   UNL     1      48.220   6.550  14.066  0.00  0.00    +0.000 A 
ATOM      6  N   UNL     1      49.074   6.375  15.109  0.00  0.00    +0.000 NA
ENDROOT
BRANCH   1   7
ATOM      7  C   UNL     1      50.925   7.203  16.523  0.00  0.00    +0.000 C 
BRANCH   7  10
ATOM      8  O   UNL     1      49.850   5.265  18.277  0.00  0.00    +0.000 OA
ATOM      9  C   UNL     1      50.838   4.982  17.603  0.00  0.00    +0.000 C 
ATOM     10  N   UNL     1      51.433   5.863  16.728  0.00  0.00    +0.000 N 
ATOM     11  H   UNL     1      52.247   5.539  16.211  0.00  0.00    +0.000 HD
BRANCH   9  12
ATOM     12  C   UNL     1      51.456   3.619  17.680  0.00  0.00    +0.000 A 
ATOM     13  C   UNL     1      52.729   3.483  18.227  0.00  0.00    +0.000 A 
ATOM     14  C   UNL     1      53.280   2.209  18.310  0.00  0.00    +0.000 A 
ATOM     15  C   UNL     1      52.551   1.123  17.836  0.00  0.00    +0.000 A 
ATOM     16  C   UNL     1      51.292   1.354  17.301  0.00  0.00    +0.000 A 
ATOM     17  N   UNL     1      50.715   2.574  17.215  0.00  0.00    +0.000 NA
ENDBRANCH   9  12
ENDBRANCH   7  10
ENDBRANCH   1   7
BRANCH   4  18
ATOM     18  C   UNL     1      47.246   7.762  12.071  0.00  0.00    +0.000 C 
BRANCH  18  19
ATOM     19  N   UNL     1      46.583   6.510  11.785  0.00  0.00    +0.000 N 
ATOM     20  C   UNL     1      45.216   6.419  11.653  0.00  0.00    +0.000 C 
ATOM     21  O   UNL     1      44.483   7.398  11.724  0.00  0.00    +0.000 OA
ATOM     22  H   UNL     1      47.106   5.664  11.979  0.00  0.00    +0.000 HD
BRANCH  20  23
ATOM     23  C   UNL     1      44.685   5.075  11.363  0.00  0.00    +0.000 A 
ATOM     24  C   UNL     1      43.907   4.410  12.303  0.00  0.00    +0.000 A 
ATOM     25  S   UNL     1      43.363   2.877  11.779  0.00  0.00    +0.000 S 
ATOM     26  C   UNL     1      44.180   3.032  10.293  0.00  0.00    +0.000 A 
ATOM     27  N   UNL     1      44.147   2.039   9.362  0.00  0.00    +0.000 NA
ATOM     28  C   UNL     1      44.814   2.294   8.287  0.00  0.00    +0.000 A 
ATOM     29  N   UNL     1      45.508   3.451   8.053  0.00  0.00    +0.000 N 
ATOM     30  C   UNL     1      45.554   4.488   8.955  0.00  0.00    +0.000 A 
ATOM     31  O   UNL     1      46.146   5.529   8.696  0.00  0.00    +0.000 OA
ATOM     32  C   UNL     1      44.832   4.248  10.189  0.00  0.00    +0.000 A 
ATOM     33  H   UNL     1      45.994   3.603   7.182  0.00  0.00    +0.000 HD
ENDBRANCH  20  23
ENDBRANCH  18  19
ENDBRANCH   4  18
TORSDOF 6
ENDMDL
MODEL 5
REMARK VINA RESULT:    -7.005      3.379      5.088
REMARK INTER + INTRA:         -10.397
REMARK INTER:                  -9.600
REMARK INTRA:                  -0.797
REMARK UNBOUND:                -0.934
REMARK  Name = 
REMARK  6 active torsions:
REMARK  status: ('A' for Active; 'I' for Inactive)
REMARK    1  A    between atoms: C_2  and  C_25
REMARK    2  A    between atoms: N_3  and  C_4
REMARK    3  A    between atoms: C_4  and  C_5
REMARK    4  A    between atoms: C_8  and  C_9
REMARK    5  A    between atoms: C_9  and  N_10
REMARK    6  A    between atoms: C_11  and  C_13
REMARK                            x       y       z     vdW  Elec       q    Type
REMARK                         _______ _______ _______ _____ _____    ______ ____
ROOT
ATOM      1  C   UNL     1      47.438   5.619  14.544  0.00  0.00    +0.000 A 
ATOM      2  C   UNL     1      48.329   6.192  15.449  0.00  0.00    +0.000 A 
ATOM      3  C   UNL     1      48.660   5.504  16.618  0.00  0.00    +0.000 A 
ATOM      4  C   UNL     1      48.083   4.261  16.885  0.00  0.00    +0.000 A 
ATOM      5  C   UNL     1      47.196   3.770  15.932  0.00  0.00    +0.000 A 
ATOM      6  N   UNL     1      46.861   4.412  14.780  0.00  0.00    +0.000 NA
ENDROOT
BRANCH   1   7
ATOM      7  C   UNL     1      47.132   6.323  13.236  0.00  0.00    +0.000 C 
BRANCH   7  10
ATOM      8  O   UNL     1      44.821   6.641  11.639  0.00  0.00    +0.000 OA
ATOM      9  C   UNL     1      45.559   5.678  11.442  0.00  0.00    +0.000 C 
ATOM     10  N   UNL     1      46.700   5.439  12.173  0.00  0.00    +0.000 N 
ATOM     11  H   UNL     1      47.250   4.616  11.937  0.00  0.00    +0.000 HD
BRANCH   9  12
ATOM     12  C   UNL     1      45.262   4.693  10.353  0.00  0.00    +0.000 A 
ATOM     13  C   UNL     1      45.712   4.955   9.062  0.00  0.00    +0.000 A 
ATOM     14  C   UNL     1      45.446   4.022   8.066  0.00  0.00    +0.000 A 
ATOM     15  C   UNL     1      44.735   2.870   8.390  0.00  0.00    +0.000 A 
ATOM     16  C   UNL     1      44.320   2.695   9.702  0.00  0.00    +0.000 A 
ATOM     17  N   UNL     1      44.571   3.572  10.701  0.00  0.00    +0.000 NA
ENDBRANCH   9  12
ENDBRANCH   7  10
ENDBRANCH   1   7
BRANCH   4  18
ATOM     18  C   UNL     1      48.403   3.485  18.136  0.00  0.00    +0.000 C 
BRANCH  18  19
ATOM     19  N   UNL     1      49.809   3.165  18.239  0.00  0.00    +0.000 N 
ATOM     20  C   UNL     1      50.424   2.286  17.376  0.00  0.00    +0.000 C 
ATOM     21  O   UNL     1      49.831   1.758  16.443  0.00  0.00    +0.000 OA
ATOM     22  H   UNL     1      50.256   3.362  19.126  0.00  0.00    +0.000 HD
BRANCH  20  23
ATOM     23  C   UNL     1      51.862   2.058  17.606  0.00  0.00    +0.000 A 
ATOM     24  C   UNL     1      52.360   0.764  17.708  0.00  0.00    +0.000 A 
ATOM     25  S   UNL     1      54.050   0.700  17.949  0.00  0.00    +0.000 S 
ATOM     26  C   UNL     1      54.170   2.399  17.965  0.00  0.00    +0.000 A 
ATOM     27  N   UNL     1      55.366   3.020  18.157  0.00  0.00    +0.000 NA
ATOM     28  C   UNL     1      55.303   4.310  18.149  0.00  0.00    +0.000 A 
ATOM     29  N   UNL     1      54.159   5.036  17.961  0.00  0.00    +0.000 N 
ATOM     30  C   UNL     1      52.932   4.452  17.744  0.00  0.00    +0.000 A 
ATOM     31  O   UNL     1      51.935   5.131  17.534  0.00  0.00    +0.000 OA
ATOM     32  C   UNL     1      52.943   3.003  17.759  0.00  0.00    +0.000 A 
ATOM     33  H   UNL     1      54.175   6.045  17.942  0.00  0.00    +0.000 HD
ENDBRANCH  20  23
ENDBRANCH  18  19
ENDBRANCH   4  18
TORSDOF 6
ENDMDL
MODEL 6
REMARK VINA RESULT:    -6.961      2.724      3.762
REMARK INTER + INTRA:         -10.337
REMARK INTER:                  -9.540
REMARK INTRA:                  -0.796
REMARK UNBOUND:                -0.934
REMARK  Name = 
REMARK  6 active torsions:
REMARK  status: ('A' for Active; 'I' for Inactive)
REMARK    1  A    between atoms: C_2  and  C_25
REMARK    2  A    between atoms: N_3  and  C_4
REMARK    3  A    between atoms: C_4  and  C_5
REMARK    4  A    between atoms: C_8  and  C_9
REMARK    5  A    between atoms: C_9  and  N_10
REMARK    6  A    between atoms: C_11  and  C_13
REMARK                            x       y       z     vdW  Elec       q    Type
REMARK                         _______ _______ _______ _____ _____    ______ ____
ROOT
ATOM      1  C   UNL     1      44.940   4.304  11.832  0.00  0.00    +0.000 A 
ATOM      2  C   UNL     1      45.216   5.614  12.217  0.00  0.00    +0.000 A 
ATOM      3  C   UNL     1      46.065   5.848  13.301  0.00  0.00    +0.000 A 
ATOM      4  C   UNL     1      46.613   4.774  14.005  0.00  0.00    +0.000 A 
ATOM      5  C   UNL     1      46.274   3.501  13.558  0.00  0.00    +0.000 A 
ATOM      6  N   UNL     1      45.458   3.240  12.501  0.00  0.00    +0.000 NA
ENDROOT
BRANCH   1   7
ATOM      7  C   UNL     1      44.081   4.040  10.610  0.00  0.00    +0.000 C 
BRANCH   7  10
ATOM      8  O   UNL     1      45.830   5.183   8.707  0.00  0.00    +0.000 OA
ATOM      9  C   UNL     1      45.606   3.976   8.666  0.00  0.00    +0.000 C 
ATOM     10  N   UNL     1      44.765   3.333   9.547  0.00  0.00    +0.000 N 
ATOM     11  H   UNL     1      44.641   2.329   9.436  0.00  0.00    +0.000 HD
BRANCH   9  12
ATOM     12  C   UNL     1      46.268   3.105   7.642  0.00  0.00    +0.000 A 
ATOM     13  C   UNL     1      46.570   3.638   6.392  0.00  0.00    +0.000 A 
ATOM     14  C   UNL     1      47.202   2.823   5.460  0.00  0.00    +0.000 A 
ATOM     15  C   UNL     1      47.500   1.508   5.802  0.00  0.00    +0.000 A 
ATOM     16  C   UNL     1      47.156   1.059   7.069  0.00  0.00    +0.000 A 
ATOM     17  N   UNL     1      46.554   1.824   8.008  0.00  0.00    +0.000 NA
ENDBRANCH   9  12
ENDBRANCH   7  10
ENDBRANCH   1   7
BRANCH   4  18
ATOM     18  C   UNL     1      47.527   4.977  15.185  0.00  0.00    +0.000 C 
BRANCH  18  19
ATOM     19  N   UNL     1      47.883   6.365  15.371  0.00  0.00    +0.000 N 
ATOM     20  C   UNL     1      49.096   6.745  15.901  0.00  0.00    +0.000 C 
ATOM     21  O   UNL     1      49.963   5.934  16.204  0.00  0.00    +0.000 OA
ATOM     22  H   UNL     1      47.121   7.032  15.386  0.00  0.00    +0.000 HD
BRANCH  20  23
ATOM     23  C   UNL     1      49.316   8.196  16.031  0.00  0.00    +0.000 A 
ATOM     24  C   UNL     1      49.536   8.976  14.902  0.00  0.00    +0.000 A 
ATOM     25  S   UNL     1      49.744  10.637  15.249  0.00  0.00    +0.000 S 
ATOM     26  C   UNL     1      49.586  10.365  16.923  0.00  0.00    +0.000 A 
ATOM     27  N   UNL     1      49.689  11.386  17.817  0.00  0.00    +0.000 NA
ATOM     28  C   UNL     1      49.552  11.031  19.050  0.00  0.00    +0.000 A 
ATOM     29  N   UNL     1      49.318   9.751  19.473  0.00  0.00    +0.000 N 
ATOM     30  C   UNL     1      49.188   8.691  18.607  0.00  0.00    +0.000 A 
ATOM     31  O   UNL     1      48.934   7.564  19.016  0.00  0.00    +0.000 OA
ATOM     32  C   UNL     1      49.349   9.032  17.207  0.00  0.00    +0.000 A 
ATOM     33  H   UNL     1      49.198   9.536  20.452  0.00  0.00    +0.000 HD
ENDBRANCH  20  23
ENDBRANCH  18  19
ENDBRANCH   4  18
TORSDOF 6
ENDMDL
MODEL 7
REMARK VINA RESULT:    -6.921      3.342      4.841
REMARK INTER + INTRA:         -10.282
REMARK INTER:                  -9.226
REMARK INTRA:                  -1.056
REMARK UNBOUND:                -0.934
REMARK  Name = 
REMARK  6 active torsions:
REMARK  status: ('A' for Active; 'I' for Inactive)
REMARK    1  A    between atoms: C_2  and  C_25
REMARK    2  A    between atoms: N_3  and  C_4
REMARK    3  A    between atoms: C_4  and  C_5
REMARK    4  A    between atoms: C_8  and  C_9
REMARK    5  A    between atoms: C_9  and  N_10
REMARK    6  A    between atoms: C_11  and  C_13
REMARK                            x       y       z     vdW  Elec       q    Type
REMARK                         _______ _______ _______ _____ _____    ______ ____
ROOT
ATOM      1  C   UNL     1      45.488   6.570  11.684  0.00  0.00    +0.000 A 
ATOM      2  C   UNL     1      46.675   6.003  12.144  0.00  0.00    +0.000 A 
ATOM      3  C   UNL     1      47.470   6.710  13.048  0.00  0.00    +0.000 A 
ATOM      4  C   UNL     1      47.087   7.985  13.468  0.00  0.00    +0.000 A 
ATOM      5  C   UNL     1      45.893   8.477  12.950  0.00  0.00    +0.000 A 
ATOM      6  N   UNL     1      45.092   7.809  12.075  0.00  0.00    +0.000 NA
ENDROOT
BRANCH   1   7
ATOM      7  C   UNL     1      44.580   5.778  10.762  0.00  0.00    +0.000 C 
BRANCH   7  10
ATOM      8  O   UNL     1      43.820   3.229   9.808  0.00  0.00    +0.000 OA
ATOM      9  C   UNL     1      44.832   3.761   9.358  0.00  0.00    +0.000 C 
ATOM     10  N   UNL     1      45.282   4.996   9.767  0.00  0.00    +0.000 N 
ATOM     11  H   UNL     1      46.131   5.357   9.337  0.00  0.00    +0.000 HD
BRANCH   9  12
ATOM     12  C   UNL     1      45.646   3.088   8.295  0.00  0.00    +0.000 A 
ATOM     13  C   UNL     1      46.010   1.755   8.463  0.00  0.00    +0.000 A 
ATOM     14  C   UNL     1      46.749   1.139   7.458  0.00  0.00    +0.000 A 
ATOM     15  C   UNL     1      47.105   1.874   6.332  0.00  0.00    +0.000 A 
ATOM     16  C   UNL     1      46.704   3.200   6.253  0.00  0.00    +0.000 A 
ATOM     17  N   UNL     1      45.974   3.831   7.201  0.00  0.00    +0.000 NA
ENDBRANCH   9  12
ENDBRANCH   7  10
ENDBRANCH   1   7
BRANCH   4  18
ATOM     18  C   UNL     1      47.915   8.788  14.436  0.00  0.00    +0.000 C 
BRANCH  18  19
ATOM     19  N   UNL     1      49.267   8.990  13.967  0.00  0.00    +0.000 N 
ATOM     20  C   UNL     1      50.326   8.253  14.446  0.00  0.00    +0.000 C 
ATOM     21  O   UNL     1      50.182   7.352  15.264  0.00  0.00    +0.000 OA
ATOM     22  H   UNL     1      49.462   9.872  13.508  0.00  0.00    +0.000 HD
BRANCH  20  23
ATOM     23  C   UNL     1      51.645   8.573  13.873  0.00  0.00    +0.000 A 
ATOM     24  C   UNL     1      52.675   9.022  14.691  0.00  0.00    +0.000 A 
ATOM     25  S   UNL     1      54.134   9.317  13.852  0.00  0.00    +0.000 S 
ATOM     26  C   UNL     1      53.430   8.891  12.361  0.00  0.00    +0.000 A 
ATOM     27  N   UNL     1      54.143   8.946  11.203  0.00  0.00    +0.000 NA
ATOM     28  C   UNL     1      53.478   8.599  10.152  0.00  0.00    +0.000 A 
ATOM     29  N   UNL     1      52.170   8.198  10.151  0.00  0.00    +0.000 N 
ATOM     30  C   UNL     1      51.417   8.108  11.298  0.00  0.00    +0.000 A 
ATOM     31  O   UNL     1      50.262   7.702  11.269  0.00  0.00    +0.000 OA
ATOM     32  C   UNL     1      52.111   8.502  12.509  0.00  0.00    +0.000 A 
ATOM     33  H   UNL     1      51.709   7.916   9.299  0.00  0.00    +0.000 HD
ENDBRANCH  20  23
ENDBRANCH  18  19
ENDBRANCH   4  18
TORSDOF 6
ENDMDL
MODEL 8
REMARK VINA RESULT:    -6.820      3.925      8.691
REMARK INTER + INTRA:         -10.146
REMARK INTER:                  -9.191
REMARK INTRA:                  -0.955
REMARK UNBOUND:                -0.934
REMARK  Name = 
REMARK  6 active torsions:
REMARK  status: ('A' for Active; 'I' for Inactive)
REMARK    1  A    between atoms: C_2  and  C_25
REMARK    2  A    between atoms: N_3  and  C_4
REMARK    3  A    between atoms: C_4  and  C_5
REMARK    4  A    between atoms: C_8  and  C_9
REMARK    5  A    between atoms: C_9  and  N_10
REMARK    6  A    between atoms: C_11  and  C_13
REMARK                            x       y       z     vdW  Elec       q    Type
REMARK                         _______ _______ _______ _____ _____    ______ ____
ROOT
ATOM      1  C   UNL     1      49.022   4.802  17.369  0.00  0.00    +0.000 A 
ATOM      2  C   UNL     1      47.911   4.338  16.669  0.00  0.00    +0.000 A 
ATOM      3  C   UNL     1      47.527   4.975  15.486  0.00  0.00    +0.000 A 
ATOM      4  C   UNL     1      48.241   6.082  15.026  0.00  0.00    +0.000 A 
ATOM      5  C   UNL     1      49.330   6.483  15.794  0.00  0.00    +0.000 A 
ATOM      6  N   UNL     1      49.734   5.879  16.944  0.00  0.00    +0.000 NA
ENDROOT
BRANCH   1   7
ATOM      7  C   UNL     1      49.492   4.071  18.612  0.00  0.00    +0.000 C 
BRANCH   7  10
ATOM      8  O   UNL     1      50.246   1.814  17.086  0.00  0.00    +0.000 OA
ATOM      9  C   UNL     1      51.102   2.416  17.731  0.00  0.00    +0.000 C 
ATOM     10  N   UNL     1      50.827   3.519  18.506  0.00  0.00    +0.000 N 
ATOM     11  H   UNL     1      51.601   3.952  19.005  0.00  0.00    +0.000 HD
BRANCH   9  12
ATOM     12  C   UNL     1      52.536   1.984  17.693  0.00  0.00    +0.000 A 
ATOM     13  C   UNL     1      53.532   2.918  17.960  0.00  0.00    +0.000 A 
ATOM     14  C   UNL     1      54.857   2.497  17.940  0.00  0.00    +0.000 A 
ATOM     15  C   UNL     1      55.141   1.167  17.648  0.00  0.00    +0.000 A 
ATOM     16  C   UNL     1      54.084   0.306  17.389  0.00  0.00    +0.000 A 
ATOM     17  N   UNL     1      52.783   0.674  17.411  0.00  0.00    +0.000 NA
ENDBRANCH   9  12
ENDBRANCH   7  10
ENDBRANCH   1   7
BRANCH   4  18
ATOM     18  C   UNL     1      47.861   6.806  13.761  0.00  0.00    +0.000 C 
BRANCH  18  19
ATOM     19  N   UNL     1      47.186   5.945  12.817  0.00  0.00    +0.000 N 
ATOM     20  C   UNL     1      46.289   6.432  11.893  0.00  0.00    +0.000 C 
ATOM     21  O   UNL     1      46.042   7.627  11.785  0.00  0.00    +0.000 OA
ATOM     22  H   UNL     1      47.157   4.957  13.042  0.00  0.00    +0.000 HD
BRANCH  20  23
ATOM     23  C   UNL     1      45.679   5.432  10.998  0.00  0.00    +0.000 A 
ATOM     24  C   UNL     1      45.802   5.558   9.619  0.00  0.00    +0.000 A 
ATOM     25  S   UNL     1      45.052   4.293   8.749  0.00  0.00    +0.000 S 
ATOM     26  C   UNL     1      44.505   3.554  10.183  0.00  0.00    +0.000 A 
ATOM     27  N   UNL     1      43.762   2.414  10.150  0.00  0.00    +0.000 NA
ATOM     28  C   UNL     1      43.415   1.971  11.311  0.00  0.00    +0.000 A 
ATOM     29  N   UNL     1      43.746   2.558  12.503  0.00  0.00    +0.000 N 
ATOM     30  C   UNL     1      44.510   3.698  12.586  0.00  0.00    +0.000 A 
ATOM     31  O   UNL     1      44.827   4.172  13.670  0.00  0.00    +0.000 OA
ATOM     32  C   UNL     1      44.915   4.247  11.307  0.00  0.00    +0.000 A 
ATOM     33  H   UNL     1      43.464   2.151  13.383  0.00  0.00    +0.000 HD
ENDBRANCH  20  23
ENDBRANCH  18  19
ENDBRANCH   4  18
TORSDOF 6
ENDMDL
MODEL 9
REMARK VINA RESULT:    -6.716      2.408      2.913
REMARK INTER + INTRA:         -10.006
REMARK INTER:                  -9.101
REMARK INTRA:                  -0.905
REMARK UNBOUND:                -0.934
REMARK  Name = 
REMARK  6 active torsions:
REMARK  status: ('A' for Active; 'I' for Inactive)
REMARK    1  A    between atoms: C_2  and  C_25
REMARK    2  A    between atoms: N_3  and  C_4
REMARK    3  A    between atoms: C_4  and  C_5
REMARK    4  A    between atoms: C_8  and  C_9
REMARK    5  A    between atoms: C_9  and  N_10
REMARK    6  A    between atoms: C_11  and  C_13
REMARK                            x       y       z     vdW  Elec       q    Type
REMARK                         _______ _______ _______ _____ _____    ______ ____
ROOT
ATOM      1  C   UNL     1      45.588   7.008  11.618  0.00  0.00    +0.000 A 
ATOM      2  C   UNL     1      46.945   6.693  11.584  0.00  0.00    +0.000 A 
ATOM      3  C   UNL     1      47.829   7.362  12.433  0.00  0.00    +0.000 A 
ATOM      4  C   UNL     1      47.355   8.356  13.292  0.00  0.00    +0.000 A 
ATOM      5  C   UNL     1      45.988   8.612  13.252  0.00  0.00    +0.000 A 
ATOM      6  N   UNL     1      45.101   7.971  12.443  0.00  0.00    +0.000 NA
ENDROOT
BRANCH   1   7
ATOM      7  C   UNL     1      44.610   6.233  10.755  0.00  0.00    +0.000 C 
BRANCH   7  10
ATOM      8  O   UNL     1      43.825   3.555  10.307  0.00  0.00    +0.000 OA
ATOM      9  C   UNL     1      44.779   4.013   9.683  0.00  0.00    +0.000 C 
ATOM     10  N   UNL     1      45.236   5.302   9.839  0.00  0.00    +0.000 N 
ATOM     11  H   UNL     1      46.033   5.594   9.278  0.00  0.00    +0.000 HD
BRANCH   9  12
ATOM     12  C   UNL     1      45.508   3.180   8.672  0.00  0.00    +0.000 A 
ATOM     13  C   UNL     1      46.066   3.800   7.558  0.00  0.00    +0.000 A 
ATOM     14  C   UNL     1      46.755   3.016   6.640  0.00  0.00    +0.000 A 
ATOM     15  C   UNL     1      46.854   1.646   6.860  0.00  0.00    +0.000 A 
ATOM     16  C   UNL     1      46.261   1.112   7.995  0.00  0.00    +0.000 A 
ATOM     17  N   UNL     1      45.594   1.842   8.917  0.00  0.00    +0.000 NA
ENDBRANCH   9  12
ENDBRANCH   7  10
ENDBRANCH   1   7
BRANCH   4  18
ATOM     18  C   UNL     1      48.270   9.110  14.221  0.00  0.00    +0.000 C 
BRANCH  18  19
ATOM     19  N   UNL     1      48.298   8.540  15.548  0.00  0.00    +0.000 N 
ATOM     20  C   UNL     1      49.462   8.432  16.275  0.00  0.00    +0.000 C 
ATOM     21  O   UNL     1      50.536   8.852  15.861  0.00  0.00    +0.000 OA
ATOM     22  H   UNL     1      47.511   7.956  15.809  0.00  0.00    +0.000 HD
BRANCH  20  23
ATOM     23  C   UNL     1      49.332   7.828  17.613  0.00  0.00    +0.000 A 
ATOM     24  C   UNL     1      50.039   6.674  17.933  0.00  0.00    +0.000 A 
ATOM     25  S   UNL     1      49.781   6.138  19.535  0.00  0.00    +0.000 S 
ATOM     26  C   UNL     1      48.686   7.406  19.844  0.00  0.00    +0.000 A 
ATOM     27  N   UNL     1      48.065   7.524  21.049  0.00  0.00    +0.000 NA
ATOM     28  C   UNL     1      47.261   8.530  21.137  0.00  0.00    +0.000 A 
ATOM     29  N   UNL     1      47.023   9.431  20.135  0.00  0.00    +0.000 N 
ATOM     30  C   UNL     1      47.641   9.363  18.909  0.00  0.00    +0.000 A 
ATOM     31  O   UNL     1      47.440  10.212  18.049  0.00  0.00    +0.000 OA
ATOM     32  C   UNL     1      48.545   8.241  18.750  0.00  0.00    +0.000 A 
ATOM     33  H   UNL     1      46.399  10.212  20.270  0.00  0.00    +0.000 HD
ENDBRANCH  20  23
ENDBRANCH  18  19
ENDBRANCH   4  18
TORSDOF 6
ENDMDL
