MODEL 1
REMARK VINA RESULT:    -8.636      0.000      0.000
REMARK INTER + INTRA:         -13.298
REMARK INTER:                 -12.170
REMARK INTRA:                  -1.128
REMARK UNBOUND:                -1.128
REMARK  Name = 
REMARK  7 active torsions:
REMARK  status: ('A' for Active; 'I' for Inactive)
REMARK    1  A    between atoms: C_2  and  C_20
REMARK    2  A    between atoms: N_3  and  C_4
REMARK    3  A    between atoms: C_4  and  C_5
REMARK    4  A    between atoms: C_8  and  C_9
REMARK    5  A    between atoms: C_9  and  O_10
REMARK    6  A    between atoms: O_10  and  C_11
REMARK    7  A    between atoms: C_11  and  C_12
REMARK                            x       y       z     vdW  Elec       q    Type
REMARK                         _______ _______ _______ _____ _____    ______ ____
ROOT
ATOM      1  C   UNL     1      46.605   7.670  12.810  0.00  0.00    +0.000 C 
ENDROOT
BRANCH   1   2
ATOM      2  C   UNL     1      45.890   6.490  12.209  0.00  0.00    +0.000 A 
ATOM      3  C   UNL     1      45.174   5.609  13.027  0.00  0.00    +0.000 A 
ATOM      4  C   UNL     1      44.506   4.513  12.478  0.00  0.00    +0.000 A 
ATOM      5  C   UNL     1      44.550   4.268  11.098  0.00  0.00    +0.000 A 
ATOM      6  C   UNL     1      45.285   5.137  10.283  0.00  0.00    +0.000 A 
ATOM      7  C   UNL     1      45.954   6.235  10.833  0.00  0.00    +0.000 A 
BRANCH   5   8
ATOM      8  C   UNL     1      43.843   3.073  10.511  0.00  0.00    +0.000 C 
BRANCH   8   9
ATOM      9  O   UNL     1      44.263   2.901   9.161  0.00  0.00    +0.000 OA
BRANCH   9  10
ATOM     10  C   UNL     1      45.156   1.798   9.017  0.00  0.00    +0.000 C 
BRANCH  10  11
ATOM     11  C   UNL     1      46.102   2.050   7.876  0.00  0.00    +0.000 A 
ATOM     12  C   UNL     1      46.062   3.223   7.118  0.00  0.00    +0.000 A 
ATOM     13  C   UNL     1      46.949   3.398   6.059  0.00  0.00    +0.000 A 
ATOM     14  C   UNL     1      47.842   2.379   5.780  0.00  0.00    +0.000 A 
ATOM     15  N   UNL     1      47.898   1.220   6.470  0.00  0.00    +0.000 NA
ATOM     16  C   UNL     1      47.027   1.083   7.496  0.00  0.00    +0.000 A 
ENDBRANCH  10  11
ENDBRANCH   9  10
ENDBRANCH   8   9
ENDBRANCH   5   8
ENDBRANCH   1   2
BRANCH   1  19
ATOM     17  O   UNL     1      48.977   6.238  13.344  0.00  0.00    +0.000 OA
ATOM     18  C   UNL     1      48.330   6.698  14.281  0.00  0.00    +0.000 C 
ATOM     19  N   UNL     1      47.136   7.351  14.109  0.00  0.00    +0.000 N 
ATOM     20  H   UNL     1      46.754   7.882  14.882  0.00  0.00    +0.000 HD
BRANCH  18  21
ATOM     21  C   UNL     1      48.765   6.521  15.671  0.00  0.00    +0.000 A 
ATOM     22  C   UNL     1      49.487   7.521  16.306  0.00  0.00    +0.000 A 
ATOM     23  S   UNL     1      49.927   7.132  17.908  0.00  0.00    +0.000 S 
ATOM     24  C   UNL     1      49.131   5.631  17.820  0.00  0.00    +0.000 A 
ATOM     25  N   UNL     1      49.101   4.790  18.889  0.00  0.00    +0.000 NA
ATOM     26  C   UNL     1      48.427   3.703  18.696  0.00  0.00    +0.000 A 
ATOM     27  N   UNL     1      47.786   3.379  17.528  0.00  0.00    +0.000 N 
ATOM     28  C   UNL     1      47.853   4.163  16.401  0.00  0.00    +0.000 A 
ATOM     29  O   UNL     1      47.383   3.775  15.337  0.00  0.00    +0.000 OA
ATOM     30  C   UNL     1      48.558   5.417  16.580  0.00  0.00    +0.000 A 
ATOM     31  H   UNL     1      47.303   2.502  17.430  0.00  0.00    +0.000 HD
ENDBRANCH  18  21
ENDBRANCH   1  19
TORSDOF 7
ENDMDL
MODEL 2
REMARK VINA RESULT:    -7.684      2.095      2.730
REMARK INTER + INTRA:         -11.957
REMARK INTER:                 -10.930
REMARK INTRA:                  -1.027
REMARK UNBOUND:                -1.128
REMARK  Name = 
REMARK  7 active torsions:
REMARK  status: ('A' for Active; 'I' for Inactive)
REMARK    1  A    between atoms: C_2  and  C_20
REMARK    2  A    between atoms: N_3  and  C_4
REMARK    3  A    between atoms: C_4  and  C_5
REMARK    4  A    between atoms: C_8  and  C_9
REMARK    5  A    between atoms: C_9  and  O_10
REMARK    6  A    between atoms: O_10  and  C_11
REMARK    7  A    between atoms: C_11  and  C_12
REMARK                            x       y       z     vdW  Elec       q    Type
REMARK                         _______ _______ _______ _____ _____    ______ ____
ROOT
ATOM      1  C   UNL     1      48.005   7.462  13.918  0.00  0.00    +0.000 C 
ENDROOT
BRANCH   1   2
ATOM      2  C   UNL     1      47.101   6.610  13.067  0.00  0.00    +0.000 A 
ATOM      3  C   UNL     1      46.566   7.121  11.879  0.00  0.00    +0.000 A 
ATOM      4  C   UNL     1      45.728   6.338  11.082  0.00  0.00    +0.000 A 
ATOM      5  C   UNL     1      45.398   5.030  11.464  0.00  0.00    +0.000 A 
ATOM      6  C   UNL     1      45.916   4.528  12.664  0.00  0.00    +0.000 A 
ATOM      7  C   UNL     1      46.755   5.312  13.461  0.00  0.00    +0.000 A 
BRANCH   5   8
ATOM      8  C   UNL     1      44.479   4.194  10.611  0.00  0.00    +0.000 C 
BRANCH   8   9
ATOM      9  O   UNL     1      45.028   2.886  10.480  0.00  0.00    +0.000 OA
BRANCH   9  10
ATOM     10  C   UNL     1      44.586   2.240   9.287  0.00  0.00    +0.000 C 
BRANCH  10  11
ATOM     11  C   UNL     1      45.684   2.252   8.261  0.00  0.00    +0.000 A 
ATOM     12  C   UNL     1      45.972   3.380   7.489  0.00  0.00    +0.000 A 
ATOM     13  C   UNL     1      46.988   3.332   6.538  0.00  0.00    +0.000 A 
ATOM     14  C   UNL     1      47.677   2.143   6.378  0.00  0.00    +0.000 A 
ATOM     15  N   UNL     1      47.415   1.023   7.083  0.00  0.00    +0.000 NA
ATOM     16  C   UNL     1      46.426   1.103   8.004  0.00  0.00    +0.000 A 
ENDBRANCH  10  11
ENDBRANCH   9  10
ENDBRANCH   8   9
ENDBRANCH   5   8
ENDBRANCH   1   2
BRANCH   1  19
ATOM     17  O   UNL     1      50.160   6.480  15.451  0.00  0.00    +0.000 OA
ATOM     18  C   UNL     1      49.067   6.642  15.987  0.00  0.00    +0.000 C 
ATOM     19  N   UNL     1      47.956   7.055  15.298  0.00  0.00    +0.000 N 
ATOM     20  H   UNL     1      47.145   7.366  15.819  0.00  0.00    +0.000 HD
BRANCH  18  21
ATOM     21  C   UNL     1      48.859   6.338  17.407  0.00  0.00    +0.000 A 
ATOM     22  C   UNL     1      49.185   5.084  17.904  0.00  0.00    +0.000 A 
ATOM     23  S   UNL     1      48.854   4.903  19.568  0.00  0.00    +0.000 S 
ATOM     24  C   UNL     1      48.303   6.508  19.689  0.00  0.00    +0.000 A 
ATOM     25  N   UNL     1      47.886   7.018  20.880  0.00  0.00    +0.000 NA
ATOM     26  C   UNL     1      47.533   8.261  20.834  0.00  0.00    +0.000 A 
ATOM     27  N   UNL     1      47.556   9.039  19.705  0.00  0.00    +0.000 N 
ATOM     28  C   UNL     1      47.899   8.545  18.469  0.00  0.00    +0.000 A 
ATOM     29  O   UNL     1      47.775   9.233  17.462  0.00  0.00    +0.000 OA
ATOM     30  C   UNL     1      48.348   7.167  18.474  0.00  0.00    +0.000 A 
ATOM     31  H   UNL     1      47.239   9.994  19.729  0.00  0.00    +0.000 HD
ENDBRANCH  18  21
ENDBRANCH   1  19
TORSDOF 7
ENDMDL
MODEL 3
REMARK VINA RESULT:    -7.501      2.286      3.500
REMARK INTER + INTRA:         -11.699
REMARK INTER:                 -10.770
REMARK INTRA:                  -0.928
REMARK UNBOUND:                -1.128
REMARK  Name = 
REMARK  7 active torsions:
REMARK  status: ('A' for Active; 'I' for Inactive)
REMARK    1  A    between atoms: C_2  and  C_20
REMARK    2  A    between atoms: N_3  and  C_4
REMARK    3  A    between atoms: C_4  and  C_5
REMARK    4  A    between atoms: C_8  and  C_9
REMARK    5  A    between atoms: C_9  and  O_10
REMARK    6  A    between atoms: O_10  and  C_11
REMARK    7  A    between atoms: C_11  and  C_12
REMARK                            x       y       z     vdW  Elec       q    Type
REMARK                         _______ _______ _______ _____ _____    ______ ____
ROOT
ATOM      1  C   UNL     1      47.519   4.047  15.350  0.00  0.00    +0.000 C 
ENDROOT
BRANCH   1   2
ATOM      2  C   UNL     1      46.886   4.506  14.063  0.00  0.00    +0.000 A 
ATOM      3  C   UNL     1      47.170   5.778  13.554  0.00  0.00    +0.000 A 
ATOM      4  C   UNL     1      46.589   6.212  12.361  0.00  0.00    +0.000 A 
ATOM      5  C   UNL     1      45.702   5.385  11.658  0.00  0.00    +0.000 A 
ATOM      6  C   UNL     1      45.401   4.121  12.179  0.00  0.00    +0.000 A 
ATOM      7  C   UNL     1      45.983   3.687  13.374  0.00  0.00    +0.000 A 
BRANCH   5   8
ATOM      8  C   UNL     1      45.062   5.863  10.379  0.00  0.00    +0.000 C 
BRANCH   8   9
ATOM      9  O   UNL     1      45.719   5.251   9.273  0.00  0.00    +0.000 OA
BRANCH   9  10
ATOM     10  C   UNL     1      44.908   4.252   8.657  0.00  0.00    +0.000 C 
BRANCH  10  11
ATOM     11  C   UNL     1      45.773   3.142   8.129  0.00  0.00    +0.000 A 
ATOM     12  C   UNL     1      46.727   3.350   7.130  0.00  0.00    +0.000 A 
ATOM     13  C   UNL     1      47.490   2.284   6.663  0.00  0.00    +0.000 A 
ATOM     14  C   UNL     1      47.260   1.031   7.202  0.00  0.00    +0.000 A 
ATOM     15  N   UNL     1      46.331   0.780   8.150  0.00  0.00    +0.000 NA
ATOM     16  C   UNL     1      45.611   1.838   8.587  0.00  0.00    +0.000 A 
ENDBRANCH  10  11
ENDBRANCH   9  10
ENDBRANCH   8   9
ENDBRANCH   5   8
ENDBRANCH   1   2
BRANCH   1  19
ATOM     17  O   UNL     1      49.743   5.205  16.643  0.00  0.00    +0.000 OA
ATOM     18  C   UNL     1      48.618   5.634  16.886  0.00  0.00    +0.000 C 
ATOM     19  N   UNL     1      47.483   5.084  16.347  0.00  0.00    +0.000 N 
ATOM     20  H   UNL     1      46.612   5.596  16.415  0.00  0.00    +0.000 HD
BRANCH  18  21
ATOM     21  C   UNL     1      48.406   6.735  17.831  0.00  0.00    +0.000 A 
ATOM     22  C   UNL     1      48.309   6.475  19.191  0.00  0.00    +0.000 A 
ATOM     23  S   UNL     1      48.039   7.871  20.134  0.00  0.00    +0.000 S 
ATOM     24  C   UNL     1      48.085   8.874  18.762  0.00  0.00    +0.000 A 
ATOM     25  N   UNL     1      47.942  10.223  18.874  0.00  0.00    +0.000 NA
ATOM     26  C   UNL     1      48.038  10.866  17.756  0.00  0.00    +0.000 A 
ATOM     27  N   UNL     1      48.258  10.281  16.535  0.00  0.00    +0.000 N 
ATOM     28  C   UNL     1      48.332   8.919  16.366  0.00  0.00    +0.000 A 
ATOM     29  O   UNL     1      48.392   8.428  15.244  0.00  0.00    +0.000 OA
ATOM     30  C   UNL     1      48.278   8.155  17.596  0.00  0.00    +0.000 A 
ATOM     31  H   UNL     1      48.291  10.835  15.696  0.00  0.00    +0.000 HD
ENDBRANCH  18  21
ENDBRANCH   1  19
TORSDOF 7
ENDMDL
MODEL 4
REMARK VINA RESULT:    -7.250      2.123      2.499
REMARK INTER + INTRA:         -11.344
REMARK INTER:                 -10.337
REMARK INTRA:                  -1.007
REMARK UNBOUND:                -1.128
REMARK  Name = 
REMARK  7 active torsions:
REMARK  status: ('A' for Active; 'I' for Inactive)
REMARK    1  A    between atoms: C_2  and  C_20
REMARK    2  A    between atoms: N_3  and  C_4
REMARK    3  A    between atoms: C_4  and  C_5
REMARK    4  A    between atoms: C_8  and  C_9
REMARK    5  A    between atoms: C_9  and  O_10
REMARK    6  A    between atoms: O_10  and  C_11
REMARK    7  A    between atoms: C_11  and  C_12
REMARK                            x       y       z     vdW  Elec       q    Type
REMARK                         _______ _______ _______ _____ _____    ______ ____
ROOT
ATOM      1  C   UNL     1      48.187   7.751  13.738  0.00  0.00    +0.000 C 
ENDROOT
BRANCH   1   2
ATOM      2  C   UNL     1      47.313   6.612  13.287  0.00  0.00    +0.000 A 
ATOM      3  C   UNL     1      47.224   5.445  14.055  0.00  0.00    +0.000 A 
ATOM      4  C   UNL     1      46.415   4.384  13.646  0.00  0.00    +0.000 A 
ATOM      5  C   UNL     1      45.685   4.463  12.451  0.00  0.00    +0.000 A 
ATOM      6  C   UNL     1      45.791   5.621  11.672  0.00  0.00    +0.000 A 
ATOM      7  C   UNL     1      46.602   6.684  12.082  0.00  0.00    +0.000 A 
BRANCH   5   8
ATOM      8  C   UNL     1      44.826   3.309  12.003  0.00  0.00    +0.000 C 
BRANCH   8   9
ATOM      9  O   UNL     1      44.217   3.638  10.758  0.00  0.00    +0.000 OA
BRANCH   9  10
ATOM     10  C   UNL     1      44.162   2.516   9.878  0.00  0.00    +0.000 C 
BRANCH  10  11
ATOM     11  C   UNL     1      45.203   2.657   8.803  0.00  0.00    +0.000 A 
ATOM     12  C   UNL     1      45.998   1.585   8.389  0.00  0.00    +0.000 A 
ATOM     13  C   UNL     1      46.961   1.774   7.401  0.00  0.00    +0.000 A 
ATOM     14  C   UNL     1      47.109   3.041   6.868  0.00  0.00    +0.000 A 
ATOM     15  N   UNL     1      46.381   4.110   7.256  0.00  0.00    +0.000 NA
ATOM     16  C   UNL     1      45.449   3.893   8.213  0.00  0.00    +0.000 A 
ENDBRANCH  10  11
ENDBRANCH   9  10
ENDBRANCH   8   9
ENDBRANCH   5   8
ENDBRANCH   1   2
BRANCH   1  19
ATOM     17  O   UNL     1      48.736   7.794  16.505  0.00  0.00    +0.000 OA
ATOM     18  C   UNL     1      49.545   7.274  15.741  0.00  0.00    +0.000 C 
ATOM     19  N   UNL     1      49.382   7.269  14.380  0.00  0.00    +0.000 N 
ATOM     20  H   UNL     1      49.963   6.656  13.820  0.00  0.00    +0.000 HD
BRANCH  18  21
ATOM     21  C   UNL     1      50.789   6.674  16.236  0.00  0.00    +0.000 A 
ATOM     22  C   UNL     1      52.007   7.286  15.979  0.00  0.00    +0.000 A 
ATOM     23  S   UNL     1      53.344   6.435  16.609  0.00  0.00    +0.000 S 
ATOM     24  C   UNL     1      52.337   5.242  17.284  0.00  0.00    +0.000 A 
ATOM     25  N   UNL     1      52.858   4.208  17.999  0.00  0.00    +0.000 NA
ATOM     26  C   UNL     1      51.975   3.398  18.488  0.00  0.00    +0.000 A 
ATOM     27  N   UNL     1      50.620   3.527  18.321  0.00  0.00    +0.000 N 
ATOM     28  C   UNL     1      50.057   4.512  17.545  0.00  0.00    +0.000 A 
ATOM     29  O   UNL     1      48.854   4.513  17.308  0.00  0.00    +0.000 OA
ATOM     30  C   UNL     1      51.001   5.474  17.013  0.00  0.00    +0.000 A 
ATOM     31  H   UNL     1      49.986   2.844  18.702  0.00  0.00    +0.000 HD
ENDBRANCH  18  21
ENDBRANCH   1  19
TORSDOF 7
ENDMDL
MODEL 5
REMARK VINA RESULT:    -7.216      2.796      3.729
REMARK INTER + INTRA:         -11.297
REMARK INTER:                 -10.436
REMARK INTRA:                  -0.861
REMARK UNBOUND:                -1.128
REMARK  Name = 
REMARK  7 active torsions:
REMARK  status: ('A' for Active; 'I' for Inactive)
REMARK    1  A    between atoms: C_2  and  C_20
REMARK    2  A    between atoms: N_3  and  C_4
REMARK    3  A    between atoms: C_4  and  C_5
REMARK    4  A    between atoms: C_8  and  C_9
REMARK    5  A    between atoms: C_9  and  O_10
REMARK    6  A    between atoms: O_10  and  C_11
REMARK    7  A    between atoms: C_11  and  C_12
REMARK                            x       y       z     vdW  Elec       q    Type
REMARK                         _______ _______ _______ _____ _____    ______ ____
ROOT
ATOM      1  C   UNL     1      48.760   6.633  16.048  0.00  0.00    +0.000 C 
ENDROOT
BRANCH   1   2
ATOM      2  C   UNL     1      47.944   5.796  15.099  0.00  0.00    +0.000 A 
ATOM      3  C   UNL     1      47.461   4.545  15.500  0.00  0.00    +0.000 A 
ATOM      4  C   UNL     1      46.701   3.763  14.628  0.00  0.00    +0.000 A 
ATOM      5  C   UNL     1      46.419   4.211  13.330  0.00  0.00    +0.000 A 
ATOM      6  C   UNL     1      46.920   5.453  12.922  0.00  0.00    +0.000 A 
ATOM      7  C   UNL     1      47.681   6.236  13.795  0.00  0.00    +0.000 A 
BRANCH   5   8
ATOM      8  C   UNL     1      45.614   3.357  12.385  0.00  0.00    +0.000 C 
BRANCH   8   9
ATOM      9  O   UNL     1      44.610   4.160  11.772  0.00  0.00    +0.000 OA
BRANCH   9  10
ATOM     10  C   UNL     1      43.942   3.467  10.718  0.00  0.00    +0.000 C 
BRANCH  10  11
ATOM     11  C   UNL     1      44.856   3.335   9.533  0.00  0.00    +0.000 A 
ATOM     12  C   UNL     1      45.312   2.095   9.077  0.00  0.00    +0.000 A 
ATOM     13  C   UNL     1      46.173   2.029   7.984  0.00  0.00    +0.000 A 
ATOM     14  C   UNL     1      46.566   3.215   7.390  0.00  0.00    +0.000 A 
ATOM     15  N   UNL     1      46.171   4.434   7.814  0.00  0.00    +0.000 NA
ATOM     16  C   UNL     1      45.330   4.465   8.873  0.00  0.00    +0.000 A 
ENDBRANCH  10  11
ENDBRANCH   9  10
ENDBRANCH   8   9
ENDBRANCH   5   8
ENDBRANCH   1   2
BRANCH   1  19
ATOM     17  O   UNL     1      49.101   5.770  18.712  0.00  0.00    +0.000 OA
ATOM     18  C   UNL     1      49.937   5.458  17.869  0.00  0.00    +0.000 C 
ATOM     19  N   UNL     1      49.877   5.889  16.569  0.00  0.00    +0.000 N 
ATOM     20  H   UNL     1      50.466   5.442  15.877  0.00  0.00    +0.000 HD
BRANCH  18  21
ATOM     21  C   UNL     1      51.108   4.645  18.217  0.00  0.00    +0.000 A 
ATOM     22  C   UNL     1      52.141   5.197  18.960  0.00  0.00    +0.000 A 
ATOM     23  S   UNL     1      53.427   4.113  19.248  0.00  0.00    +0.000 S 
ATOM     24  C   UNL     1      52.627   2.858  18.426  0.00  0.00    +0.000 A 
ATOM     25  N   UNL     1      53.183   1.620  18.324  0.00  0.00    +0.000 NA
ATOM     26  C   UNL     1      52.448   0.752  17.709  0.00  0.00    +0.000 A 
ATOM     27  N   UNL     1      51.209   1.012  17.182  0.00  0.00    +0.000 N 
ATOM     28  C   UNL     1      50.643   2.264  17.197  0.00  0.00    +0.000 A 
ATOM     29  O   UNL     1      49.597   2.488  16.596  0.00  0.00    +0.000 OA
ATOM     30  C   UNL     1      51.407   3.263  17.917  0.00  0.00    +0.000 A 
ATOM     31  H   UNL     1      50.699   0.300  16.687  0.00  0.00    +0.000 HD
ENDBRANCH  18  21
ENDBRANCH   1  19
TORSDOF 7
ENDMDL
MODEL 6
REMARK VINA RESULT:    -7.119      2.899      8.628
REMARK INTER + INTRA:         -11.160
REMARK INTER:                  -9.704
REMARK INTRA:                  -1.455
REMARK UNBOUND:                -1.128
REMARK  Name = 
REMARK  7 active torsions:
REMARK  status: ('A' for Active; 'I' for Inactive)
REMARK    1  A    between atoms: C_2  and  C_20
REMARK    2  A    between atoms: N_3  and  C_4
REMARK    3  A    between atoms: C_4  and  C_5
REMARK    4  A    between atoms: C_8  and  C_9
REMARK    5  A    between atoms: C_9  and  O_10
REMARK    6  A    between atoms: O_10  and  C_11
REMARK    7  A    between atoms: C_11  and  C_12
REMARK                            x       y       z     vdW  Elec       q    Type
REMARK                         _______ _______ _______ _____ _____    ______ ____
ROOT
ATOM      1  C   UNL     1      47.349   7.730  12.156  0.00  0.00    +0.000 C 
ENDROOT
BRANCH   1   2
ATOM      2  C   UNL     1      47.887   7.787  13.560  0.00  0.00    +0.000 A 
ATOM      3  C   UNL     1      48.518   6.670  14.118  0.00  0.00    +0.000 A 
ATOM      4  C   UNL     1      49.023   6.714  15.420  0.00  0.00    +0.000 A 
ATOM      5  C   UNL     1      48.895   7.875  16.195  0.00  0.00    +0.000 A 
ATOM      6  C   UNL     1      48.244   8.985  15.644  0.00  0.00    +0.000 A 
ATOM      7  C   UNL     1      47.739   8.941  14.341  0.00  0.00    +0.000 A 
BRANCH   5   8
ATOM      8  C   UNL     1      49.424   7.914  17.606  0.00  0.00    +0.000 C 
BRANCH   8   9
ATOM      9  O   UNL     1      48.398   7.492  18.499  0.00  0.00    +0.000 OA
BRANCH   9  10
ATOM     10  C   UNL     1      48.786   6.345  19.253  0.00  0.00    +0.000 C 
BRANCH  10  11
ATOM     11  C   UNL     1      48.480   5.094  18.478  0.00  0.00    +0.000 A 
ATOM     12  C   UNL     1      49.470   4.177  18.118  0.00  0.00    +0.000 A 
ATOM     13  C   UNL     1      49.135   3.043  17.383  0.00  0.00    +0.000 A 
ATOM     14  C   UNL     1      47.813   2.871  17.014  0.00  0.00    +0.000 A 
ATOM     15  N   UNL     1      46.829   3.744  17.318  0.00  0.00    +0.000 NA
ATOM     16  C   UNL     1      47.186   4.833  18.038  0.00  0.00    +0.000 A 
ENDBRANCH  10  11
ENDBRANCH   9  10
ENDBRANCH   8   9
ENDBRANCH   5   8
ENDBRANCH   1   2
BRANCH   1  19
ATOM     17  O   UNL     1      44.566   7.426  11.801  0.00  0.00    +0.000 OA
ATOM     18  C   UNL     1      45.295   6.443  11.697  0.00  0.00    +0.000 C 
ATOM     19  N   UNL     1      46.647   6.496  11.917  0.00  0.00    +0.000 N 
ATOM     20  H   UNL     1      47.221   5.716  11.621  0.00  0.00    +0.000 HD
BRANCH  18  21
ATOM     21  C   UNL     1      44.750   5.116  11.391  0.00  0.00    +0.000 A 
ATOM     22  C   UNL     1      43.972   4.452  12.328  0.00  0.00    +0.000 A 
ATOM     23  S   UNL     1      43.446   2.913  11.809  0.00  0.00    +0.000 S 
ATOM     24  C   UNL     1      44.206   3.101  10.300  0.00  0.00    +0.000 A 
ATOM     25  N   UNL     1      44.122   2.134   9.347  0.00  0.00    +0.000 NA
ATOM     26  C   UNL     1      44.711   2.426   8.234  0.00  0.00    +0.000 A 
ATOM     27  N   UNL     1      45.382   3.597   7.990  0.00  0.00    +0.000 N 
ATOM     28  C   UNL     1      45.555   4.568   8.947  0.00  0.00    +0.000 A 
ATOM     29  O   UNL     1      46.275   5.538   8.735  0.00  0.00    +0.000 OA
ATOM     30  C   UNL     1      44.872   4.309  10.199  0.00  0.00    +0.000 A 
ATOM     31  H   UNL     1      45.847   3.753   7.111  0.00  0.00    +0.000 HD
ENDBRANCH  18  21
ENDBRANCH   1  19
TORSDOF 7
ENDMDL
MODEL 7
REMARK VINA RESULT:    -7.080      1.901      2.536
REMARK INTER + INTRA:         -11.105
REMARK INTER:                 -10.078
REMARK INTRA:                  -1.027
REMARK UNBOUND:                -1.128
REMARK  Name = 
REMARK  7 active torsions:
REMARK  status: ('A' for Active; 'I' for Inactive)
REMARK    1  A    between atoms: C_2  and  C_20
REMARK    2  A    between atoms: N_3  and  C_4
REMARK    3  A    between atoms: C_4  and  C_5
REMARK    4  A    between atoms: C_8  and  C_9
REMARK    5  A    between atoms: C_9  and  O_10
REMARK    6  A    between atoms: O_10  and  C_11
REMARK    7  A    between atoms: C_11  and  C_12
REMARK                            x       y       z     vdW  Elec       q    Type
REMARK                         _______ _______ _______ _____ _____    ______ ____
ROOT
ATOM      1  C   UNL     1      48.389   7.929  13.940  0.00  0.00    +0.000 C 
ENDROOT
BRANCH   1   2
ATOM      2  C   UNL     1      47.276   7.061  13.417  0.00  0.00    +0.000 A 
ATOM      3  C   UNL     1      46.137   7.643  12.849  0.00  0.00    +0.000 A 
ATOM      4  C   UNL     1      45.100   6.847  12.360  0.00  0.00    +0.000 A 
ATOM      5  C   UNL     1      45.175   5.449  12.440  0.00  0.00    +0.000 A 
ATOM      6  C   UNL     1      46.305   4.868  13.028  0.00  0.00    +0.000 A 
ATOM      7  C   UNL     1      47.343   5.666  13.518  0.00  0.00    +0.000 A 
BRANCH   5   8
ATOM      8  C   UNL     1      44.046   4.592  11.928  0.00  0.00    +0.000 C 
BRANCH   8   9
ATOM      9  O   UNL     1      44.581   3.375  11.416  0.00  0.00    +0.000 OA
BRANCH   9  10
ATOM     10  C   UNL     1      43.995   3.020  10.164  0.00  0.00    +0.000 C 
BRANCH  10  11
ATOM     11  C   UNL     1      45.039   3.045   9.084  0.00  0.00    +0.000 A 
ATOM     12  C   UNL     1      45.677   1.886   8.634  0.00  0.00    +0.000 A 
ATOM     13  C   UNL     1      46.651   1.967   7.643  0.00  0.00    +0.000 A 
ATOM     14  C   UNL     1      46.971   3.216   7.143  0.00  0.00    +0.000 A 
ATOM     15  N   UNL     1      46.400   4.364   7.566  0.00  0.00    +0.000 NA
ATOM     16  C   UNL     1      45.452   4.251   8.525  0.00  0.00    +0.000 A 
ENDBRANCH  10  11
ENDBRANCH   9  10
ENDBRANCH   8   9
ENDBRANCH   5   8
ENDBRANCH   1   2
BRANCH   1  19
ATOM     17  O   UNL     1      50.169   6.600  15.679  0.00  0.00    +0.000 OA
ATOM     18  C   UNL     1      49.317   7.349  16.151  0.00  0.00    +0.000 C 
ATOM     19  N   UNL     1      48.377   7.982  15.379  0.00  0.00    +0.000 N 
ATOM     20  H   UNL     1      47.838   8.737  15.785  0.00  0.00    +0.000 HD
BRANCH  18  21
ATOM     21  C   UNL     1      49.207   7.569  17.597  0.00  0.00    +0.000 A 
ATOM     22  C   UNL     1      49.908   8.604  18.197  0.00  0.00    +0.000 A 
ATOM     23  S   UNL     1      49.678   8.694  19.886  0.00  0.00    +0.000 S 
ATOM     24  C   UNL     1      48.601   7.377  19.864  0.00  0.00    +0.000 A 
ATOM     25  N   UNL     1      48.005   6.941  21.007  0.00  0.00    +0.000 NA
ATOM     26  C   UNL     1      47.179   5.960  20.838  0.00  0.00    +0.000 A 
ATOM     27  N   UNL     1      46.901   5.373  19.630  0.00  0.00    +0.000 N 
ATOM     28  C   UNL     1      47.535   5.732  18.465  0.00  0.00    +0.000 A 
ATOM     29  O   UNL     1      47.361   5.094  17.433  0.00  0.00    +0.000 OA
ATOM     30  C   UNL     1      48.436   6.860  18.592  0.00  0.00    +0.000 A 
ATOM     31  H   UNL     1      46.270   4.591  19.569  0.00  0.00    +0.000 HD
ENDBRANCH  18  21
ENDBRANCH   1  19
TORSDOF 7
ENDMDL
MODEL 8
REMARK VINA RESULT:    -6.694      3.973      8.252
REMARK INTER + INTRA:         -10.561
REMARK INTER:                  -8.897
REMARK INTRA:                  -1.663
REMARK UNBOUND:                -1.128
REMARK  Name = 
REMARK  7 active torsions:
REMARK  status: ('A' for Active; 'I' for Inactive)
REMARK    1  A    between atoms: C_2  and  C_20
REMARK    2  A    between atoms: N_3  and  C_4
REMARK    3  A    between atoms: C_4  and  C_5
REMARK    4  A    between atoms: C_8  and  C_9
REMARK    5  A    between atoms: C_9  and  O_10
REMARK    6  A    between atoms: O_10  and  C_11
REMARK    7  A    between atoms: C_11  and  C_12
REMARK                            x       y       z     vdW  Elec       q    Type
REMARK                         _______ _______ _______ _____ _____    ______ ____
ROOT
ATOM      1  C   UNL     1      48.362   8.521  14.442  0.00  0.00    +0.000 C 
ENDROOT
BRANCH   1   2
ATOM      2  C   UNL     1      49.220   7.946  15.539  0.00  0.00    +0.000 A 
ATOM      3  C   UNL     1      48.771   7.962  16.864  0.00  0.00    +0.000 A 
ATOM      4  C   UNL     1      49.558   7.430  17.887  0.00  0.00    +0.000 A 
ATOM      5  C   UNL     1      50.817   6.882  17.607  0.00  0.00    +0.000 A 
ATOM      6  C   UNL     1      51.275   6.886  16.284  0.00  0.00    +0.000 A 
ATOM      7  C   UNL     1      50.487   7.419  15.259  0.00  0.00    +0.000 A 
BRANCH   5   8
ATOM      8  C   UNL     1      51.672   6.325  18.716  0.00  0.00    +0.000 C 
BRANCH   8   9
ATOM      9  O   UNL     1      50.994   5.227  19.320  0.00  0.00    +0.000 OA
BRANCH   9  10
ATOM     10  C   UNL     1      51.413   3.977  18.775  0.00  0.00    +0.000 C 
BRANCH  10  11
ATOM     11  C   UNL     1      50.320   3.397  17.922  0.00  0.00    +0.000 A 
ATOM     12  C   UNL     1      48.990   3.813  18.028  0.00  0.00    +0.000 A 
ATOM     13  C   UNL     1      48.013   3.230  17.226  0.00  0.00    +0.000 A 
ATOM     14  C   UNL     1      48.397   2.230  16.351  0.00  0.00    +0.000 A 
ATOM     15  N   UNL     1      49.664   1.780  16.234  0.00  0.00    +0.000 NA
ATOM     16  C   UNL     1      50.592   2.371  17.022  0.00  0.00    +0.000 A 
ENDBRANCH  10  11
ENDBRANCH   9  10
ENDBRANCH   8   9
ENDBRANCH   5   8
ENDBRANCH   1   2
BRANCH   1  19
ATOM     17  O   UNL     1      48.702   6.486  12.517  0.00  0.00    +0.000 OA
ATOM     18  C   UNL     1      47.630   6.578  13.110  0.00  0.00    +0.000 C 
ATOM     19  N   UNL     1      47.365   7.576  14.012  0.00  0.00    +0.000 N 
ATOM     20  H   UNL     1      46.556   7.487  14.616  0.00  0.00    +0.000 HD
BRANCH  18  21
ATOM     21  C   UNL     1      46.524   5.652  12.841  0.00  0.00    +0.000 A 
ATOM     22  C   UNL     1      46.645   4.311  13.173  0.00  0.00    +0.000 A 
ATOM     23  S   UNL     1      45.272   3.382  12.765  0.00  0.00    +0.000 S 
ATOM     24  C   UNL     1      44.455   4.750  12.170  0.00  0.00    +0.000 A 
ATOM     25  N   UNL     1      43.189   4.652  11.681  0.00  0.00    +0.000 NA
ATOM     26  C   UNL     1      42.675   5.776  11.301  0.00  0.00    +0.000 A 
ATOM     27  N   UNL     1      43.315   6.988  11.359  0.00  0.00    +0.000 N 
ATOM     28  C   UNL     1      44.618   7.120  11.774  0.00  0.00    +0.000 A 
ATOM     29  O   UNL     1      45.200   8.195  11.683  0.00  0.00    +0.000 OA
ATOM     30  C   UNL     1      45.225   5.896  12.257  0.00  0.00    +0.000 A 
ATOM     31  H   UNL     1      42.871   7.823  11.017  0.00  0.00    +0.000 HD
ENDBRANCH  18  21
ENDBRANCH   1  19
TORSDOF 7
ENDMDL
MODEL 9
REMARK VINA RESULT:    -6.688      2.841      3.551
REMARK INTER + INTRA:         -10.553
REMARK INTER:                  -9.597
REMARK INTRA:                  -0.956
REMARK UNBOUND:                -1.128
REMARK  Name = 
REMARK  7 active torsions:
REMARK  status: ('A' for Active; 'I' for Inactive)
REMARK    1  A    between atoms: C_2  and  C_20
REMARK    2  A    between atoms: N_3  and  C_4
REMARK    3  A    between atoms: C_4  and  C_5
REMARK    4  A    between atoms: C_8  and  C_9
REMARK    5  A    between atoms: C_9  and  O_10
REMARK    6  A    between atoms: O_10  and  C_11
REMARK    7  A    between atoms: C_11  and  C_12
REMARK                            x       y       z     vdW  Elec       q    Type
REMARK                         _______ _______ _______ _____ _____    ______ ____
ROOT
ATOM      1  C   UNL     1      45.963   8.043  12.881  0.00  0.00    +0.000 C 
ENDROOT
BRANCH   1   2
ATOM      2  C   UNL     1      45.413   6.732  12.385  0.00  0.00    +0.000 A 
ATOM      3  C   UNL     1      44.273   6.708  11.573  0.00  0.00    +0.000 A 
ATOM      4  C   UNL     1      43.757   5.497  11.107  0.00  0.00    +0.000 A 
ATOM      5  C   UNL     1      44.365   4.283  11.454  0.00  0.00    +0.000 A 
ATOM      6  C   UNL     1      45.492   4.306  12.284  0.00  0.00    +0.000 A 
ATOM      7  C   UNL     1      46.009   5.518  12.750  0.00  0.00    +0.000 A 
BRANCH   5   8
ATOM      8  C   UNL     1      43.795   2.976  10.964  0.00  0.00    +0.000 C 
BRANCH   8   9
ATOM      9  O   UNL     1      44.703   2.393  10.033  0.00  0.00    +0.000 OA
BRANCH   9  10
ATOM     10  C   UNL     1      44.494   2.878   8.708  0.00  0.00    +0.000 C 
BRANCH  10  11
ATOM     11  C   UNL     1      45.691   2.569   7.854  0.00  0.00    +0.000 A 
ATOM     12  C   UNL     1      46.134   3.432   6.849  0.00  0.00    +0.000 A 
ATOM     13  C   UNL     1      47.238   3.089   6.073  0.00  0.00    +0.000 A 
ATOM     14  C   UNL     1      47.857   1.876   6.319  0.00  0.00    +0.000 A 
ATOM     15  N   UNL     1      47.447   1.001   7.262  0.00  0.00    +0.000 NA
ATOM     16  C   UNL     1      46.376   1.366   8.003  0.00  0.00    +0.000 A 
ENDBRANCH  10  11
ENDBRANCH   9  10
ENDBRANCH   8   9
ENDBRANCH   5   8
ENDBRANCH   1   2
BRANCH   1  19
ATOM     17  O   UNL     1      47.600  10.176  12.026  0.00  0.00    +0.000 OA
ATOM     18  C   UNL     1      48.124   9.156  12.465  0.00  0.00    +0.000 C 
ATOM     19  N   UNL     1      47.402   8.053  12.841  0.00  0.00    +0.000 N 
ATOM     20  H   UNL     1      47.860   7.329  13.381  0.00  0.00    +0.000 HD
BRANCH  18  21
ATOM     21  C   UNL     1      49.583   9.023  12.556  0.00  0.00    +0.000 A 
ATOM     22  C   UNL     1      50.385   9.446  11.506  0.00  0.00    +0.000 A 
ATOM     23  S   UNL     1      52.051   9.193  11.777  0.00  0.00    +0.000 S 
ATOM     24  C   UNL     1      51.757   8.548  13.323  0.00  0.00    +0.000 A 
ATOM     25  N   UNL     1      52.783   8.146  14.121  0.00  0.00    +0.000 NA
ATOM     26  C   UNL     1      52.419   7.714  15.285  0.00  0.00    +0.000 A 
ATOM     27  N   UNL     1      51.120   7.643  15.719  0.00  0.00    +0.000 N 
ATOM     28  C   UNL     1      50.050   7.968  14.920  0.00  0.00    +0.000 A 
ATOM     29  O   UNL     1      48.901   7.762  15.295  0.00  0.00    +0.000 OA
ATOM     30  C   UNL     1      50.408   8.503  13.622  0.00  0.00    +0.000 A 
ATOM     31  H   UNL     1      50.899   7.268  16.627  0.00  0.00    +0.000 HD
ENDBRANCH  18  21
ENDBRANCH   1  19
TORSDOF 7
ENDMDL
