MODEL 1
REMARK VINA RESULT:    -8.030      0.000      0.000
REMARK INTER + INTRA:         -12.295
REMARK INTER:                 -11.316
REMARK INTRA:                  -0.979
REMARK UNBOUND:                -0.979
REMARK  Name = 
REMARK  8 active torsions:
REMARK  status: ('A' for Active; 'I' for Inactive)
REMARK    1  A    between atoms: C_1  and  O_2
REMARK    2  A    between atoms: O_2  and  C_3
REMARK    3  A    between atoms: C_8  and  C_9
REMARK    4  A    between atoms: N_11  and  C_12
REMARK    5  A    between atoms: C_12  and  C_13
REMARK    6  A    between atoms: C_16  and  C_17
REMARK    7  A    between atoms: C_17  and  N_18
REMARK    8  A    between atoms: C_19  and  C_21
REMARK                            x       y       z     vdW  Elec       q    Type
REMARK                         _______ _______ _______ _____ _____    ______ ____
ROOT
ATOM      1  C   UNL     1      45.128   4.099  12.952  0.00  0.00    +0.000 C 
ATOM      2  C   UNL     1      45.475   5.439  12.298  0.00  0.00    +0.000 C 
ATOM      3  C   UNL     1      46.206   6.377  13.247  0.00  0.00    +0.000 C 
ATOM      4  C   UNL     1      47.469   5.745  13.850  0.00  0.00    +0.000 C 
ATOM      5  C   UNL     1      47.115   4.407  14.515  0.00  0.00    +0.000 C 
ATOM      6  C   UNL     1      46.398   3.462  13.544  0.00  0.00    +0.000 C 
ENDROOT
BRANCH   1   7
ATOM      7  C   UNL     1      44.446   3.188  11.918  0.00  0.00    +0.000 C 
BRANCH   7  10
ATOM      8  C   UNL     1      44.818   2.275   9.625  0.00  0.00    +0.000 C 
ATOM      9  O   UNL     1      43.765   1.659   9.653  0.00  0.00    +0.000 OA
ATOM     10  N   UNL     1      45.240   3.039  10.708  0.00  0.00    +0.000 N 
ATOM     11  H   UNL     1      46.133   3.517  10.629  0.00  0.00    +0.000 HD
BRANCH   8  17
ATOM     12  C   UNL     1      46.011   3.359   7.632  0.00  0.00    +0.000 A 
ATOM     13  C   UNL     1      46.865   3.189   6.539  0.00  0.00    +0.000 A 
ATOM     14  C   UNL     1      47.448   1.953   6.288  0.00  0.00    +0.000 A 
ATOM     15  C   UNL     1      47.158   0.909   7.149  0.00  0.00    +0.000 A 
ATOM     16  N   UNL     1      46.330   1.010   8.212  0.00  0.00    +0.000 NA
ATOM     17  C   UNL     1      45.762   2.238   8.441  0.00  0.00    +0.000 A 
BRANCH  12  19
ATOM     18  C   UNL     1      46.339   5.429   8.728  0.00  0.00    +0.000 C 
ATOM     19  O   UNL     1      45.494   4.585   7.951  0.00  0.00    +0.000 OA
ENDBRANCH  12  19
ENDBRANCH   8  17
ENDBRANCH   7  10
ENDBRANCH   1   7
BRANCH   4  20
ATOM     20  C   UNL     1      48.150   6.679  14.864  0.00  0.00    +0.000 C 
BRANCH  20  21
ATOM     21  N   UNL     1      49.305   6.071  15.492  0.00  0.00    +0.000 N 
ATOM     22  C   UNL     1      49.298   5.747  16.827  0.00  0.00    +0.000 C 
ATOM     23  O   UNL     1      48.320   5.929  17.550  0.00  0.00    +0.000 OA
ATOM     24  H   UNL     1      50.211   6.236  15.064  0.00  0.00    +0.000 HD
BRANCH  22  25
ATOM     25  C   UNL     1      50.511   5.102  17.340  0.00  0.00    +0.000 A 
ATOM     26  C   UNL     1      51.552   5.870  17.838  0.00  0.00    +0.000 A 
ATOM     27  S   UNL     1      52.879   4.944  18.382  0.00  0.00    +0.000 S 
ATOM     28  C   UNL     1      52.119   3.488  17.936  0.00  0.00    +0.000 A 
ATOM     29  N   UNL     1      52.740   2.289  18.096  0.00  0.00    +0.000 NA
ATOM     30  C   UNL     1      52.053   1.271  17.692  0.00  0.00    +0.000 A 
ATOM     31  N   UNL     1      50.797   1.345  17.146  0.00  0.00    +0.000 N 
ATOM     32  C   UNL     1      50.138   2.532  16.966  0.00  0.00    +0.000 A 
ATOM     33  O   UNL     1      49.004   2.566  16.477  0.00  0.00    +0.000 OA
ATOM     34  C   UNL     1      50.861   3.705  17.402  0.00  0.00    +0.000 A 
ATOM     35  H   UNL     1      50.309   0.510  16.856  0.00  0.00    +0.000 HD
ENDBRANCH  22  25
ENDBRANCH  20  21
ENDBRANCH   4  20
TORSDOF 7
ENDMDL
MODEL 2
REMARK VINA RESULT:    -7.720      2.499      3.160
REMARK INTER + INTRA:         -11.858
REMARK INTER:                 -10.924
REMARK INTRA:                  -0.934
REMARK UNBOUND:                -0.979
REMARK  Name = 
REMARK  8 active torsions:
REMARK  status: ('A' for Active; 'I' for Inactive)
REMARK    1  A    between atoms: C_1  and  O_2
REMARK    2  A    between atoms: O_2  and  C_3
REMARK    3  A    between atoms: C_8  and  C_9
REMARK    4  A    between atoms: N_11  and  C_12
REMARK    5  A    between atoms: C_12  and  C_13
REMARK    6  A    between atoms: C_16  and  C_17
REMARK    7  A    between atoms: C_17  and  N_18
REMARK    8  A    between atoms: C_19  and  C_21
REMARK                            x       y       z     vdW  Elec       q    Type
REMARK                         _______ _______ _______ _____ _____    ______ ____
ROOT
ATOM      1  C   UNL     1      45.008   5.488  11.316  0.00  0.00    +0.000 C 
ATOM      2  C   UNL     1      44.236   6.696  11.853  0.00  0.00    +0.000 C 
ATOM      3  C   UNL     1      45.034   7.489  12.877  0.00  0.00    +0.000 C 
ATOM      4  C   UNL     1      46.403   7.936  12.345  0.00  0.00    +0.000 C 
ATOM      5  C   UNL     1      47.180   6.720  11.819  0.00  0.00    +0.000 C 
ATOM      6  C   UNL     1      46.375   5.941  10.773  0.00  0.00    +0.000 C 
ENDROOT
BRANCH   1   7
ATOM      7  C   UNL     1      44.163   4.774  10.249  0.00  0.00    +0.000 C 
BRANCH   7  10
ATOM      8  C   UNL     1      45.323   3.065   8.847  0.00  0.00    +0.000 C 
ATOM      9  O   UNL     1      45.026   2.168   9.620  0.00  0.00    +0.000 OA
ATOM     10  N   UNL     1      44.954   4.383   9.092  0.00  0.00    +0.000 N 
ATOM     11  H   UNL     1      45.243   5.087   8.419  0.00  0.00    +0.000 HD
BRANCH   8  17
ATOM     12  C   UNL     1      46.802   1.623   7.329  0.00  0.00    +0.000 A 
ATOM     13  C   UNL     1      47.560   1.545   6.158  0.00  0.00    +0.000 A 
ATOM     14  C   UNL     1      47.628   2.628   5.290  0.00  0.00    +0.000 A 
ATOM     15  C   UNL     1      46.925   3.774   5.622  0.00  0.00    +0.000 A 
ATOM     16  N   UNL     1      46.188   3.913   6.746  0.00  0.00    +0.000 NA
ATOM     17  C   UNL     1      46.136   2.833   7.591  0.00  0.00    +0.000 A 
BRANCH  12  19
ATOM     18  C   UNL     1      46.514  -0.717   7.505  0.00  0.00    +0.000 C 
ATOM     19  O   UNL     1      46.648   0.543   8.154  0.00  0.00    +0.000 OA
ENDBRANCH  12  19
ENDBRANCH   8  17
ENDBRANCH   7  10
ENDBRANCH   1   7
BRANCH   4  20
ATOM     20  C   UNL     1      47.225   8.668  13.419  0.00  0.00    +0.000 C 
BRANCH  20  21
ATOM     21  N   UNL     1      47.501   7.836  14.572  0.00  0.00    +0.000 N 
ATOM     22  C   UNL     1      48.770   7.373  14.826  0.00  0.00    +0.000 C 
ATOM     23  O   UNL     1      49.733   7.652  14.114  0.00  0.00    +0.000 OA
ATOM     24  H   UNL     1      46.730   7.298  14.956  0.00  0.00    +0.000 HD
BRANCH  22  25
ATOM     25  C   UNL     1      48.932   6.573  16.043  0.00  0.00    +0.000 A 
ATOM     26  C   UNL     1      49.829   6.969  17.024  0.00  0.00    +0.000 A 
ATOM     27  S   UNL     1      49.883   5.909  18.361  0.00  0.00    +0.000 S 
ATOM     28  C   UNL     1      48.736   4.868  17.656  0.00  0.00    +0.000 A 
ATOM     29  N   UNL     1      48.352   3.719  18.273  0.00  0.00    +0.000 NA
ATOM     30  C   UNL     1      47.493   3.016  17.610  0.00  0.00    +0.000 A 
ATOM     31  N   UNL     1      46.980   3.363  16.386  0.00  0.00    +0.000 N 
ATOM     32  C   UNL     1      47.341   4.510  15.731  0.00  0.00    +0.000 A 
ATOM     33  O   UNL     1      46.856   4.799  14.633  0.00  0.00    +0.000 OA
ATOM     34  C   UNL     1      48.301   5.336  16.429  0.00  0.00    +0.000 A 
ATOM     35  H   UNL     1      46.304   2.773  15.923  0.00  0.00    +0.000 HD
ENDBRANCH  22  25
ENDBRANCH  20  21
ENDBRANCH   4  20
TORSDOF 7
ENDMDL
MODEL 3
REMARK VINA RESULT:    -7.528      2.167      2.562
REMARK INTER + INTRA:         -11.587
REMARK INTER:                 -10.559
REMARK INTRA:                  -1.028
REMARK UNBOUND:                -0.979
REMARK  Name = 
REMARK  8 active torsions:
REMARK  status: ('A' for Active; 'I' for Inactive)
REMARK    1  A    between atoms: C_1  and  O_2
REMARK    2  A    between atoms: O_2  and  C_3
REMARK    3  A    between atoms: C_8  and  C_9
REMARK    4  A    between atoms: N_11  and  C_12
REMARK    5  A    between atoms: C_12  and  C_13
REMARK    6  A    between atoms: C_16  and  C_17
REMARK    7  A    between atoms: C_17  and  N_18
REMARK    8  A    between atoms: C_19  and  C_21
REMARK                            x       y       z     vdW  Elec       q    Type
REMARK                         _______ _______ _______ _____ _____    ______ ____
ROOT
ATOM      1  C   UNL     1      45.220   4.718  12.888  0.00  0.00    +0.000 C 
ATOM      2  C   UNL     1      45.266   6.020  12.082  0.00  0.00    +0.000 C 
ATOM      3  C   UNL     1      45.995   7.133  12.818  0.00  0.00    +0.000 C 
ATOM      4  C   UNL     1      47.414   6.731  13.246  0.00  0.00    +0.000 C 
ATOM      5  C   UNL     1      47.363   5.432  14.063  0.00  0.00    +0.000 C 
ATOM      6  C   UNL     1      46.644   4.311  13.305  0.00  0.00    +0.000 C 
ENDROOT
BRANCH   1   7
ATOM      7  C   UNL     1      44.521   3.629  12.059  0.00  0.00    +0.000 C 
BRANCH   7  10
ATOM      8  C   UNL     1      44.738   2.463   9.862  0.00  0.00    +0.000 C 
ATOM      9  O   UNL     1      43.673   1.888  10.014  0.00  0.00    +0.000 OA
ATOM     10  N   UNL     1      45.240   3.325  10.831  0.00  0.00    +0.000 N 
ATOM     11  H   UNL     1      46.140   3.763  10.653  0.00  0.00    +0.000 HD
BRANCH   8  17
ATOM     12  C   UNL     1      45.890   3.304   7.731  0.00  0.00    +0.000 A 
ATOM     13  C   UNL     1      46.670   2.991   6.615  0.00  0.00    +0.000 A 
ATOM     14  C   UNL     1      47.158   1.702   6.438  0.00  0.00    +0.000 A 
ATOM     15  C   UNL     1      46.848   0.750   7.395  0.00  0.00    +0.000 A 
ATOM     16  N   UNL     1      46.086   0.991   8.484  0.00  0.00    +0.000 NA
ATOM     17  C   UNL     1      45.612   2.269   8.640  0.00  0.00    +0.000 A 
BRANCH  12  19
ATOM     18  C   UNL     1      46.393   5.412   8.677  0.00  0.00    +0.000 C 
ATOM     19  O   UNL     1      45.471   4.584   7.975  0.00  0.00    +0.000 OA
ENDBRANCH  12  19
ENDBRANCH   8  17
ENDBRANCH   7  10
ENDBRANCH   1   7
BRANCH   4  20
ATOM     20  C   UNL     1      48.106   7.841  14.054  0.00  0.00    +0.000 C 
BRANCH  20  21
ATOM     21  N   UNL     1      47.999   7.638  15.484  0.00  0.00    +0.000 N 
ATOM     22  C   UNL     1      49.117   7.621  16.284  0.00  0.00    +0.000 C 
ATOM     23  O   UNL     1      50.251   7.798  15.844  0.00  0.00    +0.000 OA
ATOM     24  H   UNL     1      47.182   7.142  15.827  0.00  0.00    +0.000 HD
BRANCH  22  25
ATOM     25  C   UNL     1      48.879   7.446  17.720  0.00  0.00    +0.000 A 
ATOM     26  C   UNL     1      48.614   8.546  18.522  0.00  0.00    +0.000 A 
ATOM     27  S   UNL     1      48.370   8.145  20.164  0.00  0.00    +0.000 S 
ATOM     28  C   UNL     1      48.647   6.492  19.861  0.00  0.00    +0.000 A 
ATOM     29  N   UNL     1      48.626   5.577  20.866  0.00  0.00    +0.000 NA
ATOM     30  C   UNL     1      48.876   4.365  20.492  0.00  0.00    +0.000 A 
ATOM     31  N   UNL     1      49.139   3.986  19.200  0.00  0.00    +0.000 N 
ATOM     32  C   UNL     1      49.170   4.876  18.160  0.00  0.00    +0.000 A 
ATOM     33  O   UNL     1      49.403   4.503  17.006  0.00  0.00    +0.000 OA
ATOM     34  C   UNL     1      48.897   6.249  18.522  0.00  0.00    +0.000 A 
ATOM     35  H   UNL     1      49.319   3.019  18.971  0.00  0.00    +0.000 HD
ENDBRANCH  22  25
ENDBRANCH  20  21
ENDBRANCH   4  20
TORSDOF 7
ENDMDL
MODEL 4
REMARK VINA RESULT:    -7.397      3.230      9.763
REMARK INTER + INTRA:         -11.403
REMARK INTER:                 -10.190
REMARK INTRA:                  -1.213
REMARK UNBOUND:                -0.979
REMARK  Name = 
REMARK  8 active torsions:
REMARK  status: ('A' for Active; 'I' for Inactive)
REMARK    1  A    between atoms: C_1  and  O_2
REMARK    2  A    between atoms: O_2  and  C_3
REMARK    3  A    between atoms: C_8  and  C_9
REMARK    4  A    between atoms: N_11  and  C_12
REMARK    5  A    between atoms: C_12  and  C_13
REMARK    6  A    between atoms: C_16  and  C_17
REMARK    7  A    between atoms: C_17  and  N_18
REMARK    8  A    between atoms: C_19  and  C_21
REMARK                            x       y       z     vdW  Elec       q    Type
REMARK                         _______ _______ _______ _____ _____    ______ ____
ROOT
ATOM      1  C   UNL     1      47.196   5.852  13.186  0.00  0.00    +0.000 C 
ATOM      2  C   UNL     1      45.869   6.553  12.879  0.00  0.00    +0.000 C 
ATOM      3  C   UNL     1      44.928   5.684  12.058  0.00  0.00    +0.000 C 
ATOM      4  C   UNL     1      44.662   4.319  12.708  0.00  0.00    +0.000 C 
ATOM      5  C   UNL     1      45.994   3.614  13.003  0.00  0.00    +0.000 C 
ATOM      6  C   UNL     1      46.925   4.489  13.848  0.00  0.00    +0.000 C 
ENDROOT
BRANCH   1   7
ATOM      7  C   UNL     1      48.065   6.766  14.064  0.00  0.00    +0.000 C 
BRANCH   7  10
ATOM      8  C   UNL     1      49.101   6.791  16.335  0.00  0.00    +0.000 C 
ATOM      9  O   UNL     1      49.867   7.688  16.022  0.00  0.00    +0.000 OA
ATOM     10  N   UNL     1      48.192   6.264  15.423  0.00  0.00    +0.000 N 
ATOM     11  H   UNL     1      47.591   5.509  15.740  0.00  0.00    +0.000 HD
BRANCH   8  17
ATOM     12  C   UNL     1      49.132   4.767  17.908  0.00  0.00    +0.000 A 
ATOM     13  C   UNL     1      49.072   4.300  19.223  0.00  0.00    +0.000 A 
ATOM     14  C   UNL     1      48.993   5.195  20.284  0.00  0.00    +0.000 A 
ATOM     15  C   UNL     1      48.977   6.548  19.995  0.00  0.00    +0.000 A 
ATOM     16  N   UNL     1      49.017   7.057  18.745  0.00  0.00    +0.000 NA
ATOM     17  C   UNL     1      49.093   6.158  17.711  0.00  0.00    +0.000 A 
BRANCH  12  19
ATOM     18  C   UNL     1      48.373   2.833  16.780  0.00  0.00    +0.000 C 
ATOM     19  O   UNL     1      49.299   3.913  16.853  0.00  0.00    +0.000 OA
ENDBRANCH  12  19
ENDBRANCH   8  17
ENDBRANCH   7  10
ENDBRANCH   1   7
BRANCH   4  20
ATOM     20  C   UNL     1      43.772   3.427  11.827  0.00  0.00    +0.000 C 
BRANCH  20  21
ATOM     21  N   UNL     1      44.535   2.644  10.877  0.00  0.00    +0.000 N 
ATOM     22  C   UNL     1      44.521   2.945   9.536  0.00  0.00    +0.000 C 
ATOM     23  O   UNL     1      43.889   3.894   9.075  0.00  0.00    +0.000 OA
ATOM     24  H   UNL     1      44.756   1.686  11.130  0.00  0.00    +0.000 HD
BRANCH  22  25
ATOM     25  C   UNL     1      45.362   2.106   8.678  0.00  0.00    +0.000 A 
ATOM     26  C   UNL     1      45.265   0.724   8.743  0.00  0.00    +0.000 A 
ATOM     27  S   UNL     1      46.326  -0.082   7.676  0.00  0.00    +0.000 S 
ATOM     28  C   UNL     1      46.976   1.390   7.119  0.00  0.00    +0.000 A 
ATOM     29  N   UNL     1      47.979   1.417   6.202  0.00  0.00    +0.000 NA
ATOM     30  C   UNL     1      48.388   2.602   5.890  0.00  0.00    +0.000 A 
ATOM     31  N   UNL     1      47.878   3.765   6.410  0.00  0.00    +0.000 N 
ATOM     32  C   UNL     1      46.870   3.782   7.336  0.00  0.00    +0.000 A 
ATOM     33  O   UNL     1      46.427   4.845   7.781  0.00  0.00    +0.000 OA
ATOM     34  C   UNL     1      46.373   2.480   7.721  0.00  0.00    +0.000 A 
ATOM     35  H   UNL     1      48.237   4.663   6.118  0.00  0.00    +0.000 HD
ENDBRANCH  22  25
ENDBRANCH  20  21
ENDBRANCH   4  20
TORSDOF 7
ENDMDL
MODEL 5
REMARK VINA RESULT:    -7.141      3.408      9.187
REMARK INTER + INTRA:         -11.042
REMARK INTER:                  -9.778
REMARK INTRA:                  -1.264
REMARK UNBOUND:                -0.979
REMARK  Name = 
REMARK  8 active torsions:
REMARK  status: ('A' for Active; 'I' for Inactive)
REMARK    1  A    between atoms: C_1  and  O_2
REMARK    2  A    between atoms: O_2  and  C_3
REMARK    3  A    between atoms: C_8  and  C_9
REMARK    4  A    between atoms: N_11  and  C_12
REMARK    5  A    between atoms: C_12  and  C_13
REMARK    6  A    between atoms: C_16  and  C_17
REMARK    7  A    between atoms: C_17  and  N_18
REMARK    8  A    between atoms: C_19  and  C_21
REMARK                            x       y       z     vdW  Elec       q    Type
REMARK                         _______ _______ _______ _____ _____    ______ ____
ROOT
ATOM      1  C   UNL     1      50.287   7.777  16.055  0.00  0.00    +0.000 C 
ATOM      2  C   UNL     1      49.175   6.769  15.749  0.00  0.00    +0.000 C 
ATOM      3  C   UNL     1      48.342   7.171  14.542  0.00  0.00    +0.000 C 
ATOM      4  C   UNL     1      49.193   7.408  13.286  0.00  0.00    +0.000 C 
ATOM      5  C   UNL     1      50.300   8.428  13.592  0.00  0.00    +0.000 C 
ATOM      6  C   UNL     1      51.146   8.003  14.798  0.00  0.00    +0.000 C 
ENDROOT
BRANCH   1   7
ATOM      7  C   UNL     1      51.117   7.275  17.247  0.00  0.00    +0.000 C 
BRANCH   7  10
ATOM      8  C   UNL     1      51.445   5.036  18.301  0.00  0.00    +0.000 C 
ATOM      9  O   UNL     1      51.319   5.500  19.423  0.00  0.00    +0.000 OA
ATOM     10  N   UNL     1      51.379   5.846  17.173  0.00  0.00    +0.000 N 
ATOM     11  H   UNL     1      51.506   5.404  16.267  0.00  0.00    +0.000 HD
BRANCH   8  17
ATOM     12  C   UNL     1      50.792   2.730  17.394  0.00  0.00    +0.000 A 
ATOM     13  C   UNL     1      51.133   1.382  17.254  0.00  0.00    +0.000 A 
ATOM     14  C   UNL     1      52.351   0.912  17.732  0.00  0.00    +0.000 A 
ATOM     15  C   UNL     1      53.204   1.816  18.342  0.00  0.00    +0.000 A 
ATOM     16  N   UNL     1      52.922   3.125  18.518  0.00  0.00    +0.000 NA
ATOM     17  C   UNL     1      51.715   3.569  18.042  0.00  0.00    +0.000 A 
BRANCH  12  19
ATOM     18  C   UNL     1      48.472   3.100  17.660  0.00  0.00    +0.000 C 
ATOM     19  O   UNL     1      49.640   3.235  16.856  0.00  0.00    +0.000 OA
ENDBRANCH  12  19
ENDBRANCH   8  17
ENDBRANCH   7  10
ENDBRANCH   1   7
BRANCH   4  20
ATOM     20  C   UNL     1      48.343   7.887  12.098  0.00  0.00    +0.000 C 
BRANCH  20  21
ATOM     21  N   UNL     1      47.621   6.806  11.459  0.00  0.00    +0.000 N 
ATOM     22  C   UNL     1      46.261   6.676  11.608  0.00  0.00    +0.000 C 
ATOM     23  O   UNL     1      45.586   7.468  12.263  0.00  0.00    +0.000 OA
ATOM     24  H   UNL     1      48.142   5.964  11.235  0.00  0.00    +0.000 HD
BRANCH  22  25
ATOM     25  C   UNL     1      45.637   5.566  10.882  0.00  0.00    +0.000 A 
ATOM     26  C   UNL     1      45.709   5.509   9.498  0.00  0.00    +0.000 A 
ATOM     27  S   UNL     1      44.920   4.149   8.833  0.00  0.00    +0.000 S 
ATOM     28  C   UNL     1      44.426   3.612  10.371  0.00  0.00    +0.000 A 
ATOM     29  N   UNL     1      43.664   2.495  10.518  0.00  0.00    +0.000 NA
ATOM     30  C   UNL     1      43.345   2.221  11.740  0.00  0.00    +0.000 A 
ATOM     31  N   UNL     1      43.726   2.962  12.831  0.00  0.00    +0.000 N 
ATOM     32  C   UNL     1      44.492   4.092  12.726  0.00  0.00    +0.000 A 
ATOM     33  O   UNL     1      44.825   4.733  13.727  0.00  0.00    +0.000 OA
ATOM     34  C   UNL     1      44.879   4.445  11.379  0.00  0.00    +0.000 A 
ATOM     35  H   UNL     1      43.450   2.689  13.762  0.00  0.00    +0.000 HD
ENDBRANCH  22  25
ENDBRANCH  20  21
ENDBRANCH   4  20
TORSDOF 7
ENDMDL
MODEL 6
REMARK VINA RESULT:    -7.059      2.918      9.439
REMARK INTER + INTRA:         -10.926
REMARK INTER:                  -9.634
REMARK INTRA:                  -1.292
REMARK UNBOUND:                -0.979
REMARK  Name = 
REMARK  8 active torsions:
REMARK  status: ('A' for Active; 'I' for Inactive)
REMARK    1  A    between atoms: C_1  and  O_2
REMARK    2  A    between atoms: O_2  and  C_3
REMARK    3  A    between atoms: C_8  and  C_9
REMARK    4  A    between atoms: N_11  and  C_12
REMARK    5  A    between atoms: C_12  and  C_13
REMARK    6  A    between atoms: C_16  and  C_17
REMARK    7  A    between atoms: C_17  and  N_18
REMARK    8  A    between atoms: C_19  and  C_21
REMARK                            x       y       z     vdW  Elec       q    Type
REMARK                         _______ _______ _______ _____ _____    ______ ____
ROOT
ATOM      1  C   UNL     1      49.033   7.688  15.990  0.00  0.00    +0.000 C 
ATOM      2  C   UNL     1      49.254   6.620  14.915  0.00  0.00    +0.000 C 
ATOM      3  C   UNL     1      48.177   6.644  13.841  0.00  0.00    +0.000 C 
ATOM      4  C   UNL     1      48.025   8.025  13.185  0.00  0.00    +0.000 C 
ATOM      5  C   UNL     1      47.792   9.091  14.264  0.00  0.00    +0.000 C 
ATOM      6  C   UNL     1      48.893   9.072  15.330  0.00  0.00    +0.000 C 
ENDROOT
BRANCH   1   7
ATOM      7  C   UNL     1      50.188   7.639  17.004  0.00  0.00    +0.000 C 
BRANCH   7  10
ATOM      8  C   UNL     1      50.755   5.540  18.230  0.00  0.00    +0.000 C 
ATOM      9  O   UNL     1      50.229   5.946  19.254  0.00  0.00    +0.000 OA
ATOM     10  N   UNL     1      50.797   6.320  17.079  0.00  0.00    +0.000 N 
ATOM     11  H   UNL     1      51.262   5.932  16.263  0.00  0.00    +0.000 HD
BRANCH   8  17
ATOM     12  C   UNL     1      50.869   3.108  17.429  0.00  0.00    +0.000 A 
ATOM     13  C   UNL     1      51.562   1.895  17.450  0.00  0.00    +0.000 A 
ATOM     14  C   UNL     1      52.768   1.786  18.132  0.00  0.00    +0.000 A 
ATOM     15  C   UNL     1      53.253   2.908  18.782  0.00  0.00    +0.000 A 
ATOM     16  N   UNL     1      52.620   4.101  18.809  0.00  0.00    +0.000 NA
ATOM     17  C   UNL     1      51.430   4.188  18.132  0.00  0.00    +0.000 A 
BRANCH  12  19
ATOM     18  C   UNL     1      48.536   2.754  17.284  0.00  0.00    +0.000 C 
ATOM     19  O   UNL     1      49.726   3.266  16.694  0.00  0.00    +0.000 OA
ENDBRANCH  12  19
ENDBRANCH   8  17
ENDBRANCH   7  10
ENDBRANCH   1   7
BRANCH   4  20
ATOM     20  C   UNL     1      46.881   8.049  12.158  0.00  0.00    +0.000 C 
BRANCH  20  21
ATOM     21  N   UNL     1      46.324   6.734  11.914  0.00  0.00    +0.000 N 
ATOM     22  C   UNL     1      45.002   6.576  11.574  0.00  0.00    +0.000 C 
ATOM     23  O   UNL     1      44.233   7.526  11.437  0.00  0.00    +0.000 OA
ATOM     24  H   UNL     1      46.784   5.943  12.353  0.00  0.00    +0.000 HD
BRANCH  22  25
ATOM     25  C   UNL     1      44.564   5.201  11.314  0.00  0.00    +0.000 A 
ATOM     26  C   UNL     1      43.783   4.531  12.244  0.00  0.00    +0.000 A 
ATOM     27  S   UNL     1      43.378   2.942  11.769  0.00  0.00    +0.000 S 
ATOM     28  C   UNL     1      44.263   3.086  10.323  0.00  0.00    +0.000 A 
ATOM     29  N   UNL     1      44.366   2.048   9.450  0.00  0.00    +0.000 NA
ATOM     30  C   UNL     1      45.087   2.294   8.407  0.00  0.00    +0.000 A 
ATOM     31  N   UNL     1      45.713   3.490   8.155  0.00  0.00    +0.000 N 
ATOM     32  C   UNL     1      45.636   4.558   9.008  0.00  0.00    +0.000 A 
ATOM     33  O   UNL     1      46.204   5.624   8.750  0.00  0.00    +0.000 OA
ATOM     34  C   UNL     1      44.839   4.338  10.193  0.00  0.00    +0.000 A 
ATOM     35  H   UNL     1      46.258   3.621   7.316  0.00  0.00    +0.000 HD
ENDBRANCH  22  25
ENDBRANCH  20  21
ENDBRANCH   4  20
TORSDOF 7
ENDMDL
MODEL 7
REMARK VINA RESULT:    -6.961      4.428      4.848
REMARK INTER + INTRA:         -10.788
REMARK INTER:                  -9.525
REMARK INTRA:                  -1.263
REMARK UNBOUND:                -0.979
REMARK  Name = 
REMARK  8 active torsions:
REMARK  status: ('A' for Active; 'I' for Inactive)
REMARK    1  A    between atoms: C_1  and  O_2
REMARK    2  A    between atoms: O_2  and  C_3
REMARK    3  A    between atoms: C_8  and  C_9
REMARK    4  A    between atoms: N_11  and  C_12
REMARK    5  A    between atoms: C_12  and  C_13
REMARK    6  A    between atoms: C_16  and  C_17
REMARK    7  A    between atoms: C_17  and  N_18
REMARK    8  A    between atoms: C_19  and  C_21
REMARK                            x       y       z     vdW  Elec       q    Type
REMARK                         _______ _______ _______ _____ _____    ______ ____
ROOT
ATOM      1  C   UNL     1      44.577   4.315  12.674  0.00  0.00    +0.000 C 
ATOM      2  C   UNL     1      43.915   5.352  11.762  0.00  0.00    +0.000 C 
ATOM      3  C   UNL     1      44.150   6.778  12.237  0.00  0.00    +0.000 C 
ATOM      4  C   UNL     1      45.639   7.108  12.412  0.00  0.00    +0.000 C 
ATOM      5  C   UNL     1      46.298   6.073  13.335  0.00  0.00    +0.000 C 
ATOM      6  C   UNL     1      46.073   4.641  12.836  0.00  0.00    +0.000 C 
ENDROOT
BRANCH   1   7
ATOM      7  C   UNL     1      44.346   2.908  12.099  0.00  0.00    +0.000 C 
BRANCH   7  10
ATOM      8  C   UNL     1      44.669   2.634   9.639  0.00  0.00    +0.000 C 
ATOM      9  O   UNL     1      43.481   2.811   9.421  0.00  0.00    +0.000 OA
ATOM     10  N   UNL     1      45.176   2.646  10.934  0.00  0.00    +0.000 N 
ATOM     11  H   UNL     1      46.172   2.479  11.052  0.00  0.00    +0.000 HD
BRANCH   8  17
ATOM     12  C   UNL     1      46.121   3.348   7.651  0.00  0.00    +0.000 A 
ATOM     13  C   UNL     1      47.015   2.960   6.649  0.00  0.00    +0.000 A 
ATOM     14  C   UNL     1      47.446   1.642   6.564  0.00  0.00    +0.000 A 
ATOM     15  C   UNL     1      46.966   0.738   7.496  0.00  0.00    +0.000 A 
ATOM     16  N   UNL     1      46.091   1.051   8.475  0.00  0.00    +0.000 NA
ATOM     17  C   UNL     1      45.675   2.356   8.541  0.00  0.00    +0.000 A 
BRANCH  12  19
ATOM     18  C   UNL     1      46.327   5.330   8.924  0.00  0.00    +0.000 C 
ATOM     19  O   UNL     1      45.750   4.655   7.811  0.00  0.00    +0.000 OA
ENDBRANCH  12  19
ENDBRANCH   8  17
ENDBRANCH   7  10
ENDBRANCH   1   7
BRANCH   4  20
ATOM     20  C   UNL     1      45.852   8.526  12.965  0.00  0.00    +0.000 C 
BRANCH  20  21
ATOM     21  N   UNL     1      47.175   9.043  12.678  0.00  0.00    +0.000 N 
ATOM     22  C   UNL     1      48.072   9.295  13.688  0.00  0.00    +0.000 C 
ATOM     23  O   UNL     1      47.818   9.079  14.872  0.00  0.00    +0.000 OA
ATOM     24  H   UNL     1      47.297   9.563  11.815  0.00  0.00    +0.000 HD
BRANCH  22  25
ATOM     25  C   UNL     1      49.391   9.779  13.272  0.00  0.00    +0.000 A 
ATOM     26  C   UNL     1      49.809  11.055  13.622  0.00  0.00    +0.000 A 
ATOM     27  S   UNL     1      51.367  11.441  13.043  0.00  0.00    +0.000 S 
ATOM     28  C   UNL     1      51.519   9.930  12.274  0.00  0.00    +0.000 A 
ATOM     29  N   UNL     1      52.624   9.616  11.546  0.00  0.00    +0.000 NA
ATOM     30  C   UNL     1      52.592   8.445  11.001  0.00  0.00    +0.000 A 
ATOM     31  N   UNL     1      51.553   7.556  11.123  0.00  0.00    +0.000 N 
ATOM     32  C   UNL     1      50.423   7.834  11.845  0.00  0.00    +0.000 A 
ATOM     33  O   UNL     1      49.508   7.011  11.942  0.00  0.00    +0.000 OA
ATOM     34  C   UNL     1      50.407   9.134  12.478  0.00  0.00    +0.000 A 
ATOM     35  H   UNL     1      51.592   6.651  10.678  0.00  0.00    +0.000 HD
ENDBRANCH  22  25
ENDBRANCH  20  21
ENDBRANCH   4  20
TORSDOF 7
ENDMDL
MODEL 8
REMARK VINA RESULT:    -6.841      2.297      3.440
REMARK INTER + INTRA:         -10.619
REMARK INTER:                  -9.720
REMARK INTRA:                  -0.899
REMARK UNBOUND:                -0.979
REMARK  Name = 
REMARK  8 active torsions:
REMARK  status: ('A' for Active; 'I' for Inactive)
REMARK    1  A    between atoms: C_1  and  O_2
REMARK    2  A    between atoms: O_2  and  C_3
REMARK    3  A    between atoms: C_8  and  C_9
REMARK    4  A    between atoms: N_11  and  C_12
REMARK    5  A    between atoms: C_12  and  C_13
REMARK    6  A    between atoms: C_16  and  C_17
REMARK    7  A    between atoms: C_17  and  N_18
REMARK    8  A    between atoms: C_19  and  C_21
REMARK                            x       y       z     vdW  Elec       q    Type
REMARK                         _______ _______ _______ _____ _____    ______ ____
ROOT
ATOM      1  C   UNL     1      46.772   7.882  12.600  0.00  0.00    +0.000 C 
ATOM      2  C   UNL     1      47.211   9.346  12.502  0.00  0.00    +0.000 C 
ATOM      3  C   UNL     1      48.505   9.617  13.256  0.00  0.00    +0.000 C 
ATOM      4  C   UNL     1      49.651   8.695  12.815  0.00  0.00    +0.000 C 
ATOM      5  C   UNL     1      49.212   7.228  12.926  0.00  0.00    +0.000 C 
ATOM      6  C   UNL     1      47.919   6.962  12.147  0.00  0.00    +0.000 C 
ENDROOT
BRANCH   1   7
ATOM      7  C   UNL     1      45.494   7.676  11.770  0.00  0.00    +0.000 C 
BRANCH   7  10
ATOM      8  C   UNL     1      44.460   5.677  10.689  0.00  0.00    +0.000 C 
ATOM      9  O   UNL     1      43.374   5.916  11.191  0.00  0.00    +0.000 OA
ATOM     10  N   UNL     1      45.565   6.484  10.939  0.00  0.00    +0.000 N 
ATOM     11  H   UNL     1      46.446   6.225  10.504  0.00  0.00    +0.000 HD
BRANCH   8  17
ATOM     12  C   UNL     1      44.141   3.219  10.036  0.00  0.00    +0.000 A 
ATOM     13  C   UNL     1      44.482   2.181   9.165  0.00  0.00    +0.000 A 
ATOM     14  C   UNL     1      45.338   2.413   8.096  0.00  0.00    +0.000 A 
ATOM     15  C   UNL     1      45.835   3.694   7.924  0.00  0.00    +0.000 A 
ATOM     16  N   UNL     1      45.553   4.732   8.741  0.00  0.00    +0.000 NA
ATOM     17  C   UNL     1      44.708   4.482   9.793  0.00  0.00    +0.000 A 
BRANCH  12  19
ATOM     18  C   UNL     1      43.770   2.605  12.289  0.00  0.00    +0.000 C 
ATOM     19  O   UNL     1      43.233   3.039  11.043  0.00  0.00    +0.000 OA
ENDBRANCH  12  19
ENDBRANCH   8  17
ENDBRANCH   7  10
ENDBRANCH   1   7
BRANCH   4  20
ATOM     20  C   UNL     1      50.927   8.931  13.640  0.00  0.00    +0.000 C 
BRANCH  20  21
ATOM     21  N   UNL     1      51.271   7.795  14.471  0.00  0.00    +0.000 N 
ATOM     22  C   UNL     1      51.145   7.852  15.838  0.00  0.00    +0.000 C 
ATOM     23  O   UNL     1      50.718   8.845  16.425  0.00  0.00    +0.000 OA
ATOM     24  H   UNL     1      51.942   7.130  14.098  0.00  0.00    +0.000 HD
BRANCH  22  25
ATOM     25  C   UNL     1      51.488   6.628  16.567  0.00  0.00    +0.000 A 
ATOM     26  C   UNL     1      52.802   6.380  16.935  0.00  0.00    +0.000 A 
ATOM     27  S   UNL     1      53.006   4.905  17.770  0.00  0.00    +0.000 S 
ATOM     28  C   UNL     1      51.350   4.533  17.635  0.00  0.00    +0.000 A 
ATOM     29  N   UNL     1      50.847   3.366  18.119  0.00  0.00    +0.000 NA
ATOM     30  C   UNL     1      49.579   3.209  17.926  0.00  0.00    +0.000 A 
ATOM     31  N   UNL     1      48.767   4.119  17.297  0.00  0.00    +0.000 N 
ATOM     32  C   UNL     1      49.234   5.305  16.796  0.00  0.00    +0.000 A 
ATOM     33  O   UNL     1      48.477   6.107  16.240  0.00  0.00    +0.000 OA
ATOM     34  C   UNL     1      50.649   5.533  16.985  0.00  0.00    +0.000 A 
ATOM     35  H   UNL     1      47.780   3.940  17.184  0.00  0.00    +0.000 HD
ENDBRANCH  22  25
ENDBRANCH  20  21
ENDBRANCH   4  20
TORSDOF 7
ENDMDL
MODEL 9
REMARK VINA RESULT:    -6.805      5.695      8.624
REMARK INTER + INTRA:         -10.569
REMARK INTER:                  -9.412
REMARK INTRA:                  -1.157
REMARK UNBOUND:                -0.979
REMARK  Name = 
REMARK  8 active torsions:
REMARK  status: ('A' for Active; 'I' for Inactive)
REMARK    1  A    between atoms: C_1  and  O_2
REMARK    2  A    between atoms: O_2  and  C_3
REMARK    3  A    between atoms: C_8  and  C_9
REMARK    4  A    between atoms: N_11  and  C_12
REMARK    5  A    between atoms: C_12  and  C_13
REMARK    6  A    between atoms: C_16  and  C_17
REMARK    7  A    between atoms: C_17  and  N_18
REMARK    8  A    between atoms: C_19  and  C_21
REMARK                            x       y       z     vdW  Elec       q    Type
REMARK                         _______ _______ _______ _____ _____    ______ ____
ROOT
ATOM      1  C   UNL     1      51.073   9.105  11.396  0.00  0.00    +0.000 C 
ATOM      2  C   UNL     1      50.609   7.649  11.290  0.00  0.00    +0.000 C 
ATOM      3  C   UNL     1      49.376   7.369  12.136  0.00  0.00    +0.000 C 
ATOM      4  C   UNL     1      48.210   8.316  11.818  0.00  0.00    +0.000 C 
ATOM      5  C   UNL     1      48.675   9.774  11.936  0.00  0.00    +0.000 C 
ATOM      6  C   UNL     1      49.905  10.051  11.064  0.00  0.00    +0.000 C 
ENDROOT
BRANCH   1   7
ATOM      7  C   UNL     1      52.282   9.324  10.473  0.00  0.00    +0.000 C 
BRANCH   7  10
ATOM      8  C   UNL     1      53.881   7.782   9.333  0.00  0.00    +0.000 C 
ATOM      9  O   UNL     1      54.839   8.459   9.668  0.00  0.00    +0.000 OA
ATOM     10  N   UNL     1      52.582   8.147   9.671  0.00  0.00    +0.000 N 
ATOM     11  H   UNL     1      51.825   7.550   9.350  0.00  0.00    +0.000 HD
BRANCH   8  17
ATOM     12  C   UNL     1      53.225   6.274   7.366  0.00  0.00    +0.000 A 
ATOM     13  C   UNL     1      53.405   5.054   6.709  0.00  0.00    +0.000 A 
ATOM     14  C   UNL     1      54.347   4.141   7.169  0.00  0.00    +0.000 A 
ATOM     15  C   UNL     1      55.091   4.479   8.286  0.00  0.00    +0.000 A 
ATOM     16  N   UNL     1      54.950   5.635   8.970  0.00  0.00    +0.000 NA
ATOM     17  C   UNL     1      54.013   6.522   8.502  0.00  0.00    +0.000 A 
BRANCH  12  19
ATOM     18  C   UNL     1      52.941   8.178   5.993  0.00  0.00    +0.000 C 
ATOM     19  O   UNL     1      52.368   7.226   6.884  0.00  0.00    +0.000 OA
ENDBRANCH  12  19
ENDBRANCH   8  17
ENDBRANCH   7  10
ENDBRANCH   1   7
BRANCH   4  20
ATOM     20  C   UNL     1      47.002   8.067  12.735  0.00  0.00    +0.000 C 
BRANCH  20  21
ATOM     21  N   UNL     1      46.373   6.785  12.492  0.00  0.00    +0.000 N 
ATOM     22  C   UNL     1      45.193   6.695  11.794  0.00  0.00    +0.000 C 
ATOM     23  O   UNL     1      44.623   7.677  11.322  0.00  0.00    +0.000 OA
ATOM     24  H   UNL     1      46.582   6.031  13.139  0.00  0.00    +0.000 HD
BRANCH  22  25
ATOM     25  C   UNL     1      44.674   5.341  11.579  0.00  0.00    +0.000 A 
ATOM     26  C   UNL     1      43.951   4.705  12.577  0.00  0.00    +0.000 A 
ATOM     27  S   UNL     1      43.436   3.135  12.145  0.00  0.00    +0.000 S 
ATOM     28  C   UNL     1      44.193   3.242  10.625  0.00  0.00    +0.000 A 
ATOM     29  N   UNL     1      44.171   2.201   9.750  0.00  0.00    +0.000 NA
ATOM     30  C   UNL     1      44.807   2.416   8.645  0.00  0.00    +0.000 A 
ATOM     31  N   UNL     1      45.458   3.583   8.335  0.00  0.00    +0.000 N 
ATOM     32  C   UNL     1      45.505   4.653   9.187  0.00  0.00    +0.000 A 
ATOM     33  O   UNL     1      46.094   5.693   8.876  0.00  0.00    +0.000 OA
ATOM     34  C   UNL     1      44.809   4.467  10.440  0.00  0.00    +0.000 A 
ATOM     35  H   UNL     1      45.931   3.691   7.449  0.00  0.00    +0.000 HD
ENDBRANCH  22  25
ENDBRANCH  20  21
ENDBRANCH   4  20
TORSDOF 7
ENDMDL
